MODEL 1
REMARK VINA RESULT: -7.932584085      0.000      0.000
REMARK  7 active torsions:
REMARK  status: ('A' for Active; 'I' for Inactive)
REMARK    1  A    between atoms: C2_2  and  C3_3 
REMARK    2  A    between atoms: N3_15  and  C11_16 
REMARK    3  A    between atoms: C11_16  and  C12_17 
REMARK    4  A    between atoms: C15_20  and  C16_21 
REMARK    5  A    between atoms: C16_21  and  C17_24 
REMARK    6  A    between atoms: C17_24  and  O1_25 
REMARK    7  A    between atoms: N4_27  and  O2_29 
ROOT
HETATM    1  C12 UNL     1      52.008  51.133  34.842  1.00  0.00     0.005 C 
HETATM    2  C13 UNL     1      51.487  52.347  35.575  1.00  0.00     0.007 C 
HETATM    3  C14 UNL     1      50.075  51.978  36.032  1.00  0.00     0.013 C 
HETATM    4  C15 UNL     1      49.154  52.006  34.805  1.00  0.00     0.084 C 
HETATM    5  C18 UNL     1      49.806  51.419  33.623  1.00  0.00     0.103 C 
HETATM    6  C19 UNL     1      50.295  52.504  32.725  1.00  0.00     0.064 C 
HETATM    7  N5  UNL     1      50.655  53.349  32.022  1.00  0.00    -0.197 NA
HETATM    8  C20 UNL     1      51.013  50.551  33.900  1.00  0.00     0.026 C 
ENDROOT
BRANCH   4   9
HETATM    9  C16 UNL     1      47.843  51.466  35.235  1.00  0.00     0.313 C 
HETATM   10  F1  UNL     1      48.018  50.202  35.828  1.00  0.00    -0.196 F 
HETATM   11  F2  UNL     1      47.064  51.197  34.093  1.00  0.00    -0.196 F 
BRANCH   9  12
HETATM   12  C17 UNL     1      47.030  52.261  36.138  1.00  0.00     0.210 C 
HETATM   13  N4  UNL     1      46.335  53.309  35.803  1.00  0.00    -0.246 N 
ATOM     14  H4  UNL     1      45.792  53.806  36.510  1.00  0.00     0.196 HD
BRANCH  12  15
HETATM   15  O1  UNL     1      46.937  51.932  37.506  1.00  0.00    -0.344 OA
ATOM     16  H1  UNL     1      46.795  51.035  37.782  1.00  0.00     0.219 HD
ENDBRANCH  12  15
BRANCH  13  17
HETATM   17  O2  UNL     1      46.329  53.742  34.521  1.00  0.00    -0.288 OA
ATOM     18  H2  UNL     1      46.002  54.608  34.310  1.00  0.00     0.244 HD
ENDBRANCH  13  17
ENDBRANCH   9  12
ENDBRANCH   4   9
BRANCH   1  19
HETATM   19  C11 UNL     1      53.303  51.348  34.133  1.00  0.00     0.136 C 
BRANCH  19  20
HETATM   20  N3  UNL     1      54.403  50.559  34.629  1.00  0.00    -0.320 N 
HETATM   21  C3  UNL     1      55.283  50.954  35.574  1.00  0.00     0.085 A 
HETATM   22  N1  UNL     1      56.178  49.967  35.802  1.00  0.00    -0.342 N 
HETATM   23  C4  UNL     1      55.888  48.936  35.016  1.00  0.00     0.084 A 
ATOM     24  H1  UNL     1      56.949  50.007  36.468  1.00  0.00     0.167 HD
HETATM   25  C5  UNL     1      56.499  47.711  34.880  1.00  0.00    -0.030 A 
HETATM   26  C10 UNL     1      54.764  49.315  34.275  1.00  0.00     0.137 A 
HETATM   27  C6  UNL     1      57.692  47.273  35.647  1.00  0.00     0.050 C 
HETATM   28  C7  UNL     1      55.961  46.831  33.969  1.00  0.00     0.033 A 
HETATM   29  C8  UNL     1      54.842  47.225  33.240  1.00  0.00     0.007 A 
HETATM   30  C9  UNL     1      54.213  46.316  32.237  1.00  0.00     0.068 C 
HETATM   31  N2  UNL     1      54.288  48.431  33.411  1.00  0.00    -0.344 N 
ATOM     32  H2  UNL     1      53.468  48.678  32.856  1.00  0.00     0.167 HD
BRANCH  21  33
HETATM   33  C2  UNL     1      55.265  52.261  36.250  1.00  0.00     0.072 C 
HETATM   34  C1  UNL     1      56.423  53.145  35.839  1.00  0.00     0.013 C 
ENDBRANCH  21  33
ENDBRANCH  19  20
ENDBRANCH   1  19
TORSDOF 7
ENDMDL
MODEL 2
REMARK VINA RESULT: -7.899219092      6.877      9.716
REMARK  7 active torsions:
REMARK  status: ('A' for Active; 'I' for Inactive)
REMARK    1  A    between atoms: C2_2  and  C3_3 
REMARK    2  A    between atoms: N3_15  and  C11_16 
REMARK    3  A    between atoms: C11_16  and  C12_17 
REMARK    4  A    between atoms: C15_20  and  C16_21 
REMARK    5  A    between atoms: C16_21  and  C17_24 
REMARK    6  A    between atoms: C17_24  and  O1_25 
REMARK    7  A    between atoms: N4_27  and  O2_29 
ROOT
HETATM    1  C12 UNL     1      46.216  50.197  29.782  1.00  0.00     0.005 C 
HETATM    2  C13 UNL     1      47.518  50.436  30.508  1.00  0.00     0.007 C 
HETATM    3  C14 UNL     1      47.209  50.215  31.990  1.00  0.00     0.013 C 
HETATM    4  C15 UNL     1      46.409  51.423  32.495  1.00  0.00     0.084 C 
HETATM    5  C18 UNL     1      45.405  51.861  31.511  1.00  0.00     0.103 C 
HETATM    6  C19 UNL     1      45.904  53.061  30.780  1.00  0.00     0.064 C 
HETATM    7  N5  UNL     1      46.286  54.004  30.230  1.00  0.00    -0.197 NA
HETATM    8  C20 UNL     1      45.052  50.855  30.440  1.00  0.00     0.026 C 
ENDROOT
BRANCH   4   9
HETATM    9  C16 UNL     1      45.963  51.103  33.872  1.00  0.00     0.313 C 
HETATM   10  F1  UNL     1      46.051  49.716  34.092  1.00  0.00    -0.196 F 
HETATM   11  F2  UNL     1      44.585  51.374  33.979  1.00  0.00    -0.196 F 
BRANCH   9  12
HETATM   12  C17 UNL     1      46.624  51.762  34.984  1.00  0.00     0.210 C 
HETATM   13  N4  UNL     1      46.613  53.042  35.217  1.00  0.00    -0.246 N 
ATOM     14  H4  UNL     1      47.109  53.416  36.026  1.00  0.00     0.196 HD
BRANCH  12  15
HETATM   15  O1  UNL     1      47.356  51.020  35.932  1.00  0.00    -0.344 OA
ATOM     16  H1  UNL     1      48.249  50.750  35.755  1.00  0.00     0.219 HD
ENDBRANCH  12  15
BRANCH  13  17
HETATM   17  O2  UNL     1      45.947  53.880  34.388  1.00  0.00    -0.288 OA
ATOM     18  H2  UNL     1      46.253  54.771  34.262  1.00  0.00     0.244 HD
ENDBRANCH  13  17
ENDBRANCH   9  12
ENDBRANCH   4   9
BRANCH   1  19
HETATM   19  C11 UNL     1      46.241  50.558  28.333  1.00  0.00     0.136 C 
BRANCH  19  20
HETATM   20  N3  UNL     1      46.170  49.437  27.430  1.00  0.00    -0.320 N 
HETATM   21  C3  UNL     1      47.228  48.724  26.987  1.00  0.00     0.085 A 
HETATM   22  N1  UNL     1      46.800  47.744  26.160  1.00  0.00    -0.342 N 
HETATM   23  C4  UNL     1      45.478  47.813  26.061  1.00  0.00     0.084 A 
ATOM     24  H1  UNL     1      47.396  47.062  25.690  1.00  0.00     0.167 HD
HETATM   25  C5  UNL     1      44.588  47.043  25.347  1.00  0.00    -0.030 A 
HETATM   26  C10 UNL     1      45.082  48.887  26.866  1.00  0.00     0.137 A 
HETATM   27  C6  UNL     1      44.969  45.897  24.483  1.00  0.00     0.050 C 
HETATM   28  C7  UNL     1      43.253  47.360  25.445  1.00  0.00     0.033 A 
HETATM   29  C8  UNL     1      42.878  48.432  26.250  1.00  0.00     0.007 A 
HETATM   30  C9  UNL     1      41.445  48.824  26.398  1.00  0.00     0.068 C 
HETATM   31  N2  UNL     1      43.785  49.149  26.924  1.00  0.00    -0.344 N 
ATOM     32  H2  UNL     1      43.466  49.926  27.503  1.00  0.00     0.167 HD
BRANCH  21  33
HETATM   33  C2  UNL     1      48.630  48.978  27.354  1.00  0.00     0.072 C 
HETATM   34  C1  UNL     1      49.185  47.930  28.295  1.00  0.00     0.013 C 
ENDBRANCH  21  33
ENDBRANCH  19  20
ENDBRANCH   1  19
TORSDOF 7
ENDMDL
MODEL 3
REMARK VINA RESULT: -7.822709964      3.894      6.214
REMARK  7 active torsions:
REMARK  status: ('A' for Active; 'I' for Inactive)
REMARK    1  A    between atoms: C2_2  and  C3_3 
REMARK    2  A    between atoms: N3_15  and  C11_16 
REMARK    3  A    between atoms: C11_16  and  C12_17 
REMARK    4  A    between atoms: C15_20  and  C16_21 
REMARK    5  A    between atoms: C16_21  and  C17_24 
REMARK    6  A    between atoms: C17_24  and  O1_25 
REMARK    7  A    between atoms: N4_27  and  O2_29 
ROOT
HETATM    1  C12 UNL     1      49.254  51.004  34.114  1.00  0.00     0.005 C 
HETATM    2  C13 UNL     1      49.891  52.080  34.961  1.00  0.00     0.007 C 
HETATM    3  C14 UNL     1      49.853  51.550  36.395  1.00  0.00     0.013 C 
HETATM    4  C15 UNL     1      48.409  51.646  36.902  1.00  0.00     0.084 C 
HETATM    5  C18 UNL     1      47.441  51.253  35.864  1.00  0.00     0.103 C 
HETATM    6  C19 UNL     1      46.836  52.470  35.251  1.00  0.00     0.064 C 
HETATM    7  N5  UNL     1      46.354  53.416  34.793  1.00  0.00    -0.197 NA
HETATM    8  C20 UNL     1      48.003  50.457  34.709  1.00  0.00     0.026 C 
ENDROOT
BRANCH   4   9
HETATM    9  C16 UNL     1      48.363  50.958  38.214  1.00  0.00     0.313 C 
HETATM   10  F1  UNL     1      48.796  49.628  38.071  1.00  0.00    -0.196 F 
HETATM   11  F2  UNL     1      47.019  50.834  38.617  1.00  0.00    -0.196 F 
BRANCH   9  12
HETATM   12  C17 UNL     1      49.097  51.538  39.325  1.00  0.00     0.210 C 
HETATM   13  N4  UNL     1      49.385  50.929  40.439  1.00  0.00    -0.246 N 
ATOM     14  H4  UNL     1      49.907  51.419  41.165  1.00  0.00     0.196 HD
BRANCH  12  15
HETATM   15  O1  UNL     1      49.572  52.863  39.264  1.00  0.00    -0.344 OA
ATOM     16  H1  UNL     1      49.941  53.212  38.462  1.00  0.00     0.219 HD
ENDBRANCH  12  15
BRANCH  13  17
HETATM   17  O2  UNL     1      48.993  49.649  40.637  1.00  0.00    -0.288 OA
ATOM     18  H2  UNL     1      49.482  49.084  41.224  1.00  0.00     0.244 HD
ENDBRANCH  13  17
ENDBRANCH   9  12
ENDBRANCH   4   9
BRANCH   1  19
HETATM   19  C11 UNL     1      49.003  51.401  32.697  1.00  0.00     0.136 C 
BRANCH  19  20
HETATM   20  N3  UNL     1      48.688  50.309  31.810  1.00  0.00    -0.320 N 
HETATM   21  C3  UNL     1      47.578  50.221  31.045  1.00  0.00     0.085 A 
HETATM   22  N1  UNL     1      47.607  49.072  30.334  1.00  0.00    -0.342 N 
HETATM   23  C4  UNL     1      48.722  48.413  30.629  1.00  0.00     0.084 A 
ATOM     24  H1  UNL     1      46.890  48.762  29.678  1.00  0.00     0.167 HD
HETATM   25  C5  UNL     1      49.201  47.208  30.170  1.00  0.00    -0.030 A 
HETATM   26  C10 UNL     1      49.404  49.200  31.564  1.00  0.00     0.137 A 
HETATM   27  C6  UNL     1      48.508  46.346  29.180  1.00  0.00     0.050 C 
HETATM   28  C7  UNL     1      50.410  46.775  30.666  1.00  0.00     0.033 A 
HETATM   29  C8  UNL     1      51.074  47.571  31.596  1.00  0.00     0.007 A 
HETATM   30  C9  UNL     1      52.389  47.157  32.170  1.00  0.00     0.068 C 
HETATM   31  N2  UNL     1      50.562  48.736  32.009  1.00  0.00    -0.344 N 
ATOM     32  H2  UNL     1      51.082  49.288  32.692  1.00  0.00     0.167 HD
BRANCH  21  33
HETATM   33  C2  UNL     1      46.505  51.227  30.996  1.00  0.00     0.072 C 
HETATM   34  C1  UNL     1      45.453  51.009  32.061  1.00  0.00     0.013 C 
ENDBRANCH  21  33
ENDBRANCH  19  20
ENDBRANCH   1  19
TORSDOF 7
ENDMDL
MODEL 4
REMARK VINA RESULT: -7.801608369      3.143      5.228
REMARK  7 active torsions:
REMARK  status: ('A' for Active; 'I' for Inactive)
REMARK    1  A    between atoms: C2_2  and  C3_3 
REMARK    2  A    between atoms: N3_15  and  C11_16 
REMARK    3  A    between atoms: C11_16  and  C12_17 
REMARK    4  A    between atoms: C15_20  and  C16_21 
REMARK    5  A    between atoms: C16_21  and  C17_24 
REMARK    6  A    between atoms: C17_24  and  O1_25 
REMARK    7  A    between atoms: N4_27  and  O2_29 
ROOT
HETATM    1  C12 UNL     1      49.326  49.663  32.092  1.00  0.00     0.005 C 
HETATM    2  C13 UNL     1      49.331  51.173  32.048  1.00  0.00     0.007 C 
HETATM    3  C14 UNL     1      48.645  51.625  33.338  1.00  0.00     0.013 C 
HETATM    4  C15 UNL     1      47.139  51.370  33.193  1.00  0.00     0.084 C 
HETATM    5  C18 UNL     1      46.867  50.081  32.535  1.00  0.00     0.103 C 
HETATM    6  C19 UNL     1      46.514  50.308  31.104  1.00  0.00     0.064 C 
HETATM    7  N5  UNL     1      46.222  50.490  30.000  1.00  0.00    -0.197 NA
HETATM    8  C20 UNL     1      48.015  49.098  32.516  1.00  0.00     0.026 C 
ENDROOT
BRANCH   4   9
HETATM    9  C16 UNL     1      46.524  51.638  34.514  1.00  0.00     0.313 C 
HETATM   10  F1  UNL     1      47.142  50.844  35.497  1.00  0.00    -0.196 F 
HETATM   11  F2  UNL     1      45.192  51.180  34.498  1.00  0.00    -0.196 F 
BRANCH   9  12
HETATM   12  C17 UNL     1      46.508  53.005  35.005  1.00  0.00     0.210 C 
HETATM   13  N4  UNL     1      46.446  53.356  36.256  1.00  0.00    -0.246 N 
ATOM     14  H4  UNL     1      46.440  54.345  36.507  1.00  0.00     0.196 HD
BRANCH  12  15
HETATM   15  O1  UNL     1      46.563  54.094  34.112  1.00  0.00    -0.344 OA
ATOM     16  H1  UNL     1      47.201  54.787  34.229  1.00  0.00     0.219 HD
ENDBRANCH  12  15
BRANCH  13  17
HETATM   17  O2  UNL     1      46.389  52.414  37.227  1.00  0.00    -0.288 OA
ATOM     18  H2  UNL     1      45.809  52.528  37.970  1.00  0.00     0.244 HD
ENDBRANCH  13  17
ENDBRANCH   9  12
ENDBRANCH   4   9
BRANCH   1  19
HETATM   19  C11 UNL     1      49.770  49.006  30.828  1.00  0.00     0.136 C 
BRANCH  19  20
HETATM   20  N3  UNL     1      50.441  47.743  31.006  1.00  0.00    -0.320 N 
HETATM   21  C3  UNL     1      49.981  46.548  30.577  1.00  0.00     0.085 A 
HETATM   22  N1  UNL     1      50.862  45.578  30.907  1.00  0.00    -0.342 N 
HETATM   23  C4  UNL     1      51.889  46.130  31.544  1.00  0.00     0.084 A 
ATOM     24  H1  UNL     1      50.757  44.585  30.699  1.00  0.00     0.167 HD
HETATM   25  C5  UNL     1      53.026  45.565  32.074  1.00  0.00    -0.030 A 
HETATM   26  C10 UNL     1      51.619  47.501  31.605  1.00  0.00     0.137 A 
HETATM   27  C6  UNL     1      53.348  44.116  32.029  1.00  0.00     0.050 C 
HETATM   28  C7  UNL     1      53.927  46.406  32.685  1.00  0.00     0.033 A 
HETATM   29  C8  UNL     1      53.641  47.768  32.737  1.00  0.00     0.007 A 
HETATM   30  C9  UNL     1      54.579  48.731  33.386  1.00  0.00     0.068 C 
HETATM   31  N2  UNL     1      52.518  48.265  32.206  1.00  0.00    -0.344 N 
ATOM     32  H2  UNL     1      52.348  49.270  32.266  1.00  0.00     0.167 HD
BRANCH  21  33
HETATM   33  C2  UNL     1      48.713  46.340  29.859  1.00  0.00     0.072 C 
HETATM   34  C1  UNL     1      48.844  46.569  28.369  1.00  0.00     0.013 C 
ENDBRANCH  21  33
ENDBRANCH  19  20
ENDBRANCH   1  19
TORSDOF 7
ENDMDL
MODEL 5
REMARK VINA RESULT: -7.781397261      2.497      4.591
REMARK  7 active torsions:
REMARK  status: ('A' for Active; 'I' for Inactive)
REMARK    1  A    between atoms: C2_2  and  C3_3 
REMARK    2  A    between atoms: N3_15  and  C11_16 
REMARK    3  A    between atoms: C11_16  and  C12_17 
REMARK    4  A    between atoms: C15_20  and  C16_21 
REMARK    5  A    between atoms: C16_21  and  C17_24 
REMARK    6  A    between atoms: C17_24  and  O1_25 
REMARK    7  A    between atoms: N4_27  and  O2_29 
ROOT
HETATM    1  C12 UNL     1      49.497  49.254  32.656  1.00  0.00     0.005 C 
HETATM    2  C13 UNL     1      49.638  50.754  32.550  1.00  0.00     0.007 C 
HETATM    3  C14 UNL     1      48.812  51.327  33.702  1.00  0.00     0.013 C 
HETATM    4  C15 UNL     1      47.328  51.185  33.343  1.00  0.00     0.084 C 
HETATM    5  C18 UNL     1      47.045  49.887  32.706  1.00  0.00     0.103 C 
HETATM    6  C19 UNL     1      46.926  50.063  31.231  1.00  0.00     0.064 C 
HETATM    7  N5  UNL     1      46.815  50.208  30.089  1.00  0.00    -0.197 NA
HETATM    8  C20 UNL     1      48.094  48.817  32.901  1.00  0.00     0.026 C 
ENDROOT
BRANCH   4   9
HETATM    9  C16 UNL     1      46.551  51.571  34.544  1.00  0.00     0.313 C 
HETATM   10  F1  UNL     1      46.972  50.810  35.650  1.00  0.00    -0.196 F 
HETATM   11  F2  UNL     1      45.208  51.188  34.362  1.00  0.00    -0.196 F 
BRANCH   9  12
HETATM   12  C17 UNL     1      46.554  52.966  34.950  1.00  0.00     0.210 C 
HETATM   13  N4  UNL     1      46.484  53.395  36.177  1.00  0.00    -0.246 N 
ATOM     14  H4  UNL     1      46.493  54.397  36.366  1.00  0.00     0.196 HD
BRANCH  12  15
HETATM   15  O1  UNL     1      46.639  53.997  33.993  1.00  0.00    -0.344 OA
ATOM     16  H1  UNL     1      46.167  54.812  34.112  1.00  0.00     0.219 HD
ENDBRANCH  12  15
BRANCH  13  17
HETATM   17  O2  UNL     1      46.399  52.515  37.203  1.00  0.00    -0.288 OA
ATOM     18  H2  UNL     1      46.093  52.803  38.054  1.00  0.00     0.244 HD
ENDBRANCH  13  17
ENDBRANCH   9  12
ENDBRANCH   4   9
BRANCH   1  19
HETATM   19  C11 UNL     1      50.063  48.496  31.502  1.00  0.00     0.136 C 
BRANCH  19  20
HETATM   20  N3  UNL     1      51.256  47.744  31.798  1.00  0.00    -0.320 N 
HETATM   21  C3  UNL     1      51.468  46.453  31.462  1.00  0.00     0.085 A 
HETATM   22  N1  UNL     1      52.690  46.067  31.890  1.00  0.00    -0.342 N 
HETATM   23  C4  UNL     1      53.274  47.093  32.499  1.00  0.00     0.084 A 
ATOM     24  H1  UNL     1      53.098  45.141  31.764  1.00  0.00     0.167 HD
HETATM   25  C5  UNL     1      54.510  47.198  33.097  1.00  0.00    -0.030 A 
HETATM   26  C10 UNL     1      52.363  48.153  32.439  1.00  0.00     0.137 A 
HETATM   27  C6  UNL     1      55.503  46.098  33.180  1.00  0.00     0.050 C 
HETATM   28  C7  UNL     1      54.844  48.411  33.654  1.00  0.00     0.033 A 
HETATM   29  C8  UNL     1      53.924  49.454  33.585  1.00  0.00     0.007 A 
HETATM   30  C9  UNL     1      54.228  50.794  34.170  1.00  0.00     0.068 C 
HETATM   31  N2  UNL     1      52.734  49.297  32.992  1.00  0.00    -0.344 N 
ATOM     32  H2  UNL     1      52.091  50.088  32.964  1.00  0.00     0.167 HD
BRANCH  21  33
HETATM   33  C2  UNL     1      50.510  45.601  30.739  1.00  0.00     0.072 C 
HETATM   34  C1  UNL     1      51.094  45.015  29.471  1.00  0.00     0.013 C 
ENDBRANCH  21  33
ENDBRANCH  19  20
ENDBRANCH   1  19
TORSDOF 7
ENDMDL
