MODEL 1
REMARK VINA RESULT: -8.326637746      0.000      0.000
REMARK  7 active torsions:
REMARK  status: ('A' for Active; 'I' for Inactive)
REMARK    1  A    between atoms: N2_10  and  C7_11 
REMARK    2  A    between atoms: C7_11  and  C8_12 
REMARK    3  A    between atoms: C10_14  and  C11_15 
REMARK    4  A    between atoms: C11_15  and  O1_16 
REMARK    5  A    between atoms: N3_18  and  O2_20 
REMARK    6  A    between atoms: C13_25  and  S1_26 
REMARK    7  A    between atoms: S1_26  and  C14_27 
ROOT
HETATM    1  N1  UNL     1      47.153  55.936  30.752  1.00  0.00    -0.195 NA
HETATM    2  C1  UNL     1      47.353  54.781  30.857  1.00  0.00     0.084 C 
HETATM    3  C2  UNL     1      47.626  53.349  30.977  1.00  0.00     0.191 C 
HETATM    4  C3  UNL     1      46.547  52.663  30.168  1.00  0.00     0.046 C 
HETATM    5  C4  UNL     1      45.220  53.112  30.793  1.00  0.00     0.083 C 
HETATM    6  C5  UNL     1      45.213  52.525  32.175  1.00  0.00     0.259 C 
HETATM    7  F1  UNL     1      45.260  51.135  32.086  1.00  0.00    -0.205 F 
HETATM    8  F2  UNL     1      44.005  52.836  32.786  1.00  0.00    -0.205 F 
HETATM    9  C6  UNL     1      46.369  52.980  33.007  1.00  0.00     0.202 C 
HETATM   10  N2  UNL     1      47.630  52.995  32.347  1.00  0.00    -0.366 N 
ENDROOT
BRANCH  10  11
HETATM   11  C7  UNL     1      48.418  51.893  32.753  1.00  0.00     0.101 C 
BRANCH  11  12
HETATM   12  C8  UNL     1      48.509  51.546  34.150  1.00  0.00     0.014 A 
HETATM   13  C9  UNL     1      48.923  52.388  35.141  1.00  0.00     0.032 A 
HETATM   14  C10 UNL     1      48.964  51.985  36.484  1.00  0.00     0.033 A 
HETATM   15  C12 UNL     1      48.577  50.708  36.810  1.00  0.00     0.104 A 
HETATM   16  N4  UNL     1      48.178  49.906  35.836  1.00  0.00    -0.359 N 
HETATM   17  C13 UNL     1      48.126  50.258  34.544  1.00  0.00     0.087 A 
ATOM     18  H4  UNL     1      47.891  48.960  36.084  1.00  0.00     0.166 HD
BRANCH  14  19
HETATM   19  C11 UNL     1      49.412  52.903  37.523  1.00  0.00     0.171 C 
HETATM   20  N3  UNL     1      49.318  52.570  38.751  1.00  0.00    -0.247 N 
ATOM     21  H3  UNL     1      48.927  51.659  38.989  1.00  0.00     0.196 HD
BRANCH  19  22
HETATM   22  O1  UNL     1      49.934  54.120  37.192  1.00  0.00    -0.344 OA
ATOM     23  H1  UNL     1      50.363  54.247  36.354  1.00  0.00     0.219 HD
ENDBRANCH  19  22
BRANCH  20  24
HETATM   24  O2  UNL     1      49.729  53.404  39.761  1.00  0.00    -0.288 OA
ATOM     25  H2  UNL     1      49.260  54.203  39.975  1.00  0.00     0.244 HD
ENDBRANCH  20  24
ENDBRANCH  14  19
BRANCH  17  26
HETATM   26  S1  UNL     1      47.565  49.079  33.304  1.00  0.00    -0.054 SA
BRANCH  26  27
HETATM   27  C14 UNL     1      48.944  48.176  32.690  1.00  0.00     0.075 A 
HETATM   28  C15 UNL     1      48.747  46.877  32.253  1.00  0.00     0.037 A 
HETATM   29  C16 UNL     1      49.789  46.109  31.757  1.00  0.00     0.004 A 
HETATM   30  C17 UNL     1      51.077  46.633  31.686  1.00  0.00     0.017 A 
HETATM   31  C18 UNL     1      51.228  47.932  32.131  1.00  0.00     0.089 A 
HETATM   32  N5  UNL     1      50.196  48.663  32.613  1.00  0.00    -0.360 N 
ATOM     33  H5  UNL     1      50.373  49.617  32.928  1.00  0.00     0.166 HD
ENDBRANCH  26  27
ENDBRANCH  17  26
ENDBRANCH  11  12
ENDBRANCH  10  11
TORSDOF 7
ENDMDL
MODEL 2
REMARK VINA RESULT: -8.151295470      3.166      5.068
REMARK  7 active torsions:
REMARK  status: ('A' for Active; 'I' for Inactive)
REMARK    1  A    between atoms: N2_10  and  C7_11 
REMARK    2  A    between atoms: C7_11  and  C8_12 
REMARK    3  A    between atoms: C10_14  and  C11_15 
REMARK    4  A    between atoms: C11_15  and  O1_16 
REMARK    5  A    between atoms: N3_18  and  O2_20 
REMARK    6  A    between atoms: C13_25  and  S1_26 
REMARK    7  A    between atoms: S1_26  and  C14_27 
ROOT
HETATM    1  N1  UNL     1      47.916  53.052  29.748  1.00  0.00    -0.195 NA
HETATM    2  C1  UNL     1      47.878  52.218  30.578  1.00  0.00     0.084 C 
HETATM    3  C2  UNL     1      47.855  51.174  31.601  1.00  0.00     0.191 C 
HETATM    4  C3  UNL     1      46.634  50.335  31.296  1.00  0.00     0.046 C 
HETATM    5  C4  UNL     1      45.447  51.305  31.352  1.00  0.00     0.083 C 
HETATM    6  C5  UNL     1      45.364  51.749  32.783  1.00  0.00     0.259 C 
HETATM    7  F1  UNL     1      45.121  50.643  33.595  1.00  0.00    -0.205 F 
HETATM    8  F2  UNL     1      44.264  52.586  32.927  1.00  0.00    -0.205 F 
HETATM    9  C6  UNL     1      46.614  52.416  33.261  1.00  0.00     0.202 C 
HETATM   10  N2  UNL     1      47.830  51.782  32.879  1.00  0.00    -0.366 N 
ENDROOT
BRANCH  10  11
HETATM   11  C7  UNL     1      48.387  51.076  33.970  1.00  0.00     0.101 C 
BRANCH  11  12
HETATM   12  C8  UNL     1      49.610  51.537  34.581  1.00  0.00     0.014 A 
HETATM   13  C9  UNL     1      50.812  51.643  33.943  1.00  0.00     0.032 A 
HETATM   14  C10 UNL     1      51.956  52.122  34.597  1.00  0.00     0.033 A 
HETATM   15  C12 UNL     1      51.864  52.494  35.917  1.00  0.00     0.104 A 
HETATM   16  N4  UNL     1      50.691  52.383  36.518  1.00  0.00    -0.359 N 
HETATM   17  C13 UNL     1      49.579  51.931  35.924  1.00  0.00     0.087 A 
ATOM     18  H4  UNL     1      50.629  52.661  37.497  1.00  0.00     0.166 HD
BRANCH  14  19
HETATM   19  C11 UNL     1      53.228  52.226  33.893  1.00  0.00     0.171 C 
HETATM   20  N3  UNL     1      54.023  51.229  33.865  1.00  0.00    -0.247 N 
ATOM     21  H3  UNL     1      53.755  50.367  34.340  1.00  0.00     0.196 HD
BRANCH  19  22
HETATM   22  O1  UNL     1      53.575  53.384  33.261  1.00  0.00    -0.344 OA
ATOM     23  H1  UNL     1      53.671  53.406  32.317  1.00  0.00     0.219 HD
ENDBRANCH  19  22
BRANCH  20  24
HETATM   24  O2  UNL     1      55.230  51.283  33.213  1.00  0.00    -0.288 OA
ATOM     25  H2  UNL     1      55.501  50.607  32.602  1.00  0.00     0.244 HD
ENDBRANCH  20  24
ENDBRANCH  14  19
BRANCH  17  26
HETATM   26  S1  UNL     1      48.036  51.825  36.845  1.00  0.00    -0.054 SA
BRANCH  26  27
HETATM   27  C14 UNL     1      48.353  51.156  38.442  1.00  0.00     0.075 A 
HETATM   28  C15 UNL     1      47.973  49.850  38.703  1.00  0.00     0.037 A 
HETATM   29  C16 UNL     1      48.193  49.261  39.939  1.00  0.00     0.004 A 
HETATM   30  C17 UNL     1      48.809  49.979  40.961  1.00  0.00     0.017 A 
HETATM   31  C18 UNL     1      49.171  51.276  40.656  1.00  0.00     0.089 A 
HETATM   32  N5  UNL     1      48.946  51.832  39.442  1.00  0.00    -0.360 N 
ATOM     33  H5  UNL     1      49.236  52.796  39.281  1.00  0.00     0.166 HD
ENDBRANCH  26  27
ENDBRANCH  17  26
ENDBRANCH  11  12
ENDBRANCH  10  11
TORSDOF 7
ENDMDL
MODEL 3
REMARK VINA RESULT: -8.057267326      2.112      5.128
REMARK  7 active torsions:
REMARK  status: ('A' for Active; 'I' for Inactive)
REMARK    1  A    between atoms: N2_10  and  C7_11 
REMARK    2  A    between atoms: C7_11  and  C8_12 
REMARK    3  A    between atoms: C10_14  and  C11_15 
REMARK    4  A    between atoms: C11_15  and  O1_16 
REMARK    5  A    between atoms: N3_18  and  O2_20 
REMARK    6  A    between atoms: C13_25  and  S1_26 
REMARK    7  A    between atoms: S1_26  and  C14_27 
ROOT
HETATM    1  N1  UNL     1      51.819  48.572  32.395  1.00  0.00    -0.195 NA
HETATM    2  C1  UNL     1      50.647  48.470  32.439  1.00  0.00     0.084 C 
HETATM    3  C2  UNL     1      49.193  48.329  32.514  1.00  0.00     0.191 C 
HETATM    4  C3  UNL     1      48.781  47.688  31.207  1.00  0.00     0.046 C 
HETATM    5  C4  UNL     1      49.270  48.642  30.111  1.00  0.00     0.083 C 
HETATM    6  C5  UNL     1      48.467  49.897  30.290  1.00  0.00     0.259 C 
HETATM    7  F1  UNL     1      47.116  49.609  30.111  1.00  0.00    -0.205 F 
HETATM    8  F2  UNL     1      48.811  50.793  29.284  1.00  0.00    -0.205 F 
HETATM    9  C6  UNL     1      48.641  50.513  31.641  1.00  0.00     0.202 C 
HETATM   10  N2  UNL     1      48.619  49.603  32.735  1.00  0.00    -0.366 N 
ENDROOT
BRANCH  10  11
HETATM   11  C7  UNL     1      47.381  49.673  33.415  1.00  0.00     0.101 C 
BRANCH  11  12
HETATM   12  C8  UNL     1      47.234  50.530  34.565  1.00  0.00     0.014 A 
HETATM   13  C9  UNL     1      47.957  50.424  35.718  1.00  0.00     0.032 A 
HETATM   14  C10 UNL     1      47.775  51.311  36.789  1.00  0.00     0.033 A 
HETATM   15  C12 UNL     1      46.844  52.315  36.675  1.00  0.00     0.104 A 
HETATM   16  N4  UNL     1      46.154  52.402  35.549  1.00  0.00    -0.359 N 
HETATM   17  C13 UNL     1      46.301  51.573  34.507  1.00  0.00     0.087 A 
ATOM     18  H4  UNL     1      45.464  53.149  35.470  1.00  0.00     0.166 HD
BRANCH  14  19
HETATM   19  C11 UNL     1      48.559  51.174  38.010  1.00  0.00     0.171 C 
HETATM   20  N3  UNL     1      48.733  50.022  38.530  1.00  0.00    -0.247 N 
ATOM     21  H3  UNL     1      48.318  49.207  38.079  1.00  0.00     0.196 HD
BRANCH  19  22
HETATM   22  O1  UNL     1      49.110  52.273  38.604  1.00  0.00    -0.344 OA
ATOM     23  H1  UNL     1      49.922  52.200  39.090  1.00  0.00     0.219 HD
ENDBRANCH  19  22
BRANCH  20  24
HETATM   24  O2  UNL     1      49.465  49.849  39.679  1.00  0.00    -0.288 OA
ATOM     25  H2  UNL     1      49.671  48.985  40.017  1.00  0.00     0.244 HD
ENDBRANCH  20  24
ENDBRANCH  14  19
BRANCH  17  26
HETATM   26  S1  UNL     1      45.304  51.791  33.025  1.00  0.00    -0.054 SA
BRANCH  26  27
HETATM   27  C14 UNL     1      46.099  52.933  31.947  1.00  0.00     0.075 A 
HETATM   28  C15 UNL     1      45.992  52.742  30.580  1.00  0.00     0.037 A 
HETATM   29  C16 UNL     1      46.594  53.604  29.676  1.00  0.00     0.004 A 
HETATM   30  C17 UNL     1      47.329  54.697  30.127  1.00  0.00     0.017 A 
HETATM   31  C18 UNL     1      47.408  54.849  31.497  1.00  0.00     0.089 A 
HETATM   32  N5  UNL     1      46.814  53.995  32.363  1.00  0.00    -0.360 N 
ATOM     33  H5  UNL     1      46.911  54.161  33.364  1.00  0.00     0.166 HD
ENDBRANCH  26  27
ENDBRANCH  17  26
ENDBRANCH  11  12
ENDBRANCH  10  11
TORSDOF 7
ENDMDL
MODEL 4
REMARK VINA RESULT: -8.054500414      3.017      5.423
REMARK  7 active torsions:
REMARK  status: ('A' for Active; 'I' for Inactive)
REMARK    1  A    between atoms: N2_10  and  C7_11 
REMARK    2  A    between atoms: C7_11  and  C8_12 
REMARK    3  A    between atoms: C10_14  and  C11_15 
REMARK    4  A    between atoms: C11_15  and  O1_16 
REMARK    5  A    between atoms: N3_18  and  O2_20 
REMARK    6  A    between atoms: C13_25  and  S1_26 
REMARK    7  A    between atoms: S1_26  and  C14_27 
ROOT
HETATM    1  N1  UNL     1      51.694  51.148  35.998  1.00  0.00    -0.195 NA
HETATM    2  C1  UNL     1      50.617  51.582  35.811  1.00  0.00     0.084 C 
HETATM    3  C2  UNL     1      49.286  52.133  35.556  1.00  0.00     0.191 C 
HETATM    4  C3  UNL     1      48.933  52.926  36.796  1.00  0.00     0.046 C 
HETATM    5  C4  UNL     1      48.994  51.923  37.954  1.00  0.00     0.083 C 
HETATM    6  C5  UNL     1      47.885  50.947  37.693  1.00  0.00     0.259 C 
HETATM    7  F1  UNL     1      46.666  51.621  37.702  1.00  0.00    -0.205 F 
HETATM    8  F2  UNL     1      47.835  50.038  38.743  1.00  0.00    -0.205 F 
HETATM    9  C6  UNL     1      48.023  50.245  36.380  1.00  0.00     0.202 C 
HETATM   10  N2  UNL     1      48.393  51.071  35.281  1.00  0.00    -0.366 N 
ENDROOT
BRANCH  10  11
HETATM   11  C7  UNL     1      47.275  51.330  34.456  1.00  0.00     0.101 C 
BRANCH  11  12
HETATM   12  C8  UNL     1      47.462  51.871  33.132  1.00  0.00     0.014 A 
HETATM   13  C9  UNL     1      47.316  53.187  32.797  1.00  0.00     0.032 A 
HETATM   14  C10 UNL     1      47.539  53.645  31.490  1.00  0.00     0.033 A 
HETATM   15  C12 UNL     1      47.912  52.745  30.521  1.00  0.00     0.104 A 
HETATM   16  N4  UNL     1      48.048  51.475  30.866  1.00  0.00    -0.359 N 
HETATM   17  C13 UNL     1      47.845  51.003  32.103  1.00  0.00     0.087 A 
ATOM     18  H4  UNL     1      48.326  50.812  30.142  1.00  0.00     0.166 HD
BRANCH  14  19
HETATM   19  C11 UNL     1      47.375  55.054  31.158  1.00  0.00     0.171 C 
HETATM   20  N3  UNL     1      47.168  55.908  32.083  1.00  0.00    -0.247 N 
ATOM     21  H3  UNL     1      47.119  55.587  33.051  1.00  0.00     0.196 HD
BRANCH  19  22
HETATM   22  O1  UNL     1      47.444  55.470  29.860  1.00  0.00    -0.344 OA
ATOM     23  H1  UNL     1      47.326  56.387  29.642  1.00  0.00     0.219 HD
ENDBRANCH  19  22
BRANCH  20  24
HETATM   24  O2  UNL     1      47.010  57.245  31.815  1.00  0.00    -0.288 OA
ATOM     25  H2  UNL     1      47.351  57.917  32.393  1.00  0.00     0.244 HD
ENDBRANCH  20  24
ENDBRANCH  14  19
BRANCH  17  26
HETATM   26  S1  UNL     1      48.061  49.251  32.453  1.00  0.00    -0.054 SA
BRANCH  26  27
HETATM   27  C14 UNL     1      49.778  48.863  32.458  1.00  0.00     0.075 A 
HETATM   28  C15 UNL     1      50.190  47.667  31.895  1.00  0.00     0.037 A 
HETATM   29  C16 UNL     1      51.527  47.299  31.865  1.00  0.00     0.004 A 
HETATM   30  C17 UNL     1      52.499  48.136  32.407  1.00  0.00     0.017 A 
HETATM   31  C18 UNL     1      52.043  49.317  32.957  1.00  0.00     0.089 A 
HETATM   32  N5  UNL     1      50.732  49.656  32.977  1.00  0.00    -0.360 N 
ATOM     33  H5  UNL     1      50.459  50.543  33.399  1.00  0.00     0.166 HD
ENDBRANCH  26  27
ENDBRANCH  17  26
ENDBRANCH  11  12
ENDBRANCH  10  11
TORSDOF 7
ENDMDL
MODEL 5
REMARK VINA RESULT: -7.954141682      3.086      5.297
REMARK  7 active torsions:
REMARK  status: ('A' for Active; 'I' for Inactive)
REMARK    1  A    between atoms: N2_10  and  C7_11 
REMARK    2  A    between atoms: C7_11  and  C8_12 
REMARK    3  A    between atoms: C10_14  and  C11_15 
REMARK    4  A    between atoms: C11_15  and  O1_16 
REMARK    5  A    between atoms: N3_18  and  O2_20 
REMARK    6  A    between atoms: C13_25  and  S1_26 
REMARK    7  A    between atoms: S1_26  and  C14_27 
ROOT
HETATM    1  N1  UNL     1      47.733  49.332  30.581  1.00  0.00    -0.195 NA
HETATM    2  C1  UNL     1      47.568  49.929  31.581  1.00  0.00     0.084 C 
HETATM    3  C2  UNL     1      47.380  50.654  32.838  1.00  0.00     0.191 C 
HETATM    4  C3  UNL     1      45.898  50.578  33.130  1.00  0.00     0.046 C 
HETATM    5  C4  UNL     1      45.208  51.217  31.919  1.00  0.00     0.083 C 
HETATM    6  C5  UNL     1      45.616  52.661  31.945  1.00  0.00     0.259 C 
HETATM    7  F1  UNL     1      45.161  53.247  33.124  1.00  0.00    -0.205 F 
HETATM    8  F2  UNL     1      44.974  53.325  30.907  1.00  0.00    -0.205 F 
HETATM    9  C6  UNL     1      47.098  52.850  31.869  1.00  0.00     0.202 C 
HETATM   10  N2  UNL     1      47.868  51.974  32.684  1.00  0.00    -0.366 N 
ENDROOT
BRANCH  10  11
HETATM   11  C7  UNL     1      48.345  52.651  33.830  1.00  0.00     0.101 C 
BRANCH  11  12
HETATM   12  C8  UNL     1      49.604  52.273  34.423  1.00  0.00     0.014 A 
HETATM   13  C9  UNL     1      50.815  52.340  33.798  1.00  0.00     0.032 A 
HETATM   14  C10 UNL     1      52.003  51.976  34.448  1.00  0.00     0.033 A 
HETATM   15  C12 UNL     1      51.946  51.538  35.749  1.00  0.00     0.104 A 
HETATM   16  N4  UNL     1      50.762  51.480  36.338  1.00  0.00    -0.359 N 
HETATM   17  C13 UNL     1      49.609  51.820  35.748  1.00  0.00     0.087 A 
ATOM     18  H4  UNL     1      50.726  51.154  37.303  1.00  0.00     0.166 HD
BRANCH  14  19
HETATM   19  C11 UNL     1      53.284  52.056  33.758  1.00  0.00     0.171 C 
HETATM   20  N3  UNL     1      54.039  51.030  33.694  1.00  0.00    -0.247 N 
ATOM     21  H3  UNL     1      53.732  50.161  34.131  1.00  0.00     0.196 HD
BRANCH  19  22
HETATM   22  O1  UNL     1      53.683  53.225  33.177  1.00  0.00    -0.344 OA
ATOM     23  H1  UNL     1      53.216  53.573  32.427  1.00  0.00     0.219 HD
ENDBRANCH  19  22
BRANCH  20  24
HETATM   24  O2  UNL     1      55.253  51.062  33.053  1.00  0.00    -0.288 OA
ATOM     25  H2  UNL     1      55.627  51.872  32.726  1.00  0.00     0.244 HD
ENDBRANCH  20  24
ENDBRANCH  14  19
BRANCH  17  26
HETATM   26  S1  UNL     1      48.056  51.699  36.651  1.00  0.00    -0.054 SA
BRANCH  26  27
HETATM   27  C14 UNL     1      48.375  51.137  38.289  1.00  0.00     0.075 A 
HETATM   28  C15 UNL     1      48.035  49.837  38.623  1.00  0.00     0.037 A 
HETATM   29  C16 UNL     1      48.258  49.330  39.894  1.00  0.00     0.004 A 
HETATM   30  C17 UNL     1      48.837  50.128  40.878  1.00  0.00     0.017 A 
HETATM   31  C18 UNL     1      49.160  51.416  40.500  1.00  0.00     0.089 A 
HETATM   32  N5  UNL     1      48.933  51.891  39.253  1.00  0.00    -0.360 N 
ATOM     33  H5  UNL     1      49.193  52.853  39.037  1.00  0.00     0.166 HD
ENDBRANCH  26  27
ENDBRANCH  17  26
ENDBRANCH  11  12
ENDBRANCH  10  11
TORSDOF 7
ENDMDL
