MODEL 1
REMARK VINA RESULT: -6.093635868      0.000      0.000
REMARK  6 active torsions:
REMARK  status: ('A' for Active; 'I' for Inactive)
REMARK    1  A    between atoms: N1_1  and  C1_5 
REMARK    2  A    between atoms: N2_8  and  C4_9 
REMARK    3  A    between atoms: C4_9  and  O1_10 
REMARK    4  A    between atoms: C4_9  and  C5_12 
REMARK    5  A    between atoms: C5_12  and  C6_13 
REMARK    6  A    between atoms: C6_13  and  O2_14 
ROOT
HETATM    1  C4  UNL     1      58.920  50.509  35.776  1.00  0.00     0.218 C 
ENDROOT
BRANCH   1   2
HETATM    2  N2  UNL     1      59.226  51.427  36.834  1.00  0.00    -0.387 N 
HETATM    3  C3  UNL     1      59.884  50.891  37.968  1.00  0.00     0.121 C 
HETATM    4  C2  UNL     1      58.877  50.767  39.104  1.00  0.00     0.052 C 
HETATM    5  C1  UNL     1      58.414  52.160  39.471  1.00  0.00     0.186 C 
HETATM    6  C13 UNL     1      58.665  53.161  38.357  1.00  0.00     0.052 C 
HETATM    7  C12 UNL     1      58.301  52.478  37.052  1.00  0.00     0.121 C 
BRANCH   5   8
HETATM    8  N1  UNL     1      58.979  52.611  40.727  1.00  0.00    -0.075 N 
ATOM      9  H13 UNL     1      58.705  51.999  41.496  1.00  0.00     0.274 HD
ATOM     10  H12 UNL     1      59.988  52.462  40.753  1.00  0.00     0.274 HD
ATOM     11  H11 UNL     1      58.745  53.584  40.928  1.00  0.00     0.274 HD
ENDBRANCH   5   8
ENDBRANCH   1   2
BRANCH   1  12
HETATM   12  O1  UNL     1      59.627  49.351  36.026  1.00  0.00    -0.377 OA
ATOM     13  H1  UNL     1      60.116  49.147  35.238  1.00  0.00     0.212 HD
ENDBRANCH   1  12
BRANCH   1  14
HETATM   14  C5  UNL     1      57.435  50.310  35.750  1.00  0.00     0.091 C 
BRANCH  14  15
HETATM   15  C6  UNL     1      56.949  49.350  34.715  1.00  0.00     0.062 C 
HETATM   16  C7  UNL     1      55.431  49.224  34.954  1.00  0.00     0.038 C 
HETATM   17  C8  UNL     1      54.685  49.077  33.647  1.00  0.00     0.003 C 
HETATM   18  C9  UNL     1      55.402  48.061  32.765  1.00  0.00     0.000 C 
HETATM   19  C10 UNL     1      56.749  48.612  32.411  1.00  0.00     0.003 C 
HETATM   20  C11 UNL     1      57.109  49.791  33.307  1.00  0.00     0.038 C 
BRANCH  15  21
HETATM   21  O2  UNL     1      57.442  48.055  34.912  1.00  0.00    -0.390 OA
ATOM     22  H2  UNL     1      57.798  47.677  34.117  1.00  0.00     0.210 HD
ENDBRANCH  15  21
ENDBRANCH  14  15
ENDBRANCH   1  14
TORSDOF 6
ENDMDL
MODEL 2
REMARK VINA RESULT: -6.064478371      1.283      1.633
REMARK  6 active torsions:
REMARK  status: ('A' for Active; 'I' for Inactive)
REMARK    1  A    between atoms: N1_1  and  C1_5 
REMARK    2  A    between atoms: N2_8  and  C4_9 
REMARK    3  A    between atoms: C4_9  and  O1_10 
REMARK    4  A    between atoms: C4_9  and  C5_12 
REMARK    5  A    between atoms: C5_12  and  C6_13 
REMARK    6  A    between atoms: C6_13  and  O2_14 
ROOT
HETATM    1  C4  UNL     1      57.870  51.251  36.218  1.00  0.00     0.218 C 
ENDROOT
BRANCH   1   2
HETATM    2  N2  UNL     1      57.811  51.386  37.644  1.00  0.00    -0.387 N 
HETATM    3  C3  UNL     1      58.837  52.150  38.252  1.00  0.00     0.121 C 
HETATM    4  C2  UNL     1      59.816  51.201  38.929  1.00  0.00     0.052 C 
HETATM    5  C1  UNL     1      59.078  50.481  40.036  1.00  0.00     0.186 C 
HETATM    6  C13 UNL     1      57.573  50.517  39.841  1.00  0.00     0.052 C 
HETATM    7  C12 UNL     1      57.306  50.277  38.367  1.00  0.00     0.121 C 
BRANCH   5   8
HETATM    8  N1  UNL     1      59.456  50.963  41.350  1.00  0.00    -0.075 N 
ATOM      9  H13 UNL     1      60.327  50.536  41.663  1.00  0.00     0.274 HD
ATOM     10  H12 UNL     1      59.756  51.937  41.313  1.00  0.00     0.274 HD
ATOM     11  H11 UNL     1      58.713  50.831  42.037  1.00  0.00     0.274 HD
ENDBRANCH   5   8
ENDBRANCH   1   2
BRANCH   1  12
HETATM   12  O1  UNL     1      58.812  52.152  35.764  1.00  0.00    -0.377 OA
ATOM     13  H1  UNL     1      58.837  52.077  34.817  1.00  0.00     0.212 HD
ENDBRANCH   1  12
BRANCH   1  14
HETATM   14  C5  UNL     1      58.204  49.825  35.900  1.00  0.00     0.091 C 
BRANCH  14  15
HETATM   15  C6  UNL     1      57.422  49.233  34.774  1.00  0.00     0.062 C 
HETATM   16  C7  UNL     1      55.946  49.552  35.088  1.00  0.00     0.038 C 
HETATM   17  C8  UNL     1      55.174  49.846  33.821  1.00  0.00     0.003 C 
HETATM   18  C9  UNL     1      55.517  48.803  32.763  1.00  0.00     0.000 C 
HETATM   19  C10 UNL     1      56.964  48.954  32.407  1.00  0.00     0.003 C 
HETATM   20  C11 UNL     1      57.693  49.811  33.434  1.00  0.00     0.038 C 
BRANCH  15  21
HETATM   21  O2  UNL     1      57.481  47.835  34.758  1.00  0.00    -0.390 OA
ATOM     22  H2  UNL     1      56.754  47.446  34.285  1.00  0.00     0.210 HD
ENDBRANCH  15  21
ENDBRANCH  14  15
ENDBRANCH   1  14
TORSDOF 6
ENDMDL
MODEL 3
REMARK VINA RESULT: -6.016218167      1.523      1.681
REMARK  6 active torsions:
REMARK  status: ('A' for Active; 'I' for Inactive)
REMARK    1  A    between atoms: N1_1  and  C1_5 
REMARK    2  A    between atoms: N2_8  and  C4_9 
REMARK    3  A    between atoms: C4_9  and  O1_10 
REMARK    4  A    between atoms: C4_9  and  C5_12 
REMARK    5  A    between atoms: C5_12  and  C6_13 
REMARK    6  A    between atoms: C6_13  and  O2_14 
ROOT
HETATM    1  C4  UNL     1      57.251  50.975  37.130  1.00  0.00     0.218 C 
ENDROOT
BRANCH   1   2
HETATM    2  N2  UNL     1      58.349  51.138  38.037  1.00  0.00    -0.387 N 
HETATM    3  C3  UNL     1      58.677  50.020  38.843  1.00  0.00     0.121 C 
HETATM    4  C2  UNL     1      58.180  50.275  40.259  1.00  0.00     0.052 C 
HETATM    5  C1  UNL     1      58.936  51.464  40.812  1.00  0.00     0.186 C 
HETATM    6  C13 UNL     1      59.548  52.315  39.715  1.00  0.00     0.052 C 
HETATM    7  C12 UNL     1      58.520  52.425  38.605  1.00  0.00     0.121 C 
BRANCH   5   8
HETATM    8  N1  UNL     1      59.925  51.073  41.796  1.00  0.00    -0.075 N 
ATOM      9  H13 UNL     1      59.508  50.504  42.533  1.00  0.00     0.274 HD
ATOM     10  H12 UNL     1      60.577  50.388  41.413  1.00  0.00     0.274 HD
ATOM     11  H11 UNL     1      60.420  51.876  42.186  1.00  0.00     0.274 HD
ENDBRANCH   5   8
ENDBRANCH   1   2
BRANCH   1  12
HETATM   12  O1  UNL     1      56.383  52.024  37.352  1.00  0.00    -0.377 OA
ATOM     13  H1  UNL     1      55.649  51.909  36.759  1.00  0.00     0.212 HD
ENDBRANCH   1  12
BRANCH   1  14
HETATM   14  C5  UNL     1      57.802  50.938  35.737  1.00  0.00     0.091 C 
BRANCH  14  15
HETATM   15  C6  UNL     1      57.385  49.755  34.928  1.00  0.00     0.062 C 
HETATM   16  C7  UNL     1      55.864  49.627  35.142  1.00  0.00     0.038 C 
HETATM   17  C8  UNL     1      55.174  49.165  33.878  1.00  0.00     0.003 C 
HETATM   18  C9  UNL     1      55.955  48.007  33.267  1.00  0.00     0.000 C 
HETATM   19  C10 UNL     1      57.297  48.517  32.841  1.00  0.00     0.003 C 
HETATM   20  C11 UNL     1      57.586  49.878  33.462  1.00  0.00     0.038 C 
BRANCH  15  21
HETATM   21  O2  UNL     1      57.909  48.555  35.424  1.00  0.00    -0.390 OA
ATOM     22  H2  UNL     1      58.530  48.155  34.827  1.00  0.00     0.210 HD
ENDBRANCH  15  21
ENDBRANCH  14  15
ENDBRANCH   1  14
TORSDOF 6
ENDMDL
MODEL 4
REMARK VINA RESULT: -5.941795408      2.134      2.511
REMARK  6 active torsions:
REMARK  status: ('A' for Active; 'I' for Inactive)
REMARK    1  A    between atoms: N1_1  and  C1_5 
REMARK    2  A    between atoms: N2_8  and  C4_9 
REMARK    3  A    between atoms: C4_9  and  O1_10 
REMARK    4  A    between atoms: C4_9  and  C5_12 
REMARK    5  A    between atoms: C5_12  and  C6_13 
REMARK    6  A    between atoms: C6_13  and  O2_14 
ROOT
HETATM    1  C4  UNL     1      55.082  50.964  37.348  1.00  0.00     0.218 C 
ENDROOT
BRANCH   1   2
HETATM    2  N2  UNL     1      56.506  51.013  37.517  1.00  0.00    -0.387 N 
HETATM    3  C3  UNL     1      57.064  50.105  38.450  1.00  0.00     0.121 C 
HETATM    4  C2  UNL     1      57.437  50.871  39.713  1.00  0.00     0.052 C 
HETATM    5  C1  UNL     1      58.518  51.867  39.353  1.00  0.00     0.186 C 
HETATM    6  C13 UNL     1      58.555  52.160  37.864  1.00  0.00     0.052 C 
HETATM    7  C12 UNL     1      57.117  52.285  37.395  1.00  0.00     0.121 C 
BRANCH   5   8
HETATM    8  N1  UNL     1      59.819  51.464  39.848  1.00  0.00    -0.075 N 
ATOM      9  H13 UNL     1      59.810  51.355  40.862  1.00  0.00     0.274 HD
ATOM     10  H12 UNL     1      60.034  50.503  39.584  1.00  0.00     0.274 HD
ATOM     11  H11 UNL     1      60.558  52.103  39.552  1.00  0.00     0.274 HD
ENDBRANCH   5   8
ENDBRANCH   1   2
BRANCH   1  12
HETATM   12  O1  UNL     1      54.564  52.094  37.948  1.00  0.00    -0.377 OA
ATOM     13  H1  UNL     1      54.061  52.555  37.287  1.00  0.00     0.212 HD
ENDBRANCH   1  12
BRANCH   1  14
HETATM   14  C5  UNL     1      54.792  50.879  35.880  1.00  0.00     0.091 C 
BRANCH  14  15
HETATM   15  C6  UNL     1      55.266  49.628  35.218  1.00  0.00     0.062 C 
HETATM   16  C7  UNL     1      54.404  49.484  33.949  1.00  0.00     0.038 C 
HETATM   17  C8  UNL     1      55.211  48.911  32.806  1.00  0.00     0.003 C 
HETATM   18  C9  UNL     1      56.029  47.725  33.306  1.00  0.00     0.000 C 
HETATM   19  C10 UNL     1      57.027  48.230  34.303  1.00  0.00     0.003 C 
HETATM   20  C11 UNL     1      56.677  49.641  34.759  1.00  0.00     0.038 C 
BRANCH  15  21
HETATM   21  O2  UNL     1      54.975  48.482  35.968  1.00  0.00    -0.390 OA
ATOM     22  H2  UNL     1      54.687  48.688  36.850  1.00  0.00     0.210 HD
ENDBRANCH  15  21
ENDBRANCH  14  15
ENDBRANCH   1  14
TORSDOF 6
ENDMDL
MODEL 5
REMARK VINA RESULT: -5.931504078      2.817      5.025
REMARK  6 active torsions:
REMARK  status: ('A' for Active; 'I' for Inactive)
REMARK    1  A    between atoms: N1_1  and  C1_5 
REMARK    2  A    between atoms: N2_8  and  C4_9 
REMARK    3  A    between atoms: C4_9  and  O1_10 
REMARK    4  A    between atoms: C4_9  and  C5_12 
REMARK    5  A    between atoms: C5_12  and  C6_13 
REMARK    6  A    between atoms: C6_13  and  O2_14 
ROOT
HETATM    1  C4  UNL     1      57.816  49.221  34.978  1.00  0.00     0.218 C 
ENDROOT
BRANCH   1   2
HETATM    2  N2  UNL     1      56.565  49.881  35.209  1.00  0.00    -0.387 N 
HETATM    3  C3  UNL     1      56.460  50.641  36.400  1.00  0.00     0.121 C 
HETATM    4  C2  UNL     1      55.613  49.866  37.401  1.00  0.00     0.052 C 
HETATM    5  C1  UNL     1      54.218  49.735  36.828  1.00  0.00     0.186 C 
HETATM    6  C13 UNL     1      54.194  49.937  35.324  1.00  0.00     0.052 C 
HETATM    7  C12 UNL     1      55.400  49.214  34.755  1.00  0.00     0.121 C 
BRANCH   5   8
HETATM    8  N1  UNL     1      53.268  50.602  37.496  1.00  0.00    -0.075 N 
ATOM      9  H13 UNL     1      53.305  51.549  37.120  1.00  0.00     0.274 HD
ATOM     10  H12 UNL     1      52.309  50.365  37.243  1.00  0.00     0.274 HD
ATOM     11  H11 UNL     1      53.393  50.602  38.509  1.00  0.00     0.274 HD
ENDBRANCH   5   8
ENDBRANCH   1   2
BRANCH   1  12
HETATM   12  O1  UNL     1      57.527  47.955  34.510  1.00  0.00    -0.377 OA
ATOM     13  H1  UNL     1      58.203  47.374  34.839  1.00  0.00     0.212 HD
ENDBRANCH   1  12
BRANCH   1  14
HETATM   14  C5  UNL     1      58.606  50.050  34.011  1.00  0.00     0.091 C 
BRANCH  14  15
HETATM   15  C6  UNL     1      60.019  50.313  34.418  1.00  0.00     0.062 C 
HETATM   16  C7  UNL     1      59.935  51.391  35.517  1.00  0.00     0.038 C 
HETATM   17  C8  UNL     1      60.985  51.164  36.581  1.00  0.00     0.003 C 
HETATM   18  C9  UNL     1      62.323  50.859  35.918  1.00  0.00     0.000 C 
HETATM   19  C10 UNL     1      62.197  49.561  35.180  1.00  0.00     0.003 C 
HETATM   20  C11 UNL     1      60.735  49.162  35.023  1.00  0.00     0.038 C 
BRANCH  15  21
HETATM   21  O2  UNL     1      60.767  50.912  33.399  1.00  0.00    -0.390 OA
ATOM     22  H2  UNL     1      61.066  50.286  32.751  1.00  0.00     0.210 HD
ENDBRANCH  15  21
ENDBRANCH  14  15
ENDBRANCH   1  14
TORSDOF 6
ENDMDL
