MODEL 1
REMARK VINA RESULT: -6.951034174      0.000      0.000
REMARK  2 active torsions:
REMARK  status: ('A' for Active; 'I' for Inactive)
REMARK    1  A    between atoms: C5_9  and  C6_10 
REMARK    2  A    between atoms: C7_15  and  C8_16 
ROOT
HETATM    1  C6  UNL     1      57.164  50.364  36.373  1.00  0.00     0.135 A 
HETATM    2  N3  UNL     1      58.105  51.229  35.954  1.00  0.00    -0.283 N 
ATOM      3  H3  UNL     1      58.153  51.643  35.023  1.00  0.00     0.188 HD
HETATM    4  N4  UNL     1      58.963  51.461  36.942  1.00  0.00    -0.287 N 
ATOM      5  H4  UNL     1      59.772  52.080  36.889  1.00  0.00     0.188 HD
HETATM    6  C7  UNL     1      58.600  50.760  38.007  1.00  0.00     0.103 A 
HETATM    7  N6  UNL     1      57.494  50.085  37.660  1.00  0.00    -0.329 N 
ATOM      8  H6  UNL     1      56.977  49.454  38.272  1.00  0.00     0.168 HD
ENDROOT
BRANCH   1   9
HETATM    9  C5  UNL     1      56.042  49.854  35.590  1.00  0.00     0.057 A 
HETATM   10  C2  UNL     1      56.081  49.037  34.490  1.00  0.00     0.038 A 
HETATM   11  C1  UNL     1      57.330  48.501  33.876  1.00  0.00     0.070 C 
HETATM   12  N1  UNL     1      54.816  48.825  34.096  1.00  0.00    -0.304 N 
HETATM   13  N2  UNL     1      53.963  49.461  34.879  1.00  0.00    -0.304 N 
ATOM     14  H1  UNL     1      54.549  48.249  33.298  1.00  0.00     0.186 HD
HETATM   15  C3  UNL     1      54.685  50.105  35.810  1.00  0.00     0.038 A 
ATOM     16  H2  UNL     1      52.946  49.462  34.792  1.00  0.00     0.186 HD
HETATM   17  C4  UNL     1      54.224  50.967  36.930  1.00  0.00     0.070 C 
ENDBRANCH   1   9
BRANCH   6  18
HETATM   18  C8  UNL     1      59.309  50.753  39.312  1.00  0.00     0.082 C 
HETATM   19  C9  UNL     1      58.988  51.968  40.140  1.00  0.00     0.041 C 
HETATM   20  C10 UNL     1      59.333  51.475  41.531  1.00  0.00     0.233 C 
HETATM   21  N5  UNL     1      59.071  50.064  41.562  1.00  0.00    -0.074 N 
HETATM   22  C11 UNL     1      58.815  49.630  40.211  1.00  0.00     0.244 C 
ATOM     23  H52 UNL     1      59.818  49.534  42.012  1.00  0.00     0.277 HD
ATOM     24  H51 UNL     1      58.321  49.816  42.206  1.00  0.00     0.277 HD
ENDBRANCH   6  18
TORSDOF 2
ENDMDL
MODEL 2
REMARK VINA RESULT: -6.877987864      2.590      4.050
REMARK  2 active torsions:
REMARK  status: ('A' for Active; 'I' for Inactive)
REMARK    1  A    between atoms: C5_9  and  C6_10 
REMARK    2  A    between atoms: C7_15  and  C8_16 
ROOT
HETATM    1  C6  UNL     1      57.109  50.180  36.354  1.00  0.00     0.135 A 
HETATM    2  N3  UNL     1      57.788  49.818  37.458  1.00  0.00    -0.283 N 
ATOM      3  H3  UNL     1      57.367  49.493  38.328  1.00  0.00     0.188 HD
HETATM    4  N4  UNL     1      59.091  49.951  37.239  1.00  0.00    -0.287 N 
ATOM      5  H4  UNL     1      59.828  49.743  37.913  1.00  0.00     0.188 HD
HETATM    6  C7  UNL     1      59.281  50.395  36.004  1.00  0.00     0.103 A 
HETATM    7  N6  UNL     1      58.064  50.538  35.458  1.00  0.00    -0.329 N 
ATOM      8  H6  UNL     1      57.883  50.866  34.510  1.00  0.00     0.168 HD
ENDROOT
BRANCH   1   9
HETATM    9  C5  UNL     1      55.658  50.179  36.186  1.00  0.00     0.057 A 
HETATM   10  C2  UNL     1      54.920  49.542  35.222  1.00  0.00     0.038 A 
HETATM   11  C1  UNL     1      55.494  48.702  34.131  1.00  0.00     0.070 C 
HETATM   12  N1  UNL     1      53.627  49.816  35.453  1.00  0.00    -0.304 N 
HETATM   13  N2  UNL     1      53.490  50.596  36.511  1.00  0.00    -0.304 N 
ATOM     14  H1  UNL     1      52.853  49.469  34.887  1.00  0.00     0.186 HD
HETATM   15  C3  UNL     1      54.722  50.838  36.987  1.00  0.00     0.038 A 
ATOM     16  H2  UNL     1      52.612  50.948  36.895  1.00  0.00     0.186 HD
HETATM   17  C4  UNL     1      55.136  51.654  38.158  1.00  0.00     0.070 C 
ENDBRANCH   1   9
BRANCH   6  18
HETATM   18  C8  UNL     1      60.604  50.670  35.385  1.00  0.00     0.082 C 
HETATM   19  C9  UNL     1      61.363  49.407  35.084  1.00  0.00     0.041 C 
HETATM   20  C10 UNL     1      62.324  49.889  34.016  1.00  0.00     0.233 C 
HETATM   21  N5  UNL     1      61.664  50.936  33.288  1.00  0.00    -0.074 N 
HETATM   22  C11 UNL     1      60.457  51.278  33.999  1.00  0.00     0.244 C 
ATOM     23  H52 UNL     1      62.267  51.742  33.123  1.00  0.00     0.277 HD
ATOM     24  H51 UNL     1      61.493  50.692  32.313  1.00  0.00     0.277 HD
ENDBRANCH   6  18
TORSDOF 2
ENDMDL
MODEL 3
REMARK VINA RESULT: -6.844230746      0.293      1.951
REMARK  2 active torsions:
REMARK  status: ('A' for Active; 'I' for Inactive)
REMARK    1  A    between atoms: C5_9  and  C6_10 
REMARK    2  A    between atoms: C7_15  and  C8_16 
ROOT
HETATM    1  C6  UNL     1      57.173  50.238  36.134  1.00  0.00     0.135 A 
HETATM    2  N3  UNL     1      58.232  50.887  35.616  1.00  0.00    -0.283 N 
ATOM      3  H3  UNL     1      58.343  51.144  34.635  1.00  0.00     0.188 HD
HETATM    4  N4  UNL     1      59.110  51.139  36.580  1.00  0.00    -0.287 N 
ATOM      5  H4  UNL     1      60.001  51.621  36.457  1.00  0.00     0.188 HD
HETATM    6  C7  UNL     1      58.644  50.667  37.727  1.00  0.00     0.103 A 
HETATM    7  N6  UNL     1      57.453  50.112  37.456  1.00  0.00    -0.329 N 
ATOM      8  H6  UNL     1      56.848  49.661  38.142  1.00  0.00     0.168 HD
ENDROOT
BRANCH   1   9
HETATM    9  C5  UNL     1      55.992  49.782  35.406  1.00  0.00     0.057 A 
HETATM   10  C2  UNL     1      54.676  50.064  35.668  1.00  0.00     0.038 A 
HETATM   11  C1  UNL     1      54.201  50.926  36.790  1.00  0.00     0.070 C 
HETATM   12  N1  UNL     1      53.933  49.434  34.746  1.00  0.00    -0.304 N 
HETATM   13  N2  UNL     1      54.696  48.759  33.904  1.00  0.00    -0.304 N 
ATOM     14  H1  UNL     1      52.915  49.472  34.701  1.00  0.00     0.186 HD
HETATM   15  C3  UNL     1      55.970  48.952  34.282  1.00  0.00     0.038 A 
ATOM     16  H2  UNL     1      54.377  48.197  33.114  1.00  0.00     0.186 HD
HETATM   17  C4  UNL     1      57.222  48.421  33.681  1.00  0.00     0.070 C 
ENDBRANCH   1   9
BRANCH   6  18
HETATM   18  C8  UNL     1      59.340  50.756  39.038  1.00  0.00     0.082 C 
HETATM   19  C9  UNL     1      59.003  52.023  39.775  1.00  0.00     0.041 C 
HETATM   20  C10 UNL     1      59.335  51.632  41.200  1.00  0.00     0.233 C 
HETATM   21  N5  UNL     1      59.081  50.225  41.328  1.00  0.00    -0.074 N 
HETATM   22  C11 UNL     1      58.841  49.696  40.008  1.00  0.00     0.244 C 
ATOM     23  H52 UNL     1      59.825  49.732  41.822  1.00  0.00     0.277 HD
ATOM     24  H51 UNL     1      58.324  50.018  41.979  1.00  0.00     0.277 HD
ENDBRANCH   6  18
TORSDOF 2
ENDMDL
MODEL 4
REMARK VINA RESULT: -6.826677687      2.615      4.399
REMARK  2 active torsions:
REMARK  status: ('A' for Active; 'I' for Inactive)
REMARK    1  A    between atoms: C5_9  and  C6_10 
REMARK    2  A    between atoms: C7_15  and  C8_16 
ROOT
HETATM    1  C6  UNL     1      57.182  50.132  36.281  1.00  0.00     0.135 A 
HETATM    2  N3  UNL     1      57.830  49.844  37.424  1.00  0.00    -0.283 N 
ATOM      3  H3  UNL     1      57.387  49.568  38.300  1.00  0.00     0.188 HD
HETATM    4  N4  UNL     1      59.138  49.976  37.235  1.00  0.00    -0.287 N 
ATOM      5  H4  UNL     1      59.857  49.817  37.941  1.00  0.00     0.188 HD
HETATM    6  C7  UNL     1      59.361  50.347  35.982  1.00  0.00     0.103 A 
HETATM    7  N6  UNL     1      58.160  50.444  35.393  1.00  0.00    -0.329 N 
ATOM      8  H6  UNL     1      58.004  50.712  34.422  1.00  0.00     0.168 HD
ENDROOT
BRANCH   1   9
HETATM    9  C5  UNL     1      55.737  50.106  36.072  1.00  0.00     0.057 A 
HETATM   10  C2  UNL     1      54.766  50.750  36.794  1.00  0.00     0.038 A 
HETATM   11  C1  UNL     1      55.028  51.630  37.970  1.00  0.00     0.070 C 
HETATM   12  N1  UNL     1      53.580  50.442  36.249  1.00  0.00    -0.304 N 
HETATM   13  N2  UNL     1      53.730  49.633  35.214  1.00  0.00    -0.304 N 
ATOM     14  H1  UNL     1      52.682  50.786  36.587  1.00  0.00     0.186 HD
HETATM   15  C3  UNL     1      55.047  49.406  35.078  1.00  0.00     0.038 A 
ATOM     16  H2  UNL     1      52.986  49.252  34.629  1.00  0.00     0.186 HD
HETATM   17  C4  UNL     1      55.760  48.570  34.077  1.00  0.00     0.070 C 
ENDBRANCH   1   9
BRANCH   6  18
HETATM   18  C8  UNL     1      60.700  50.596  35.386  1.00  0.00     0.082 C 
HETATM   19  C9  UNL     1      61.481  49.325  35.192  1.00  0.00     0.041 C 
HETATM   20  C10 UNL     1      62.469  49.748  34.123  1.00  0.00     0.233 C 
HETATM   21  N5  UNL     1      61.821  50.736  33.309  1.00  0.00    -0.074 N 
HETATM   22  C11 UNL     1      60.589  51.109  33.959  1.00  0.00     0.244 C 
ATOM     23  H52 UNL     1      62.420  51.537  33.108  1.00  0.00     0.277 HD
ATOM     24  H51 UNL     1      61.682  50.426  32.347  1.00  0.00     0.277 HD
ENDBRANCH   6  18
TORSDOF 2
ENDMDL
MODEL 5
REMARK VINA RESULT: -6.609054422      0.853      1.178
REMARK  2 active torsions:
REMARK  status: ('A' for Active; 'I' for Inactive)
REMARK    1  A    between atoms: C5_9  and  C6_10 
REMARK    2  A    between atoms: C7_15  and  C8_16 
ROOT
HETATM    1  C6  UNL     1      57.002  50.350  36.265  1.00  0.00     0.135 A 
HETATM    2  N3  UNL     1      58.002  51.233  36.088  1.00  0.00    -0.283 N 
ATOM      3  H3  UNL     1      58.340  51.568  35.185  1.00  0.00     0.188 HD
HETATM    4  N4  UNL     1      58.481  51.601  37.271  1.00  0.00    -0.287 N 
ATOM      5  H4  UNL     1      59.244  52.261  37.420  1.00  0.00     0.188 HD
HETATM    6  C7  UNL     1      57.810  50.972  38.226  1.00  0.00     0.103 A 
HETATM    7  N6  UNL     1      56.901  50.203  37.610  1.00  0.00    -0.329 N 
ATOM      8  H6  UNL     1      56.231  49.596  38.083  1.00  0.00     0.168 HD
ENDROOT
BRANCH   1   9
HETATM    9  C5  UNL     1      56.215  49.707  35.216  1.00  0.00     0.057 A 
HETATM   10  C2  UNL     1      56.659  48.909  34.195  1.00  0.00     0.038 A 
HETATM   11  C1  UNL     1      58.087  48.539  33.968  1.00  0.00     0.070 C 
HETATM   12  N1  UNL     1      55.591  48.540  33.471  1.00  0.00    -0.304 N 
HETATM   13  N2  UNL     1      54.481  49.058  33.968  1.00  0.00    -0.304 N 
ATOM     14  H1  UNL     1      55.631  47.940  32.648  1.00  0.00     0.186 HD
HETATM   15  C3  UNL     1      54.830  49.783  35.044  1.00  0.00     0.038 A 
ATOM     16  H2  UNL     1      53.537  48.931  33.603  1.00  0.00     0.186 HD
HETATM   17  C4  UNL     1      53.972  50.572  35.966  1.00  0.00     0.070 C 
ENDBRANCH   1   9
BRANCH   6  18
HETATM   18  C8  UNL     1      58.053  51.120  39.685  1.00  0.00     0.082 C 
HETATM   19  C9  UNL     1      58.391  49.809  40.340  1.00  0.00     0.041 C 
HETATM   20  C10 UNL     1      59.109  50.281  41.588  1.00  0.00     0.233 C 
HETATM   21  N5  UNL     1      59.772  51.511  41.260  1.00  0.00    -0.074 N 
HETATM   22  C11 UNL     1      59.307  51.935  39.963  1.00  0.00     0.244 C 
ATOM     23  H52 UNL     1      59.651  52.228  41.977  1.00  0.00     0.277 HD
ATOM     24  H51 UNL     1      60.788  51.438  41.311  1.00  0.00     0.277 HD
ENDBRANCH   6  18
TORSDOF 2
ENDMDL
