MODEL 1
REMARK VINA RESULT: -6.907408358      0.000      0.000
REMARK  4 active torsions:
REMARK  status: ('A' for Active; 'I' for Inactive)
REMARK    1  A    between atoms: C2_4  and  C3_5 
REMARK    2  A    between atoms: C4_6  and  C5_7 
REMARK    3  A    between atoms: C5_7  and  O1_8 
REMARK    4  A    between atoms: C8_13  and  O3_14 
ROOT
HETATM    1  C3  UNL     1      56.045  50.163  38.033  1.00  0.00     0.065 C 
HETATM    2  C4  UNL     1      54.678  50.738  37.858  1.00  0.00     0.155 C 
HETATM    3  O2  UNL     1      54.386  50.783  36.516  1.00  0.00    -0.377 OA
HETATM    4  C6  UNL     1      55.504  50.414  35.801  1.00  0.00     0.133 C 
HETATM    5  C7  UNL     1      55.463  48.954  35.399  1.00  0.00     0.064 C 
HETATM    6  C8  UNL     1      56.127  48.715  34.058  1.00  0.00     0.120 C 
HETATM    7  C9  UNL     1      57.628  48.734  34.198  1.00  0.00     0.032 C 
HETATM    8  C10 UNL     1      58.131  49.982  34.867  1.00  0.00     0.003 C 
HETATM    9  C11 UNL     1      57.886  49.841  36.355  1.00  0.00     0.012 C 
HETATM   10  C12 UNL     1      56.685  50.620  36.717  1.00  0.00    -0.007 C 
HETATM   11  C13 UNL     1      57.007  52.079  36.799  1.00  0.00     0.018 C 
ENDROOT
BRANCH   1  12
HETATM   12  C2  UNL     1      56.772  50.616  39.202  1.00  0.00     0.063 C 
HETATM   13  N1  UNL     1      57.803  49.993  39.614  1.00  0.00    -0.406 N 
HETATM   14  C1  UNL     1      58.580  50.363  40.750  1.00  0.00     0.145 C 
ATOM     15  H1  UNL     1      58.096  49.167  39.092  1.00  0.00     0.158 HD
ENDBRANCH   1  12
BRANCH   2  16
HETATM   16  C5  UNL     1      53.621  49.951  38.621  1.00  0.00     0.196 C 
BRANCH  16  17
HETATM   17  O1  UNL     1      52.833  49.226  37.747  1.00  0.00    -0.398 OA
ATOM     18  H1  UNL     1      52.177  48.731  38.224  1.00  0.00     0.209 HD
ENDBRANCH  16  17
ENDBRANCH   2  16
BRANCH   6  19
HETATM   19  O3  UNL     1      55.795  47.387  33.698  1.00  0.00    -0.395 OA
ATOM     20  H3  UNL     1      56.621  46.963  33.494  1.00  0.00     0.210 HD
ENDBRANCH   6  19
TORSDOF 4
ENDMDL
MODEL 2
REMARK VINA RESULT: -5.980018347      1.520      1.833
REMARK  4 active torsions:
REMARK  status: ('A' for Active; 'I' for Inactive)
REMARK    1  A    between atoms: C2_4  and  C3_5 
REMARK    2  A    between atoms: C4_6  and  C5_7 
REMARK    3  A    between atoms: C5_7  and  O1_8 
REMARK    4  A    between atoms: C8_13  and  O3_14 
ROOT
HETATM    1  C3  UNL     1      57.244  50.298  38.352  1.00  0.00     0.065 C 
HETATM    2  C4  UNL     1      55.943  50.845  37.865  1.00  0.00     0.155 C 
HETATM    3  O2  UNL     1      56.035  51.066  36.512  1.00  0.00    -0.377 OA
HETATM    4  C6  UNL     1      57.332  50.838  36.108  1.00  0.00     0.133 C 
HETATM    5  C7  UNL     1      57.512  49.448  35.534  1.00  0.00     0.064 C 
HETATM    6  C8  UNL     1      58.540  49.421  34.421  1.00  0.00     0.120 C 
HETATM    7  C9  UNL     1      59.937  49.472  34.988  1.00  0.00     0.032 C 
HETATM    8  C10 UNL     1      60.141  50.631  35.922  1.00  0.00     0.003 C 
HETATM    9  C11 UNL     1      59.499  50.275  37.247  1.00  0.00     0.012 C 
HETATM   10  C12 UNL     1      58.192  50.955  37.342  1.00  0.00    -0.007 C 
HETATM   11  C13 UNL     1      58.372  52.399  37.694  1.00  0.00     0.018 C 
ENDROOT
BRANCH   1  12
HETATM   12  C2  UNL     1      57.580  50.609  39.727  1.00  0.00     0.063 C 
HETATM   13  N1  UNL     1      58.323  49.834  40.412  1.00  0.00    -0.406 N 
HETATM   14  C1  UNL     1      58.707  50.056  41.766  1.00  0.00     0.145 C 
ATOM     15  H1  UNL     1      58.671  48.991  39.957  1.00  0.00     0.158 HD
ENDBRANCH   1  12
BRANCH   2  16
HETATM   16  C5  UNL     1      54.775  49.924  38.189  1.00  0.00     0.196 C 
BRANCH  16  17
HETATM   17  O1  UNL     1      54.572  49.019  37.163  1.00  0.00    -0.398 OA
ATOM     18  H1  UNL     1      55.387  48.846  36.707  1.00  0.00     0.209 HD
ENDBRANCH  16  17
ENDBRANCH   2  16
BRANCH   6  19
HETATM   19  O3  UNL     1      58.420  48.145  33.821  1.00  0.00    -0.395 OA
ATOM     20  H3  UNL     1      57.590  48.157  33.358  1.00  0.00     0.210 HD
ENDBRANCH   6  19
TORSDOF 4
ENDMDL
MODEL 3
REMARK VINA RESULT: -5.926929319      2.358      4.248
REMARK  4 active torsions:
REMARK  status: ('A' for Active; 'I' for Inactive)
REMARK    1  A    between atoms: C2_4  and  C3_5 
REMARK    2  A    between atoms: C4_6  and  C5_7 
REMARK    3  A    between atoms: C5_7  and  O1_8 
REMARK    4  A    between atoms: C8_13  and  O3_14 
ROOT
HETATM    1  C3  UNL     1      58.117  51.744  36.629  1.00  0.00     0.065 C 
HETATM    2  C4  UNL     1      58.958  50.704  35.967  1.00  0.00     0.155 C 
HETATM    3  O2  UNL     1      58.233  49.539  35.880  1.00  0.00    -0.377 OA
HETATM    4  C6  UNL     1      57.043  49.701  36.554  1.00  0.00     0.133 C 
HETATM    5  C7  UNL     1      55.906  50.061  35.620  1.00  0.00     0.064 C 
HETATM    6  C8  UNL     1      54.585  49.479  36.082  1.00  0.00     0.120 C 
HETATM    7  C9  UNL     1      54.024  50.280  37.230  1.00  0.00     0.032 C 
HETATM    8  C10 UNL     1      55.003  50.436  38.360  1.00  0.00     0.003 C 
HETATM    9  C11 UNL     1      56.002  51.502  37.963  1.00  0.00     0.012 C 
HETATM   10  C12 UNL     1      57.247  50.845  37.516  1.00  0.00    -0.007 C 
HETATM   11  C13 UNL     1      58.049  50.378  38.689  1.00  0.00     0.018 C 
ENDROOT
BRANCH   1  12
HETATM   12  C2  UNL     1      58.839  52.751  37.381  1.00  0.00     0.063 C 
HETATM   13  N1  UNL     1      58.563  53.987  37.256  1.00  0.00    -0.406 N 
HETATM   14  C1  UNL     1      59.217  55.045  37.951  1.00  0.00     0.145 C 
ATOM     15  H1  UNL     1      57.817  54.241  36.608  1.00  0.00     0.158 HD
ENDBRANCH   1  12
BRANCH   2  16
HETATM   16  C5  UNL     1      59.447  51.146  34.595  1.00  0.00     0.196 C 
BRANCH  16  17
HETATM   17  O1  UNL     1      58.957  50.306  33.612  1.00  0.00    -0.398 OA
ATOM     18  H1  UNL     1      58.941  50.751  32.772  1.00  0.00     0.209 HD
ENDBRANCH  16  17
ENDBRANCH   2  16
BRANCH   6  19
HETATM   19  O3  UNL     1      53.685  49.674  35.007  1.00  0.00    -0.395 OA
ATOM     20  H3  UNL     1      53.077  50.342  35.300  1.00  0.00     0.210 HD
ENDBRANCH   6  19
TORSDOF 4
ENDMDL
MODEL 4
REMARK VINA RESULT: -5.856133876      2.384      4.663
REMARK  4 active torsions:
REMARK  status: ('A' for Active; 'I' for Inactive)
REMARK    1  A    between atoms: C2_4  and  C3_5 
REMARK    2  A    between atoms: C4_6  and  C5_7 
REMARK    3  A    between atoms: C5_7  and  O1_8 
REMARK    4  A    between atoms: C8_13  and  O3_14 
ROOT
HETATM    1  C3  UNL     1      58.535  51.342  35.552  1.00  0.00     0.065 C 
HETATM    2  C4  UNL     1      58.642  50.005  34.898  1.00  0.00     0.155 C 
HETATM    3  O2  UNL     1      57.676  49.178  35.421  1.00  0.00    -0.377 OA
HETATM    4  C6  UNL     1      57.043  49.829  36.457  1.00  0.00     0.133 C 
HETATM    5  C7  UNL     1      55.747  50.475  36.014  1.00  0.00     0.064 C 
HETATM    6  C8  UNL     1      54.701  50.462  37.110  1.00  0.00     0.120 C 
HETATM    7  C9  UNL     1      54.994  51.527  38.137  1.00  0.00     0.032 C 
HETATM    8  C10 UNL     1      56.391  51.436  38.683  1.00  0.00     0.003 C 
HETATM    9  C11 UNL     1      57.330  52.021  37.649  1.00  0.00     0.012 C 
HETATM   10  C12 UNL     1      57.982  50.917  36.917  1.00  0.00    -0.007 C 
HETATM   11  C13 UNL     1      59.082  50.317  37.736  1.00  0.00     0.018 C 
ENDROOT
BRANCH   1  12
HETATM   12  C2  UNL     1      59.771  52.093  35.653  1.00  0.00     0.063 C 
HETATM   13  N1  UNL     1      59.851  53.286  35.215  1.00  0.00    -0.406 N 
HETATM   14  C1  UNL     1      61.020  54.099  35.270  1.00  0.00     0.145 C 
ATOM     15  H1  UNL     1      59.016  53.690  34.792  1.00  0.00     0.158 HD
ENDBRANCH   1  12
BRANCH   2  16
HETATM   16  C5  UNL     1      58.522  50.094  33.383  1.00  0.00     0.196 C 
BRANCH  16  17
HETATM   17  O1  UNL     1      57.454  49.338  32.936  1.00  0.00    -0.398 OA
ATOM     18  H1  UNL     1      56.919  49.053  33.668  1.00  0.00     0.209 HD
ENDBRANCH  16  17
ENDBRANCH   2  16
BRANCH   6  19
HETATM   19  O3  UNL     1      53.491  50.854  36.489  1.00  0.00    -0.395 OA
ATOM     20  H3  UNL     1      53.204  51.630  36.955  1.00  0.00     0.210 HD
ENDBRANCH   6  19
TORSDOF 4
ENDMDL
MODEL 5
REMARK VINA RESULT: -5.853477750      3.110      4.561
REMARK  4 active torsions:
REMARK  status: ('A' for Active; 'I' for Inactive)
REMARK    1  A    between atoms: C2_4  and  C3_5 
REMARK    2  A    between atoms: C4_6  and  C5_7 
REMARK    3  A    between atoms: C5_7  and  O1_8 
REMARK    4  A    between atoms: C8_13  and  O3_14 
ROOT
HETATM    1  C3  UNL     1      59.733  49.718  35.741  1.00  0.00     0.065 C 
HETATM    2  C4  UNL     1      59.571  51.053  36.389  1.00  0.00     0.155 C 
HETATM    3  O2  UNL     1      58.332  51.554  36.065  1.00  0.00    -0.377 OA
HETATM    4  C6  UNL     1      57.736  50.716  35.149  1.00  0.00     0.133 C 
HETATM    5  C7  UNL     1      56.778  49.745  35.809  1.00  0.00     0.064 C 
HETATM    6  C8  UNL     1      55.592  49.425  34.921  1.00  0.00     0.120 C 
HETATM    7  C9  UNL     1      55.987  48.450  33.840  1.00  0.00     0.032 C 
HETATM    8  C10 UNL     1      57.179  48.913  33.051  1.00  0.00     0.003 C 
HETATM    9  C11 UNL     1      58.416  48.654  33.886  1.00  0.00     0.012 C 
HETATM   10  C12 UNL     1      58.847  49.922  34.507  1.00  0.00    -0.007 C 
HETATM   11  C13 UNL     1      59.566  50.780  33.513  1.00  0.00     0.018 C 
ENDROOT
BRANCH   1  12
HETATM   12  C2  UNL     1      61.092  49.344  35.405  1.00  0.00     0.063 C 
HETATM   13  N1  UNL     1      62.081  50.050  35.785  1.00  0.00    -0.406 N 
HETATM   14  C1  UNL     1      63.447  49.762  35.503  1.00  0.00     0.145 C 
ATOM     15  H1  UNL     1      61.880  50.886  36.334  1.00  0.00     0.158 HD
ENDBRANCH   1  12
BRANCH   2  16
HETATM   16  C5  UNL     1      59.754  50.986  37.899  1.00  0.00     0.196 C 
BRANCH  16  17
HETATM   17  O1  UNL     1      60.943  51.587  38.269  1.00  0.00    -0.398 OA
ATOM     18  H1  UNL     1      60.776  52.361  38.794  1.00  0.00     0.209 HD
ENDBRANCH  16  17
ENDBRANCH   2  16
BRANCH   6  19
HETATM   19  O3  UNL     1      54.676  48.728  35.744  1.00  0.00    -0.395 OA
ATOM     20  H3  UNL     1      53.919  48.557  35.197  1.00  0.00     0.210 HD
ENDBRANCH   6  19
TORSDOF 4
ENDMDL
