MODEL 1
REMARK VINA RESULT: -6.688067689      0.000      0.000
REMARK  5 active torsions:
REMARK  status: ('A' for Active; 'I' for Inactive)
REMARK    1  A    between atoms: O1_1  and  C1_3 
REMARK    2  A    between atoms: C1_3  and  C2_4 
REMARK    3  A    between atoms: C3_6  and  O3_7 
REMARK    4  A    between atoms: C4_9  and  C5_10 
REMARK    5  A    between atoms: C13_18  and  O4_19 
ROOT
HETATM    1  C2  UNL     1      54.480  50.726  37.348  1.00  0.00     0.180 C 
HETATM    2  O2  UNL     1      55.577  51.140  38.042  1.00  0.00    -0.351 OA
HETATM    3  C3  UNL     1      56.579  50.221  38.208  1.00  0.00     0.265 C 
HETATM    4  C4  UNL     1      57.684  50.300  37.225  1.00  0.00     0.067 C 
HETATM    5  C11 UNL     1      57.143  50.141  35.858  1.00  0.00    -0.018 C 
HETATM    6  C12 UNL     1      55.893  49.883  35.469  1.00  0.00     0.004 C 
HETATM    7  C13 UNL     1      54.698  49.684  36.317  1.00  0.00     0.171 C 
ENDROOT
BRANCH   4   8
HETATM    8  C5  UNL     1      58.552  51.498  37.278  1.00  0.00    -0.002 C 
HETATM    9  C6  UNL     1      57.827  52.813  37.127  1.00  0.00     0.005 C 
HETATM   10  C7  UNL     1      58.859  53.896  37.478  1.00  0.00     0.000 C 
HETATM   11  C8  UNL     1      59.849  53.926  36.362  1.00  0.00     0.000 C 
HETATM   12  C9  UNL     1      59.823  52.718  35.483  1.00  0.00     0.000 C 
HETATM   13  C10 UNL     1      59.745  51.465  36.366  1.00  0.00     0.005 C 
ENDBRANCH   4   8
BRANCH   3  14
HETATM   14  O3  UNL     1      57.084  50.168  39.513  1.00  0.00    -0.371 OA
ATOM     15  H3  UNL     1      57.528  49.354  39.718  1.00  0.00     0.212 HD
ENDBRANCH   3  14
BRANCH   1  16
HETATM   16  C1  UNL     1      53.448  50.211  38.337  1.00  0.00     0.199 C 
BRANCH  16  17
HETATM   17  O1  UNL     1      52.887  49.010  37.941  1.00  0.00    -0.398 OA
ATOM     18  H1  UNL     1      51.942  49.058  37.856  1.00  0.00     0.209 HD
ENDBRANCH  16  17
ENDBRANCH   1  16
BRANCH   7  19
HETATM   19  O4  UNL     1      53.584  49.734  35.441  1.00  0.00    -0.389 OA
ATOM     20  H4  UNL     1      52.843  50.033  35.955  1.00  0.00     0.210 HD
ENDBRANCH   7  19
TORSDOF 5
ENDMDL
MODEL 2
REMARK VINA RESULT: -6.665796355      2.020      5.047
REMARK  5 active torsions:
REMARK  status: ('A' for Active; 'I' for Inactive)
REMARK    1  A    between atoms: O1_1  and  C1_3 
REMARK    2  A    between atoms: C1_3  and  C2_4 
REMARK    3  A    between atoms: C3_6  and  O3_7 
REMARK    4  A    between atoms: C4_9  and  C5_10 
REMARK    5  A    between atoms: C13_18  and  O4_19 
ROOT
HETATM    1  C2  UNL     1      58.794  50.186  39.276  1.00  0.00     0.180 C 
HETATM    2  O2  UNL     1      57.686  49.669  38.674  1.00  0.00    -0.351 OA
HETATM    3  C3  UNL     1      56.813  50.569  38.124  1.00  0.00     0.265 C 
HETATM    4  C4  UNL     1      56.980  50.813  36.673  1.00  0.00     0.067 C 
HETATM    5  C11 UNL     1      58.354  51.292  36.407  1.00  0.00    -0.018 C 
HETATM    6  C12 UNL     1      59.333  51.571  37.269  1.00  0.00     0.004 C 
HETATM    7  C13 UNL     1      59.304  51.471  38.744  1.00  0.00     0.171 C 
ENDROOT
BRANCH   4   8
HETATM    8  C5  UNL     1      56.659  49.696  35.758  1.00  0.00    -0.002 C 
HETATM    9  C6  UNL     1      57.604  49.539  34.593  1.00  0.00     0.005 C 
HETATM   10  C7  UNL     1      57.247  48.190  33.949  1.00  0.00     0.000 C 
HETATM   11  C8  UNL     1      55.922  48.365  33.287  1.00  0.00     0.000 C 
HETATM   12  C9  UNL     1      55.161  49.568  33.740  1.00  0.00     0.000 C 
HETATM   13  C10 UNL     1      55.238  49.655  35.271  1.00  0.00     0.005 C 
ENDBRANCH   4   8
BRANCH   3  14
HETATM   14  O3  UNL     1      55.471  50.308  38.428  1.00  0.00    -0.371 OA
ATOM     15  H3  UNL     1      55.077  49.643  37.875  1.00  0.00     0.212 HD
ENDBRANCH   3  14
BRANCH   1  16
HETATM   16  C1  UNL     1      58.501  50.364  40.756  1.00  0.00     0.199 C 
BRANCH  16  17
HETATM   17  O1  UNL     1      59.593  50.069  41.553  1.00  0.00    -0.398 OA
ATOM     18  H1  UNL     1      59.349  49.619  42.353  1.00  0.00     0.209 HD
ENDBRANCH  16  17
ENDBRANCH   1  16
BRANCH   7  19
HETATM   19  O4  UNL     1      60.650  51.588  39.172  1.00  0.00    -0.389 OA
ATOM     20  H4  UNL     1      60.642  51.552  40.121  1.00  0.00     0.210 HD
ENDBRANCH   7  19
TORSDOF 5
ENDMDL
MODEL 3
REMARK VINA RESULT: -6.376868056      2.436      3.189
REMARK  5 active torsions:
REMARK  status: ('A' for Active; 'I' for Inactive)
REMARK    1  A    between atoms: O1_1  and  C1_3 
REMARK    2  A    between atoms: C1_3  and  C2_4 
REMARK    3  A    between atoms: C3_6  and  O3_7 
REMARK    4  A    between atoms: C4_9  and  C5_10 
REMARK    5  A    between atoms: C13_18  and  O4_19 
ROOT
HETATM    1  C2  UNL     1      55.841  49.574  34.778  1.00  0.00     0.180 C 
HETATM    2  O2  UNL     1      56.807  50.347  35.349  1.00  0.00    -0.351 OA
HETATM    3  C3  UNL     1      57.855  49.684  35.932  1.00  0.00     0.265 C 
HETATM    4  C4  UNL     1      59.061  49.532  35.086  1.00  0.00     0.067 C 
HETATM    5  C11 UNL     1      58.705  48.815  33.842  1.00  0.00    -0.018 C 
HETATM    6  C12 UNL     1      57.538  48.279  33.480  1.00  0.00     0.004 C 
HETATM    7  C13 UNL     1      56.269  48.261  34.240  1.00  0.00     0.171 C 
ENDROOT
BRANCH   4   8
HETATM    8  C5  UNL     1      59.812  50.762  34.750  1.00  0.00    -0.002 C 
HETATM    9  C6  UNL     1      59.621  51.256  33.338  1.00  0.00     0.005 C 
HETATM   10  C7  UNL     1      60.259  52.653  33.299  1.00  0.00     0.000 C 
HETATM   11  C8  UNL     1      61.735  52.457  33.391  1.00  0.00     0.000 C 
HETATM   12  C9  UNL     1      62.147  51.106  33.879  1.00  0.00     0.000 C 
HETATM   13  C10 UNL     1      61.276  50.730  35.085  1.00  0.00     0.005 C 
ENDBRANCH   4   8
BRANCH   3  14
HETATM   14  O3  UNL     1      58.201  50.179  37.195  1.00  0.00    -0.371 OA
ATOM     15  H3  UNL     1      57.613  49.902  37.888  1.00  0.00     0.212 HD
ENDBRANCH   3  14
BRANCH   1  16
HETATM   16  C1  UNL     1      54.743  49.336  35.801  1.00  0.00     0.199 C 
BRANCH  16  17
HETATM   17  O1  UNL     1      53.480  49.360  35.239  1.00  0.00    -0.398 OA
ATOM     18  H1  UNL     1      53.238  50.222  34.921  1.00  0.00     0.209 HD
ENDBRANCH  16  17
ENDBRANCH   1  16
BRANCH   7  19
HETATM   19  O4  UNL     1      55.270  47.846  33.325  1.00  0.00    -0.389 OA
ATOM     20  H4  UNL     1      55.718  47.575  32.532  1.00  0.00     0.210 HD
ENDBRANCH   7  19
TORSDOF 5
ENDMDL
MODEL 4
REMARK VINA RESULT: -6.277661624      2.074      2.466
REMARK  5 active torsions:
REMARK  status: ('A' for Active; 'I' for Inactive)
REMARK    1  A    between atoms: O1_1  and  C1_3 
REMARK    2  A    between atoms: C1_3  and  C2_4 
REMARK    3  A    between atoms: C3_6  and  O3_7 
REMARK    4  A    between atoms: C4_9  and  C5_10 
REMARK    5  A    between atoms: C13_18  and  O4_19 
ROOT
HETATM    1  C2  UNL     1      54.875  50.545  35.937  1.00  0.00     0.180 C 
HETATM    2  O2  UNL     1      56.144  50.872  36.309  1.00  0.00    -0.351 OA
HETATM    3  C3  UNL     1      56.998  49.829  36.551  1.00  0.00     0.265 C 
HETATM    4  C4  UNL     1      57.873  49.446  35.418  1.00  0.00     0.067 C 
HETATM    5  C11 UNL     1      57.040  49.090  34.249  1.00  0.00    -0.018 C 
HETATM    6  C12 UNL     1      55.712  49.014  34.150  1.00  0.00     0.004 C 
HETATM    7  C13 UNL     1      54.703  49.271  35.201  1.00  0.00     0.171 C 
ENDROOT
BRANCH   4   8
HETATM    8  C5  UNL     1      58.913  50.416  35.008  1.00  0.00    -0.002 C 
HETATM    9  C6  UNL     1      58.988  50.675  33.524  1.00  0.00     0.005 C 
HETATM   10  C7  UNL     1      59.925  51.882  33.363  1.00  0.00     0.000 C 
HETATM   11  C8  UNL     1      61.301  51.409  33.693  1.00  0.00     0.000 C 
HETATM   12  C9  UNL     1      61.344  50.114  34.437  1.00  0.00     0.000 C 
HETATM   13  C10 UNL     1      60.288  50.148  35.550  1.00  0.00     0.005 C 
ENDBRANCH   4   8
BRANCH   3  14
HETATM   14  O3  UNL     1      57.750  49.978  37.723  1.00  0.00    -0.371 OA
ATOM     15  H3  UNL     1      58.316  49.238  37.910  1.00  0.00     0.212 HD
ENDBRANCH   3  14
BRANCH   1  16
HETATM   16  C1  UNL     1      54.003  50.501  37.180  1.00  0.00     0.199 C 
BRANCH  16  17
HETATM   17  O1  UNL     1      53.295  49.317  37.289  1.00  0.00    -0.398 OA
ATOM     18  H1  UNL     1      52.926  49.035  36.461  1.00  0.00     0.209 HD
ENDBRANCH  16  17
ENDBRANCH   1  16
BRANCH   7  19
HETATM   19  O4  UNL     1      53.454  49.346  34.535  1.00  0.00    -0.389 OA
ATOM     20  H4  UNL     1      53.380  48.564  34.000  1.00  0.00     0.210 HD
ENDBRANCH   7  19
TORSDOF 5
ENDMDL
MODEL 5
REMARK VINA RESULT: -6.256033012      2.632      3.937
REMARK  5 active torsions:
REMARK  status: ('A' for Active; 'I' for Inactive)
REMARK    1  A    between atoms: O1_1  and  C1_3 
REMARK    2  A    between atoms: C1_3  and  C2_4 
REMARK    3  A    between atoms: C3_6  and  O3_7 
REMARK    4  A    between atoms: C4_9  and  C5_10 
REMARK    5  A    between atoms: C13_18  and  O4_19 
ROOT
HETATM    1  C2  UNL     1      57.060  48.604  34.595  1.00  0.00     0.180 C 
HETATM    2  O2  UNL     1      58.130  49.108  35.271  1.00  0.00    -0.351 OA
HETATM    3  C3  UNL     1      58.219  50.472  35.345  1.00  0.00     0.265 C 
HETATM    4  C4  UNL     1      57.676  51.080  36.582  1.00  0.00     0.067 C 
HETATM    5  C11 UNL     1      56.252  50.709  36.732  1.00  0.00    -0.018 C 
HETATM    6  C12 UNL     1      55.469  50.014  35.905  1.00  0.00     0.004 C 
HETATM    7  C13 UNL     1      55.824  49.420  34.598  1.00  0.00     0.171 C 
ENDROOT
BRANCH   4   8
HETATM    8  C5  UNL     1      58.396  50.802  37.845  1.00  0.00    -0.002 C 
HETATM    9  C6  UNL     1      57.516  50.382  38.996  1.00  0.00     0.005 C 
HETATM   10  C7  UNL     1      58.477  49.896  40.093  1.00  0.00     0.000 C 
HETATM   11  C8  UNL     1      59.174  51.103  40.623  1.00  0.00     0.000 C 
HETATM   12  C9  UNL     1      59.079  52.305  39.742  1.00  0.00     0.000 C 
HETATM   13  C10 UNL     1      59.344  51.878  38.292  1.00  0.00     0.005 C 
ENDBRANCH   4   8
BRANCH   3  14
HETATM   14  O3  UNL     1      59.501  50.968  35.076  1.00  0.00    -0.371 OA
ATOM     15  H3  UNL     1      59.543  51.515  34.300  1.00  0.00     0.212 HD
ENDBRANCH   3  14
BRANCH   1  16
HETATM   16  C1  UNL     1      57.470  48.363  33.152  1.00  0.00     0.199 C 
BRANCH  16  17
HETATM   17  O1  UNL     1      56.899  49.272  32.279  1.00  0.00    -0.398 OA
ATOM     18  H1  UNL     1      57.533  49.654  31.683  1.00  0.00     0.209 HD
ENDBRANCH  16  17
ENDBRANCH   1  16
BRANCH   7  19
HETATM   19  O4  UNL     1      54.756  48.551  34.259  1.00  0.00    -0.389 OA
ATOM     20  H4  UNL     1      54.060  49.094  33.908  1.00  0.00     0.210 HD
ENDBRANCH   7  19
TORSDOF 5
ENDMDL
