MODEL 1
REMARK VINA RESULT: -5.401810692      0.000      0.000
REMARK  5 active torsions:
REMARK  status: ('A' for Active; 'I' for Inactive)
REMARK    1  A    between atoms: S1_2  and  C2_3 
REMARK    2  A    between atoms: C3_4  and  O1_5 
REMARK    3  A    between atoms: C4_7  and  C5_8 
REMARK    4  A    between atoms: C5_8  and  O2_9 
REMARK    5  A    between atoms: C5_8  and  O3_11 
ROOT
HETATM    1  C2  UNL     1      58.170  50.701  35.912  1.00  0.00     0.085 C 
HETATM    2  C3  UNL     1      56.974  49.759  35.701  1.00  0.00     0.142 C 
HETATM    3  C4  UNL     1      56.225  50.731  36.552  1.00  0.00     0.080 C 
HETATM    4  C6  UNL     1      57.490  51.062  37.244  1.00  0.00    -0.015 C 
HETATM    5  C7  UNL     1      58.006  50.196  38.322  1.00  0.00     0.011 C 
HETATM    6  C8  UNL     1      57.840  50.817  39.717  1.00  0.00     0.001 C 
HETATM    7  C9  UNL     1      58.692  52.071  39.788  1.00  0.00     0.000 C 
HETATM    8  C10 UNL     1      58.650  52.884  38.540  1.00  0.00     0.001 C 
HETATM    9  C11 UNL     1      57.567  52.522  37.584  1.00  0.00     0.011 C 
ENDROOT
BRANCH   3  10
HETATM   10  C5  UNL     1      55.049  50.264  37.299  1.00  0.00     0.261 C 
BRANCH  10  11
HETATM   11  O2  UNL     1      54.016  51.214  37.121  1.00  0.00    -0.371 OA
ATOM     12  H2  UNL     1      53.295  50.971  37.690  1.00  0.00     0.212 HD
ENDBRANCH  10  11
BRANCH  10  13
HETATM   13  O3  UNL     1      54.538  49.049  36.986  1.00  0.00    -0.371 OA
ATOM     14  H3  UNL     1      54.227  48.910  36.099  1.00  0.00     0.212 HD
ENDBRANCH  10  13
ENDBRANCH   3  10
BRANCH   2  15
HETATM   15  O1  UNL     1      56.597  49.758  34.354  1.00  0.00    -0.394 OA
ATOM     16  H1  UNL     1      55.837  50.314  34.228  1.00  0.00     0.210 HD
ENDBRANCH   2  15
BRANCH   1  17
HETATM   17  S1  UNL     1      59.671  49.745  36.068  1.00  0.00    -0.165 SA
HETATM   18  C1  UNL     1      60.334  49.347  34.434  1.00  0.00     0.090 C 
ENDBRANCH   1  17
TORSDOF 5
ENDMDL
MODEL 2
REMARK VINA RESULT: -5.303395095      1.373      1.391
REMARK  5 active torsions:
REMARK  status: ('A' for Active; 'I' for Inactive)
REMARK    1  A    between atoms: S1_2  and  C2_3 
REMARK    2  A    between atoms: C3_4  and  O1_5 
REMARK    3  A    between atoms: C4_7  and  C5_8 
REMARK    4  A    between atoms: C5_8  and  O2_9 
REMARK    5  A    between atoms: C5_8  and  O3_11 
ROOT
HETATM    1  C2  UNL     1      57.438  50.660  35.689  1.00  0.00     0.085 C 
HETATM    2  C3  UNL     1      56.087  50.108  36.170  1.00  0.00     0.142 C 
HETATM    3  C4  UNL     1      56.085  51.280  37.095  1.00  0.00     0.080 C 
HETATM    4  C6  UNL     1      57.563  51.241  37.108  1.00  0.00    -0.015 C 
HETATM    5  C7  UNL     1      58.283  50.291  37.977  1.00  0.00     0.011 C 
HETATM    6  C8  UNL     1      58.941  50.969  39.189  1.00  0.00     0.001 C 
HETATM    7  C9  UNL     1      60.011  51.918  38.683  1.00  0.00     0.000 C 
HETATM    8  C10 UNL     1      59.604  52.674  37.466  1.00  0.00     0.001 C 
HETATM    9  C11 UNL     1      58.150  52.622  37.145  1.00  0.00     0.011 C 
ENDROOT
BRANCH   3  10
HETATM   10  C5  UNL     1      55.311  51.200  38.342  1.00  0.00     0.261 C 
BRANCH  10  11
HETATM   11  O2  UNL     1      54.249  52.130  38.253  1.00  0.00    -0.371 OA
ATOM     12  H2  UNL     1      54.280  52.683  39.025  1.00  0.00     0.212 HD
ENDBRANCH  10  11
BRANCH  10  13
HETATM   13  O3  UNL     1      54.773  50.004  38.681  1.00  0.00    -0.371 OA
ATOM     14  H3  UNL     1      55.365  49.296  38.903  1.00  0.00     0.212 HD
ENDBRANCH  10  13
ENDBRANCH   3  10
BRANCH   2  15
HETATM   15  O1  UNL     1      55.144  50.182  35.139  1.00  0.00    -0.394 OA
ATOM     16  H1  UNL     1      54.885  51.085  34.999  1.00  0.00     0.210 HD
ENDBRANCH   2  15
BRANCH   1  17
HETATM   17  S1  UNL     1      58.549  49.309  35.328  1.00  0.00    -0.165 SA
HETATM   18  C1  UNL     1      58.055  48.481  33.799  1.00  0.00     0.090 C 
ENDBRANCH   1  17
TORSDOF 5
ENDMDL
MODEL 3
REMARK VINA RESULT: -5.275863560      1.110      1.227
REMARK  5 active torsions:
REMARK  status: ('A' for Active; 'I' for Inactive)
REMARK    1  A    between atoms: S1_2  and  C2_3 
REMARK    2  A    between atoms: C3_4  and  O1_5 
REMARK    3  A    between atoms: C4_7  and  C5_8 
REMARK    4  A    between atoms: C5_8  and  O2_9 
REMARK    5  A    between atoms: C5_8  and  O3_11 
ROOT
HETATM    1  C2  UNL     1      58.160  50.997  36.125  1.00  0.00     0.085 C 
HETATM    2  C3  UNL     1      56.881  50.225  36.484  1.00  0.00     0.142 C 
HETATM    3  C4  UNL     1      56.463  51.489  37.161  1.00  0.00     0.080 C 
HETATM    4  C6  UNL     1      57.889  51.796  37.411  1.00  0.00    -0.015 C 
HETATM    5  C7  UNL     1      58.603  51.179  38.545  1.00  0.00     0.011 C 
HETATM    6  C8  UNL     1      58.863  52.165  39.695  1.00  0.00     0.001 C 
HETATM    7  C9  UNL     1      59.798  53.249  39.193  1.00  0.00     0.000 C 
HETATM    8  C10 UNL     1      59.491  53.700  37.806  1.00  0.00     0.001 C 
HETATM    9  C11 UNL     1      58.167  53.265  37.278  1.00  0.00     0.011 C 
ENDROOT
BRANCH   3  10
HETATM   10  C5  UNL     1      55.495  51.420  38.264  1.00  0.00     0.261 C 
BRANCH  10  11
HETATM   11  O2  UNL     1      54.330  52.115  37.863  1.00  0.00    -0.371 OA
ATOM     12  H2  UNL     1      53.577  51.617  38.159  1.00  0.00     0.212 HD
ENDBRANCH  10  11
BRANCH  10  13
HETATM   13  O3  UNL     1      55.107  50.195  38.694  1.00  0.00    -0.371 OA
ATOM     14  H3  UNL     1      55.775  49.530  38.807  1.00  0.00     0.212 HD
ENDBRANCH  10  13
ENDBRANCH   3  10
BRANCH   2  15
HETATM   15  O1  UNL     1      56.160  49.923  35.324  1.00  0.00    -0.394 OA
ATOM     16  H1  UNL     1      56.502  50.421  34.590  1.00  0.00     0.210 HD
ENDBRANCH   2  15
BRANCH   1  17
HETATM   17  S1  UNL     1      59.569  49.901  36.203  1.00  0.00    -0.165 SA
HETATM   18  C1  UNL     1      60.072  49.406  34.538  1.00  0.00     0.090 C 
ENDBRANCH   1  17
TORSDOF 5
ENDMDL
MODEL 4
REMARK VINA RESULT: -5.264046860      2.617      3.746
REMARK  5 active torsions:
REMARK  status: ('A' for Active; 'I' for Inactive)
REMARK    1  A    between atoms: S1_2  and  C2_3 
REMARK    2  A    between atoms: C3_4  and  O1_5 
REMARK    3  A    between atoms: C4_7  and  C5_8 
REMARK    4  A    between atoms: C5_8  and  O2_9 
REMARK    5  A    between atoms: C5_8  and  O3_11 
ROOT
HETATM    1  C2  UNL     1      56.362  50.988  36.976  1.00  0.00     0.085 C 
HETATM    2  C3  UNL     1      56.278  50.166  38.272  1.00  0.00     0.142 C 
HETATM    3  C4  UNL     1      57.338  51.091  38.774  1.00  0.00     0.080 C 
HETATM    4  C6  UNL     1      57.822  51.249  37.385  1.00  0.00    -0.015 C 
HETATM    5  C7  UNL     1      58.703  50.234  36.776  1.00  0.00     0.011 C 
HETATM    6  C8  UNL     1      60.159  50.708  36.645  1.00  0.00     0.001 C 
HETATM    7  C9  UNL     1      60.196  51.880  35.683  1.00  0.00     0.000 C 
HETATM    8  C10 UNL     1      59.059  52.827  35.860  1.00  0.00     0.001 C 
HETATM    9  C11 UNL     1      58.281  52.653  37.118  1.00  0.00     0.011 C 
ENDROOT
BRANCH   3  10
HETATM   10  C5  UNL     1      58.234  50.633  39.845  1.00  0.00     0.261 C 
BRANCH  10  11
HETATM   11  O2  UNL     1      58.673  51.771  40.560  1.00  0.00    -0.371 OA
ATOM     12  H2  UNL     1      59.206  51.471  41.287  1.00  0.00     0.212 HD
ENDBRANCH  10  11
BRANCH  10  13
HETATM   13  O3  UNL     1      57.744  49.751  40.750  1.00  0.00    -0.371 OA
ATOM     14  H3  UNL     1      56.890  49.926  41.126  1.00  0.00     0.212 HD
ENDBRANCH  10  13
ENDBRANCH   3  10
BRANCH   2  15
HETATM   15  O1  UNL     1      55.026  50.341  38.870  1.00  0.00    -0.394 OA
ATOM     16  H1  UNL     1      54.857  49.636  39.484  1.00  0.00     0.210 HD
ENDBRANCH   2  15
BRANCH   1  17
HETATM   17  S1  UNL     1      56.157  49.912  35.565  1.00  0.00    -0.165 SA
HETATM   18  C1  UNL     1      54.412  49.496  35.342  1.00  0.00     0.090 C 
ENDBRANCH   1  17
TORSDOF 5
ENDMDL
MODEL 5
REMARK VINA RESULT: -5.105177388      3.525      4.932
REMARK  5 active torsions:
REMARK  status: ('A' for Active; 'I' for Inactive)
REMARK    1  A    between atoms: S1_2  and  C2_3 
REMARK    2  A    between atoms: C3_4  and  O1_5 
REMARK    3  A    between atoms: C4_7  and  C5_8 
REMARK    4  A    between atoms: C5_8  and  O2_9 
REMARK    5  A    between atoms: C5_8  and  O3_11 
ROOT
HETATM    1  C2  UNL     1      59.560  52.143  38.518  1.00  0.00     0.085 C 
HETATM    2  C3  UNL     1      59.691  52.003  40.043  1.00  0.00     0.142 C 
HETATM    3  C4  UNL     1      59.277  50.586  39.818  1.00  0.00     0.080 C 
HETATM    4  C6  UNL     1      58.509  51.025  38.632  1.00  0.00    -0.015 C 
HETATM    5  C7  UNL     1      57.164  51.614  38.783  1.00  0.00     0.011 C 
HETATM    6  C8  UNL     1      56.042  50.660  38.345  1.00  0.00     0.001 C 
HETATM    7  C9  UNL     1      56.186  50.403  36.857  1.00  0.00     0.000 C 
HETATM    8  C10 UNL     1      57.601  50.228  36.422  1.00  0.00     0.001 C 
HETATM    9  C11 UNL     1      58.580  50.016  37.524  1.00  0.00     0.011 C 
ENDROOT
BRANCH   3  10
HETATM   10  C5  UNL     1      58.630  49.850  40.913  1.00  0.00     0.261 C 
BRANCH  10  11
HETATM   11  O2  UNL     1      59.129  48.527  40.902  1.00  0.00    -0.371 OA
ATOM     12  H2  UNL     1      58.405  47.944  40.708  1.00  0.00     0.212 HD
ENDBRANCH  10  11
BRANCH  10  13
HETATM   13  O3  UNL     1      58.777  50.327  42.173  1.00  0.00    -0.371 OA
ATOM     14  H3  UNL     1      59.656  50.382  42.529  1.00  0.00     0.212 HD
ENDBRANCH  10  13
ENDBRANCH   3  10
BRANCH   2  15
HETATM   15  O1  UNL     1      61.027  52.161  40.426  1.00  0.00    -0.394 OA
ATOM     16  H1  UNL     1      61.158  53.023  40.804  1.00  0.00     0.210 HD
ENDBRANCH   2  15
BRANCH   1  17
HETATM   17  S1  UNL     1      58.903  53.755  38.115  1.00  0.00    -0.165 SA
HETATM   18  C1  UNL     1      60.022  55.051  38.696  1.00  0.00     0.090 C 
ENDBRANCH   1  17
TORSDOF 5
ENDMDL
