MODEL 1
REMARK VINA RESULT: -7.321031339      0.000      0.000
REMARK  3 active torsions:
REMARK  status: ('A' for Active; 'I' for Inactive)
REMARK    1  A    between atoms: N1_1  and  C1_4 
REMARK    2  A    between atoms: C2_7  and  C3_8 
REMARK    3  A    between atoms: N3_11  and  N4_12 
ROOT
HETATM    1  C3  UNL     1      57.886  50.235  39.104  1.00  0.00     0.076 C 
HETATM    2  C4  UNL     1      56.494  50.772  38.918  1.00  0.00     0.035 C 
HETATM    3  C5  UNL     1      56.205  50.424  37.468  1.00  0.00     0.143 C 
HETATM    4  N3  UNL     1      57.490  50.132  36.864  1.00  0.00    -0.327 N 
HETATM    5  C11 UNL     1      58.542  50.628  37.784  1.00  0.00     0.154 C 
ENDROOT
BRANCH   1   6
HETATM    6  C2  UNL     1      58.584  50.815  40.256  1.00  0.00     0.118 A 
HETATM    7  N2  UNL     1      58.720  52.094  40.639  1.00  0.00    -0.178 N 
HETATM    8  C1  UNL     1      59.447  52.161  41.765  1.00  0.00     0.691 A 
ATOM      9  H2  UNL     1      58.329  52.896  40.147  1.00  0.00     0.185 HD
HETATM   10  N6  UNL     1      59.772  50.902  42.092  1.00  0.00    -0.131 N 
HETATM   11  N5  UNL     1      59.251  50.106  41.183  1.00  0.00    -0.274 N 
ATOM     12  H6  UNL     1      60.324  50.613  42.900  1.00  0.00     0.205 HD
ATOM     13  H5  UNL     1      59.342  49.089  41.182  1.00  0.00     0.189 HD
BRANCH   8  14
HETATM   14  N1  UNL     1      59.794  53.222  42.443  1.00  0.00    -0.233 N 
ATOM     15  H12 UNL     1      60.717  53.655  42.415  1.00  0.00     0.174 HD
ATOM     16  H11 UNL     1      59.228  53.774  43.087  1.00  0.00     0.174 HD
ENDBRANCH   8  14
ENDBRANCH   1   6
BRANCH   4  17
HETATM   17  N4  UNL     1      57.797  49.519  35.678  1.00  0.00    -0.311 N 
HETATM   18  C6  UNL     1      57.104  49.058  34.747  1.00  0.00     0.003 C 
HETATM   19  C7  UNL     1      57.657  48.418  33.525  1.00  0.00     0.054 C 
HETATM   20  C10 UNL     1      55.646  49.010  34.594  1.00  0.00     0.054 C 
HETATM   21  C8  UNL     1      56.731  48.887  32.443  1.00  0.00     0.006 C 
HETATM   22  C9  UNL     1      55.490  49.404  33.113  1.00  0.00     0.006 C 
ATOM     23  H4  UNL     1      58.801  49.417  35.524  1.00  0.00     0.186 HD
ENDBRANCH   4  17
TORSDOF 3
ENDMDL
MODEL 2
REMARK VINA RESULT: -7.279420905      0.886      1.231
REMARK  3 active torsions:
REMARK  status: ('A' for Active; 'I' for Inactive)
REMARK    1  A    between atoms: N1_1  and  C1_4 
REMARK    2  A    between atoms: C2_7  and  C3_8 
REMARK    3  A    between atoms: N3_11  and  N4_12 
ROOT
HETATM    1  C3  UNL     1      57.752  50.125  39.188  1.00  0.00     0.076 C 
HETATM    2  C4  UNL     1      56.724  51.185  38.902  1.00  0.00     0.035 C 
HETATM    3  C5  UNL     1      56.495  51.016  37.410  1.00  0.00     0.143 C 
HETATM    4  N3  UNL     1      57.616  50.241  36.918  1.00  0.00    -0.327 N 
HETATM    5  C11 UNL     1      58.662  50.247  37.969  1.00  0.00     0.154 C 
ENDROOT
BRANCH   1   6
HETATM    6  C2  UNL     1      58.482  50.347  40.440  1.00  0.00     0.118 A 
HETATM    7  N2  UNL     1      58.288  49.836  41.665  1.00  0.00    -0.178 N 
HETATM    8  C1  UNL     1      59.203  50.323  42.518  1.00  0.00     0.691 A 
ATOM      9  H2  UNL     1      57.553  49.174  41.913  1.00  0.00     0.185 HD
HETATM   10  N6  UNL     1      59.983  51.155  41.813  1.00  0.00    -0.131 N 
HETATM   11  N5  UNL     1      59.544  51.163  40.573  1.00  0.00    -0.274 N 
ATOM     12  H6  UNL     1      60.775  51.687  42.174  1.00  0.00     0.205 HD
ATOM     13  H5  UNL     1      59.952  51.711  39.816  1.00  0.00     0.189 HD
BRANCH   8  14
HETATM   14  N1  UNL     1      59.342  50.066  43.790  1.00  0.00    -0.233 N 
ATOM     15  H12 UNL     1      58.597  50.131  44.483  1.00  0.00     0.174 HD
ATOM     16  H11 UNL     1      60.182  49.770  44.287  1.00  0.00     0.174 HD
ENDBRANCH   8  14
ENDBRANCH   1   6
BRANCH   4  17
HETATM   17  N4  UNL     1      57.790  49.582  35.730  1.00  0.00    -0.311 N 
HETATM   18  C6  UNL     1      56.997  49.121  34.881  1.00  0.00     0.003 C 
HETATM   19  C7  UNL     1      57.411  48.425  33.635  1.00  0.00     0.054 C 
HETATM   20  C10 UNL     1      55.530  49.127  34.863  1.00  0.00     0.054 C 
HETATM   21  C8  UNL     1      56.407  48.898  32.628  1.00  0.00     0.006 C 
HETATM   22  C9  UNL     1      55.253  49.483  33.391  1.00  0.00     0.006 C 
ATOM     23  H4  UNL     1      58.771  49.436  35.488  1.00  0.00     0.186 HD
ENDBRANCH   4  17
TORSDOF 3
ENDMDL
MODEL 3
REMARK VINA RESULT: -7.098809783      1.374      1.841
REMARK  3 active torsions:
REMARK  status: ('A' for Active; 'I' for Inactive)
REMARK    1  A    between atoms: N1_1  and  C1_4 
REMARK    2  A    between atoms: C2_7  and  C3_8 
REMARK    3  A    between atoms: N3_11  and  N4_12 
ROOT
HETATM    1  C3  UNL     1      58.239  50.981  38.126  1.00  0.00     0.076 C 
HETATM    2  C4  UNL     1      58.639  52.346  37.638  1.00  0.00     0.035 C 
HETATM    3  C5  UNL     1      58.611  52.170  36.131  1.00  0.00     0.143 C 
HETATM    4  N3  UNL     1      58.621  50.740  35.895  1.00  0.00    -0.327 N 
HETATM    5  C11 UNL     1      59.005  50.078  37.165  1.00  0.00     0.154 C 
ENDROOT
BRANCH   1   6
HETATM    6  C2  UNL     1      58.609  50.732  39.523  1.00  0.00     0.118 A 
HETATM    7  N2  UNL     1      57.985  50.026  40.478  1.00  0.00    -0.178 N 
HETATM    8  C1  UNL     1      58.691  50.071  41.619  1.00  0.00     0.691 A 
ATOM      9  H2  UNL     1      57.103  49.529  40.356  1.00  0.00     0.185 HD
HETATM   10  N6  UNL     1      59.776  50.819  41.373  1.00  0.00    -0.131 N 
HETATM   11  N5  UNL     1      59.718  51.209  40.118  1.00  0.00    -0.274 N 
ATOM     12  H6  UNL     1      60.515  51.045  42.039  1.00  0.00     0.205 HD
ATOM     13  H5  UNL     1      60.417  51.794  39.659  1.00  0.00     0.189 HD
BRANCH   8  14
HETATM   14  N1  UNL     1      58.413  49.512  42.765  1.00  0.00    -0.233 N 
ATOM     15  H12 UNL     1      57.532  49.618  43.268  1.00  0.00     0.174 HD
ATOM     16  H11 UNL     1      59.003  48.900  43.330  1.00  0.00     0.174 HD
ENDBRANCH   8  14
ENDBRANCH   1   6
BRANCH   4  17
HETATM   17  N4  UNL     1      58.344  50.022  34.761  1.00  0.00    -0.311 N 
HETATM   18  C6  UNL     1      57.318  49.446  34.342  1.00  0.00     0.003 C 
HETATM   19  C7  UNL     1      57.236  48.707  33.055  1.00  0.00     0.054 C 
HETATM   20  C10 UNL     1      55.988  49.330  34.950  1.00  0.00     0.054 C 
HETATM   21  C8  UNL     1      55.859  49.031  32.560  1.00  0.00     0.006 C 
HETATM   22  C9  UNL     1      55.081  49.568  33.727  1.00  0.00     0.006 C 
ATOM     23  H4  UNL     1      59.140  49.942  34.128  1.00  0.00     0.186 HD
ENDBRANCH   4  17
TORSDOF 3
ENDMDL
MODEL 4
REMARK VINA RESULT: -6.950874547      1.123      1.374
REMARK  3 active torsions:
REMARK  status: ('A' for Active; 'I' for Inactive)
REMARK    1  A    between atoms: N1_1  and  C1_4 
REMARK    2  A    between atoms: C2_7  and  C3_8 
REMARK    3  A    between atoms: N3_11  and  N4_12 
ROOT
HETATM    1  C3  UNL     1      58.248  51.203  38.168  1.00  0.00     0.076 C 
HETATM    2  C4  UNL     1      58.702  52.320  37.268  1.00  0.00     0.035 C 
HETATM    3  C5  UNL     1      58.507  51.719  35.887  1.00  0.00     0.143 C 
HETATM    4  N3  UNL     1      58.381  50.290  36.087  1.00  0.00    -0.327 N 
HETATM    5  C11 UNL     1      58.840  49.986  37.465  1.00  0.00     0.154 C 
ENDROOT
BRANCH   1   6
HETATM    6  C2  UNL     1      58.737  51.331  39.545  1.00  0.00     0.118 A 
HETATM    7  N2  UNL     1      58.767  52.393  40.365  1.00  0.00    -0.178 N 
HETATM    8  C1  UNL     1      59.307  52.048  41.544  1.00  0.00     0.691 A 
ATOM      9  H2  UNL     1      58.428  53.324  40.127  1.00  0.00     0.185 HD
HETATM   10  N6  UNL     1      59.623  50.748  41.460  1.00  0.00    -0.131 N 
HETATM   11  N5  UNL     1      59.278  50.329  40.261  1.00  0.00    -0.274 N 
ATOM     12  H6  UNL     1      60.053  50.184  42.193  1.00  0.00     0.205 HD
ATOM     13  H5  UNL     1      59.404  49.375  39.921  1.00  0.00     0.189 HD
BRANCH   8  14
HETATM   14  N1  UNL     1      59.507  52.799  42.593  1.00  0.00    -0.233 N 
ATOM     15  H12 UNL     1      58.772  53.266  43.124  1.00  0.00     0.174 HD
ATOM     16  H11 UNL     1      60.391  53.036  43.042  1.00  0.00     0.174 HD
ENDBRANCH   8  14
ENDBRANCH   1   6
BRANCH   4  17
HETATM   17  N4  UNL     1      57.935  49.308  35.242  1.00  0.00    -0.311 N 
HETATM   18  C6  UNL     1      56.799  48.970  34.845  1.00  0.00     0.003 C 
HETATM   19  C7  UNL     1      56.537  47.847  33.907  1.00  0.00     0.054 C 
HETATM   20  C10 UNL     1      55.484  49.535  35.165  1.00  0.00     0.054 C 
HETATM   21  C8  UNL     1      55.418  48.366  33.056  1.00  0.00     0.006 C 
HETATM   22  C9  UNL     1      54.818  49.540  33.776  1.00  0.00     0.006 C 
ATOM     23  H4  UNL     1      58.685  48.734  34.856  1.00  0.00     0.186 HD
ENDBRANCH   4  17
TORSDOF 3
ENDMDL
MODEL 5
REMARK VINA RESULT: -6.934221467      1.202      1.609
REMARK  3 active torsions:
REMARK  status: ('A' for Active; 'I' for Inactive)
REMARK    1  A    between atoms: N1_1  and  C1_4 
REMARK    2  A    between atoms: C2_7  and  C3_8 
REMARK    3  A    between atoms: N3_11  and  N4_12 
ROOT
HETATM    1  C3  UNL     1      56.546  50.493  38.735  1.00  0.00     0.076 C 
HETATM    2  C4  UNL     1      55.462  51.534  38.679  1.00  0.00     0.035 C 
HETATM    3  C5  UNL     1      54.731  51.168  37.399  1.00  0.00     0.143 C 
HETATM    4  N3  UNL     1      55.627  50.300  36.661  1.00  0.00    -0.327 N 
HETATM    5  C11 UNL     1      56.973  50.418  37.273  1.00  0.00     0.154 C 
ENDROOT
BRANCH   1   6
HETATM    6  C2  UNL     1      57.661  50.863  39.613  1.00  0.00     0.118 A 
HETATM    7  N2  UNL     1      58.136  52.070  39.958  1.00  0.00    -0.178 N 
HETATM    8  C1  UNL     1      59.179  51.932  40.791  1.00  0.00     0.691 A 
ATOM      9  H2  UNL     1      57.760  52.960  39.634  1.00  0.00     0.185 HD
HETATM   10  N6  UNL     1      59.360  50.616  40.970  1.00  0.00    -0.131 N 
HETATM   11  N5  UNL     1      58.448  49.986  40.262  1.00  0.00    -0.274 N 
ATOM     12  H6  UNL     1      60.077  50.181  41.552  1.00  0.00     0.205 HD
ATOM     13  H5  UNL     1      58.351  48.971  40.211  1.00  0.00     0.189 HD
BRANCH   8  14
HETATM   14  N1  UNL     1      59.904  52.868  41.342  1.00  0.00    -0.233 N 
ATOM     15  H12 UNL     1      60.605  53.426  40.854  1.00  0.00     0.174 HD
ATOM     16  H11 UNL     1      59.895  53.187  42.311  1.00  0.00     0.174 HD
ENDBRANCH   8  14
ENDBRANCH   1   6
BRANCH   4  17
HETATM   17  N4  UNL     1      55.391  49.478  35.591  1.00  0.00    -0.311 N 
HETATM   18  C6  UNL     1      56.008  49.258  34.527  1.00  0.00     0.003 C 
HETATM   19  C7  UNL     1      55.560  48.304  33.478  1.00  0.00     0.054 C 
HETATM   20  C10 UNL     1      57.262  49.833  34.030  1.00  0.00     0.054 C 
HETATM   21  C8  UNL     1      56.843  47.692  33.002  1.00  0.00     0.006 C 
HETATM   22  C9  UNL     1      57.960  48.581  33.467  1.00  0.00     0.006 C 
ATOM     23  H4  UNL     1      54.533  48.933  35.681  1.00  0.00     0.186 HD
ENDBRANCH   4  17
TORSDOF 3
ENDMDL
