MODEL 1
REMARK VINA RESULT: -11.732658055      0.000      0.000
REMARK  6 active torsions:
REMARK  status: ('A' for Active; 'I' for Inactive)
REMARK       I    between atoms: C1_2  and  N1_3 
REMARK    1  A    between atoms: C1_2  and  C20_29 
REMARK    2  A    between atoms: N1_3  and  C2_4 
REMARK    3  A    between atoms: C6_8  and  C7_9 
REMARK       I    between atoms: C7_9  and  N2_11 
REMARK    4  A    between atoms: N2_11  and  C8_13 
REMARK    5  A    between atoms: C11_16  and  N3_17 
REMARK    6  A    between atoms: N3_17  and  C12_19 
ROOT
HETATM    1  C7  UNL     1      11.876  22.663  33.867  1.00  0.00     0.256 C 
HETATM    2  O2  UNL     1      11.251  21.892  34.605  1.00  0.00    -0.267 OA
HETATM    3  N2  UNL     1      11.435  23.931  33.484  1.00  0.00    -0.323 N 
ATOM      4  H2  UNL     1      12.041  24.479  32.874  1.00  0.00     0.169 HD
ENDROOT
BRANCH   1   5
HETATM    5  C6  UNL     1      13.177  22.184  33.364  1.00  0.00     0.035 A 
HETATM    6  C5  UNL     1      13.888  22.810  32.378  1.00  0.00     0.017 A 
HETATM    7  C4  UNL     1      15.084  22.297  31.928  1.00  0.00     0.004 A 
HETATM    8  C3  UNL     1      15.551  21.136  32.493  1.00  0.00     0.045 A 
HETATM    9  C2  UNL     1      14.881  20.440  33.505  1.00  0.00     0.112 A 
HETATM   10  C19 UNL     1      13.672  21.014  33.920  1.00  0.00     0.061 A 
BRANCH   9  11
HETATM   11  N1  UNL     1      15.391  19.256  33.918  1.00  0.00    -0.367 NA
HETATM   12  C1  UNL     1      15.902  18.080  34.331  1.00  0.00     0.326 C 
HETATM   13  O1  UNL     1      17.075  17.923  34.825  1.00  0.00    -0.251 OA
BRANCH  12  14
HETATM   14  C20 UNL     1      15.128  16.794  34.256  1.00  0.00     0.046 A 
HETATM   15  C21 UNL     1      15.826  15.613  34.217  1.00  0.00     0.018 A 
HETATM   16  C22 UNL     1      15.215  14.371  34.163  1.00  0.00     0.001 A 
HETATM   17  C23 UNL     1      13.830  14.386  34.152  1.00  0.00     0.000 A 
HETATM   18  C24 UNL     1      13.114  15.555  34.189  1.00  0.00     0.001 A 
HETATM   19  C25 UNL     1      13.758  16.776  34.242  1.00  0.00     0.018 A 
ENDBRANCH  12  14
ENDBRANCH   9  11
ENDBRANCH   1   5
BRANCH   3  20
HETATM   20  C8  UNL     1      10.209  24.509  33.884  1.00  0.00     0.035 A 
HETATM   21  C9  UNL     1       9.245  24.775  32.894  1.00  0.00     0.032 A 
HETATM   22  C10 UNL     1       8.023  25.337  33.177  1.00  0.00     0.032 A 
HETATM   23  C11 UNL     1       7.703  25.661  34.473  1.00  0.00     0.033 A 
HETATM   24  C17 UNL     1       8.636  25.408  35.457  1.00  0.00     0.032 A 
HETATM   25  C18 UNL     1       9.882  24.836  35.170  1.00  0.00     0.032 A 
BRANCH  23  26
HETATM   26  N3  UNL     1       6.431  26.232  34.809  1.00  0.00    -0.343 N 
ATOM     27  H3  UNL     1       6.373  27.095  35.351  1.00  0.00     0.167 HD
BRANCH  26  28
HETATM   28  C12 UNL     1       5.358  25.629  34.410  1.00  0.00     0.105 A 
HETATM   29  C13 UNL     1       5.231  24.293  34.784  1.00  0.00     0.048 A 
HETATM   30  C14 UNL     1       4.105  23.593  34.387  1.00  0.00     0.005 A 
HETATM   31  C15 UNL     1       3.145  24.217  33.642  1.00  0.00     0.017 A 
HETATM   32  C16 UNL     1       3.323  25.559  33.294  1.00  0.00     0.089 A 
HETATM   33  N4  UNL     1       4.409  26.201  33.688  1.00  0.00    -0.352 N 
ATOM     34  H4  UNL     1       4.521  27.179  33.424  1.00  0.00     0.166 HD
ENDBRANCH  26  28
ENDBRANCH  23  26
ENDBRANCH   3  20
TORSDOF 6
ENDMDL
MODEL 2
REMARK VINA RESULT: -11.535666517      2.174     10.299
REMARK  6 active torsions:
REMARK  status: ('A' for Active; 'I' for Inactive)
REMARK       I    between atoms: C1_2  and  N1_3 
REMARK    1  A    between atoms: C1_2  and  C20_29 
REMARK    2  A    between atoms: N1_3  and  C2_4 
REMARK    3  A    between atoms: C6_8  and  C7_9 
REMARK       I    between atoms: C7_9  and  N2_11 
REMARK    4  A    between atoms: N2_11  and  C8_13 
REMARK    5  A    between atoms: C11_16  and  N3_17 
REMARK    6  A    between atoms: N3_17  and  C12_19 
ROOT
HETATM    1  C7  UNL     1      13.690  23.461  34.298  1.00  0.00     0.256 C 
HETATM    2  O2  UNL     1      14.760  23.609  34.901  1.00  0.00    -0.267 OA
HETATM    3  N2  UNL     1      13.215  22.245  33.805  1.00  0.00    -0.323 N 
ATOM      4  H2  UNL     1      12.314  22.247  33.326  1.00  0.00     0.169 HD
ENDROOT
BRANCH   1   5
HETATM    5  C6  UNL     1      12.877  24.674  34.093  1.00  0.00     0.035 A 
HETATM    6  C5  UNL     1      13.378  25.855  33.619  1.00  0.00     0.017 A 
HETATM    7  C4  UNL     1      12.575  26.964  33.478  1.00  0.00     0.004 A 
HETATM    8  C3  UNL     1      11.251  26.861  33.826  1.00  0.00     0.045 A 
HETATM    9  C2  UNL     1      10.665  25.689  34.318  1.00  0.00     0.112 A 
HETATM   10  C19 UNL     1      11.535  24.595  34.436  1.00  0.00     0.061 A 
BRANCH   9  11
HETATM   11  N1  UNL     1       9.374  25.732  34.717  1.00  0.00    -0.367 NA
HETATM   12  C1  UNL     1       8.088  25.777  35.119  1.00  0.00     0.326 C 
HETATM   13  O1  UNL     1       7.683  26.288  36.224  1.00  0.00    -0.251 OA
BRANCH  12  14
HETATM   14  C20 UNL     1       6.965  25.221  34.290  1.00  0.00     0.046 A 
HETATM   15  C21 UNL     1       5.863  24.720  34.937  1.00  0.00     0.018 A 
HETATM   16  C22 UNL     1       4.765  24.198  34.273  1.00  0.00     0.001 A 
HETATM   17  C23 UNL     1       4.841  24.212  32.889  1.00  0.00     0.000 A 
HETATM   18  C24 UNL     1       5.932  24.708  32.225  1.00  0.00     0.001 A 
HETATM   19  C25 UNL     1       7.010  25.220  32.921  1.00  0.00     0.018 A 
ENDBRANCH  12  14
ENDBRANCH   9  11
ENDBRANCH   1   5
BRANCH   3  20
HETATM   20  C8  UNL     1      13.894  21.011  33.923  1.00  0.00     0.035 A 
HETATM   21  C9  UNL     1      13.559  20.168  34.999  1.00  0.00     0.032 A 
HETATM   22  C10 UNL     1      14.162  18.950  35.205  1.00  0.00     0.032 A 
HETATM   23  C11 UNL     1      15.133  18.512  34.338  1.00  0.00     0.033 A 
HETATM   24  C17 UNL     1      15.474  19.326  33.277  1.00  0.00     0.032 A 
HETATM   25  C18 UNL     1      14.863  20.568  33.067  1.00  0.00     0.032 A 
BRANCH  23  26
HETATM   26  N3  UNL     1      15.771  17.239  34.510  1.00  0.00    -0.343 N 
ATOM     27  H3  UNL     1      16.763  17.179  34.741  1.00  0.00     0.167 HD
BRANCH  26  28
HETATM   28  C12 UNL     1      15.061  16.168  34.365  1.00  0.00     0.105 A 
HETATM   29  C13 UNL     1      15.765  14.966  34.320  1.00  0.00     0.048 A 
HETATM   30  C14 UNL     1      15.061  13.785  34.167  1.00  0.00     0.005 A 
HETATM   31  C15 UNL     1      13.699  13.814  34.063  1.00  0.00     0.017 A 
HETATM   32  C16 UNL     1      13.042  15.047  34.112  1.00  0.00     0.089 A 
HETATM   33  N4  UNL     1      13.742  16.159  34.260  1.00  0.00    -0.352 N 
ATOM     34  H4  UNL     1      13.245  17.048  34.294  1.00  0.00     0.166 HD
ENDBRANCH  26  28
ENDBRANCH  23  26
ENDBRANCH   3  20
TORSDOF 6
ENDMDL
MODEL 3
REMARK VINA RESULT: -11.434145017      2.018     10.362
REMARK  6 active torsions:
REMARK  status: ('A' for Active; 'I' for Inactive)
REMARK       I    between atoms: C1_2  and  N1_3 
REMARK    1  A    between atoms: C1_2  and  C20_29 
REMARK    2  A    between atoms: N1_3  and  C2_4 
REMARK    3  A    between atoms: C6_8  and  C7_9 
REMARK       I    between atoms: C7_9  and  N2_11 
REMARK    4  A    between atoms: N2_11  and  C8_13 
REMARK    5  A    between atoms: C11_16  and  N3_17 
REMARK    6  A    between atoms: N3_17  and  C12_19 
ROOT
HETATM    1  C7  UNL     1      12.715  23.481  35.509  1.00  0.00     0.256 C 
HETATM    2  O2  UNL     1      13.677  23.476  36.287  1.00  0.00    -0.267 OA
HETATM    3  N2  UNL     1      12.459  22.497  34.553  1.00  0.00    -0.323 N 
ATOM      4  H2  UNL     1      11.630  22.608  33.970  1.00  0.00     0.169 HD
ENDROOT
BRANCH   1   5
HETATM    5  C6  UNL     1      11.787  24.622  35.617  1.00  0.00     0.035 A 
HETATM    6  C5  UNL     1      11.867  25.579  36.591  1.00  0.00     0.017 A 
HETATM    7  C4  UNL     1      10.952  26.604  36.657  1.00  0.00     0.004 A 
HETATM    8  C3  UNL     1       9.948  26.648  35.722  1.00  0.00     0.045 A 
HETATM    9  C2  UNL     1       9.800  25.706  34.697  1.00  0.00     0.112 A 
HETATM   10  C19 UNL     1      10.764  24.689  34.682  1.00  0.00     0.061 A 
BRANCH   9  11
HETATM   11  N1  UNL     1       8.718  25.797  33.891  1.00  0.00    -0.367 NA
HETATM   12  C1  UNL     1       7.642  25.890  33.084  1.00  0.00     0.326 C 
HETATM   13  O1  UNL     1       7.584  26.601  32.018  1.00  0.00    -0.251 OA
BRANCH  12  14
HETATM   14  C20 UNL     1       6.363  25.149  33.357  1.00  0.00     0.046 A 
HETATM   15  C21 UNL     1       6.011  24.915  34.663  1.00  0.00     0.018 A 
HETATM   16  C22 UNL     1       4.849  24.256  35.029  1.00  0.00     0.001 A 
HETATM   17  C23 UNL     1       4.043  23.839  33.983  1.00  0.00     0.000 A 
HETATM   18  C24 UNL     1       4.377  24.062  32.672  1.00  0.00     0.001 A 
HETATM   19  C25 UNL     1       5.546  24.723  32.345  1.00  0.00     0.018 A 
ENDBRANCH  12  14
ENDBRANCH   9  11
ENDBRANCH   1   5
BRANCH   3  20
HETATM   20  C8  UNL     1      13.268  21.359  34.337  1.00  0.00     0.035 A 
HETATM   21  C9  UNL     1      13.016  20.207  35.107  1.00  0.00     0.032 A 
HETATM   22  C10 UNL     1      13.747  19.051  34.975  1.00  0.00     0.032 A 
HETATM   23  C11 UNL     1      14.769  18.988  34.061  1.00  0.00     0.033 A 
HETATM   24  C17 UNL     1      15.030  20.107  33.297  1.00  0.00     0.032 A 
HETATM   25  C18 UNL     1      14.289  21.287  33.431  1.00  0.00     0.032 A 
BRANCH  23  26
HETATM   26  N3  UNL     1      15.542  17.792  33.883  1.00  0.00    -0.343 N 
ATOM     27  H3  UNL     1      16.536  17.841  33.661  1.00  0.00     0.167 HD
BRANCH  26  28
HETATM   28  C12 UNL     1      14.949  16.649  34.009  1.00  0.00     0.105 A 
HETATM   29  C13 UNL     1      15.778  15.534  34.101  1.00  0.00     0.048 A 
HETATM   30  C14 UNL     1      15.204  14.283  34.238  1.00  0.00     0.005 A 
HETATM   31  C15 UNL     1      13.844  14.161  34.282  1.00  0.00     0.017 A 
HETATM   32  C16 UNL     1      13.057  15.313  34.184  1.00  0.00     0.089 A 
HETATM   33  N4  UNL     1      13.636  16.494  34.053  1.00  0.00    -0.352 N 
ATOM     34  H4  UNL     1      13.045  17.322  33.984  1.00  0.00     0.166 HD
ENDBRANCH  26  28
ENDBRANCH  23  26
ENDBRANCH   3  20
TORSDOF 6
ENDMDL
MODEL 4
REMARK VINA RESULT: -11.431109811      2.077     10.500
REMARK  6 active torsions:
REMARK  status: ('A' for Active; 'I' for Inactive)
REMARK       I    between atoms: C1_2  and  N1_3 
REMARK    1  A    between atoms: C1_2  and  C20_29 
REMARK    2  A    between atoms: N1_3  and  C2_4 
REMARK    3  A    between atoms: C6_8  and  C7_9 
REMARK       I    between atoms: C7_9  and  N2_11 
REMARK    4  A    between atoms: N2_11  and  C8_13 
REMARK    5  A    between atoms: C11_16  and  N3_17 
REMARK    6  A    between atoms: N3_17  and  C12_19 
ROOT
HETATM    1  C7  UNL     1      12.155  22.409  33.635  1.00  0.00     0.256 C 
HETATM    2  O2  UNL     1      11.278  21.625  34.019  1.00  0.00    -0.267 OA
HETATM    3  N2  UNL     1      13.507  22.087  33.500  1.00  0.00    -0.323 N 
ATOM      4  H2  UNL     1      14.137  22.818  33.170  1.00  0.00     0.169 HD
ENDROOT
BRANCH   1   5
HETATM    5  C6  UNL     1      11.717  23.778  33.306  1.00  0.00     0.035 A 
HETATM    6  C5  UNL     1      12.556  24.858  33.274  1.00  0.00     0.017 A 
HETATM    7  C4  UNL     1      12.082  26.118  32.990  1.00  0.00     0.004 A 
HETATM    8  C3  UNL     1      10.741  26.272  32.739  1.00  0.00     0.045 A 
HETATM    9  C2  UNL     1       9.822  25.217  32.754  1.00  0.00     0.112 A 
HETATM   10  C19 UNL     1      10.367  23.959  33.048  1.00  0.00     0.061 A 
BRANCH   9  11
HETATM   11  N1  UNL     1       8.510  25.503  32.587  1.00  0.00    -0.367 NA
HETATM   12  C1  UNL     1       7.205  25.792  32.416  1.00  0.00     0.326 C 
HETATM   13  O1  UNL     1       6.747  26.660  31.590  1.00  0.00    -0.251 OA
BRANCH  12  14
HETATM   14  C20 UNL     1       6.119  25.105  33.196  1.00  0.00     0.046 A 
HETATM   15  C21 UNL     1       5.095  24.510  32.503  1.00  0.00     0.018 A 
HETATM   16  C22 UNL     1       4.053  23.837  33.119  1.00  0.00     0.001 A 
HETATM   17  C23 UNL     1       4.103  23.794  34.503  1.00  0.00     0.000 A 
HETATM   18  C24 UNL     1       5.117  24.383  35.213  1.00  0.00     0.001 A 
HETATM   19  C25 UNL     1       6.140  25.047  34.564  1.00  0.00     0.018 A 
ENDBRANCH  12  14
ENDBRANCH   9  11
ENDBRANCH   1   5
BRANCH   3  20
HETATM   20  C8  UNL     1      14.063  20.820  33.788  1.00  0.00     0.035 A 
HETATM   21  C9  UNL     1      14.886  20.218  32.818  1.00  0.00     0.032 A 
HETATM   22  C10 UNL     1      15.472  18.989  32.999  1.00  0.00     0.032 A 
HETATM   23  C11 UNL     1      15.264  18.297  34.168  1.00  0.00     0.033 A 
HETATM   24  C17 UNL     1      14.459  18.871  35.130  1.00  0.00     0.032 A 
HETATM   25  C18 UNL     1      13.860  20.124  34.947  1.00  0.00     0.032 A 
BRANCH  23  26
HETATM   26  N3  UNL     1      15.873  17.019  34.400  1.00  0.00    -0.343 N 
ATOM     27  H3  UNL     1      16.868  16.947  34.615  1.00  0.00     0.167 HD
BRANCH  26  28
HETATM   28  C12 UNL     1      15.133  15.961  34.331  1.00  0.00     0.105 A 
HETATM   29  C13 UNL     1      15.805  14.741  34.347  1.00  0.00     0.048 A 
HETATM   30  C14 UNL     1      15.069  13.571  34.276  1.00  0.00     0.005 A 
HETATM   31  C15 UNL     1      13.707  13.630  34.192  1.00  0.00     0.017 A 
HETATM   32  C16 UNL     1      13.082  14.881  34.178  1.00  0.00     0.089 A 
HETATM   33  N4  UNL     1      13.813  15.980  34.247  1.00  0.00    -0.352 N 
ATOM     34  H4  UNL     1      13.340  16.883  34.235  1.00  0.00     0.166 HD
ENDBRANCH  26  28
ENDBRANCH  23  26
ENDBRANCH   3  20
TORSDOF 6
ENDMDL
MODEL 5
REMARK VINA RESULT: -11.300729834      2.068     10.612
REMARK  6 active torsions:
REMARK  status: ('A' for Active; 'I' for Inactive)
REMARK       I    between atoms: C1_2  and  N1_3 
REMARK    1  A    between atoms: C1_2  and  C20_29 
REMARK    2  A    between atoms: N1_3  and  C2_4 
REMARK    3  A    between atoms: C6_8  and  C7_9 
REMARK       I    between atoms: C7_9  and  N2_11 
REMARK    4  A    between atoms: N2_11  and  C8_13 
REMARK    5  A    between atoms: C11_16  and  N3_17 
REMARK    6  A    between atoms: N3_17  and  C12_19 
ROOT
HETATM    1  C7  UNL     1      11.792  24.614  35.274  1.00  0.00     0.256 C 
HETATM    2  O2  UNL     1      12.534  24.525  36.260  1.00  0.00    -0.267 OA
HETATM    3  N2  UNL     1      11.917  23.853  34.111  1.00  0.00    -0.323 N 
ATOM      4  H2  UNL     1      11.241  24.014  33.365  1.00  0.00     0.169 HD
ENDROOT
BRANCH   1   5
HETATM    5  C6  UNL     1      10.705  25.608  35.356  1.00  0.00     0.035 A 
HETATM    6  C5  UNL     1      10.646  26.594  36.302  1.00  0.00     0.017 A 
HETATM    7  C4  UNL     1       9.589  27.474  36.346  1.00  0.00     0.004 A 
HETATM    8  C3  UNL     1       8.588  27.343  35.416  1.00  0.00     0.045 A 
HETATM    9  C2  UNL     1       8.578  26.361  34.418  1.00  0.00     0.112 A 
HETATM   10  C19 UNL     1       9.682  25.497  34.426  1.00  0.00     0.061 A 
BRANCH   9  11
HETATM   11  N1  UNL     1       7.493  26.268  33.616  1.00  0.00    -0.367 NA
HETATM   12  C1  UNL     1       6.415  26.178  32.814  1.00  0.00     0.326 C 
HETATM   13  O1  UNL     1       6.357  26.618  31.610  1.00  0.00    -0.251 OA
BRANCH  12  14
HETATM   14  C20 UNL     1       5.132  25.533  33.257  1.00  0.00     0.046 A 
HETATM   15  C21 UNL     1       5.100  24.167  33.387  1.00  0.00     0.018 A 
HETATM   16  C22 UNL     1       3.977  23.470  33.804  1.00  0.00     0.001 A 
HETATM   17  C23 UNL     1       2.864  24.245  34.090  1.00  0.00     0.000 A 
HETATM   18  C24 UNL     1       2.877  25.610  33.966  1.00  0.00     0.001 A 
HETATM   19  C25 UNL     1       4.015  26.271  33.547  1.00  0.00     0.018 A 
ENDBRANCH  12  14
ENDBRANCH   9  11
ENDBRANCH   1   5
BRANCH   3  20
HETATM   20  C8  UNL     1      12.914  22.874  33.896  1.00  0.00     0.035 A 
HETATM   21  C9  UNL     1      12.679  21.570  34.370  1.00  0.00     0.032 A 
HETATM   22  C10 UNL     1      13.585  20.548  34.215  1.00  0.00     0.032 A 
HETATM   23  C11 UNL     1      14.776  20.782  33.572  1.00  0.00     0.033 A 
HETATM   24  C17 UNL     1      15.023  22.055  33.101  1.00  0.00     0.032 A 
HETATM   25  C18 UNL     1      14.102  23.098  33.260  1.00  0.00     0.032 A 
BRANCH  23  26
HETATM   26  N3  UNL     1      15.738  19.736  33.374  1.00  0.00    -0.343 N 
ATOM     27  H3  UNL     1      16.566  19.890  32.798  1.00  0.00     0.167 HD
BRANCH  26  28
HETATM   28  C12 UNL     1      15.533  18.593  33.944  1.00  0.00     0.105 A 
HETATM   29  C13 UNL     1      15.436  17.493  33.095  1.00  0.00     0.048 A 
HETATM   30  C14 UNL     1      15.217  16.242  33.645  1.00  0.00     0.005 A 
HETATM   31  C15 UNL     1      15.100  16.106  34.999  1.00  0.00     0.017 A 
HETATM   32  C16 UNL     1      15.204  17.243  35.806  1.00  0.00     0.089 A 
HETATM   33  N4  UNL     1      15.414  18.424  35.251  1.00  0.00    -0.352 N 
ATOM     34  H4  UNL     1      15.487  19.242  35.856  1.00  0.00     0.166 HD
ENDBRANCH  26  28
ENDBRANCH  23  26
ENDBRANCH   3  20
TORSDOF 6
ENDMDL
