MODEL 1
REMARK VINA RESULT: -9.416248946      0.000      0.000
REMARK  6 active torsions:
REMARK  status: ('A' for Active; 'I' for Inactive)
REMARK       I    between atoms: C1_2  and  N1_3 
REMARK    1  A    between atoms: C1_2  and  C15_24 
REMARK    2  A    between atoms: N1_3  and  N2_5 
REMARK       I    between atoms: N2_5  and  C2_7 
REMARK       I    between atoms: C2_7  and  N4_16 
REMARK    3  A    between atoms: N3_8  and  C3_10 
REMARK    4  A    between atoms: N4_16  and  C9_18 
REMARK    5  A    between atoms: C18_27  and  O2_28 
REMARK    6  A    between atoms: O2_28  and  C19_29 
ROOT
HETATM    1  N2  UNL     1       9.246  24.591  34.626  1.00  0.00    -0.129 N 
ATOM      2  H2  UNL     1       8.438  24.228  35.132  1.00  0.00     0.205 HD
HETATM    3  C2  UNL     1       9.163  25.831  33.966  1.00  0.00     0.697 C 
HETATM    4  N3  UNL     1       8.056  26.261  33.521  1.00  0.00    -0.190 N 
ATOM      5  H3  UNL     1       8.049  27.166  33.051  1.00  0.00     0.184 HD
HETATM    6  N4  UNL     1      10.387  26.572  33.823  1.00  0.00    -0.190 N 
ATOM      7  H4  UNL     1      11.005  26.372  33.037  1.00  0.00     0.184 HD
ENDROOT
BRANCH   1   8
HETATM    8  N1  UNL     1      10.429  23.857  34.591  1.00  0.00    -0.251 N 
HETATM    9  C1  UNL     1      11.024  23.359  33.393  1.00  0.00     0.270 C 
HETATM   10  O1  UNL     1      10.426  23.616  32.295  1.00  0.00    -0.266 OA
ATOM     11  H1  UNL     1      10.899  23.665  35.475  1.00  0.00     0.191 HD
BRANCH   9  12
HETATM   12  C15 UNL     1      12.246  22.597  33.440  1.00  0.00     0.033 A 
HETATM   13  C16 UNL     1      13.326  22.947  32.671  1.00  0.00     0.020 A 
HETATM   14  C17 UNL     1      14.507  22.197  32.757  1.00  0.00     0.038 A 
HETATM   15  C18 UNL     1      14.608  21.125  33.591  1.00  0.00     0.076 A 
HETATM   16  C25 UNL     1      13.514  20.776  34.366  1.00  0.00     0.038 A 
HETATM   17  C26 UNL     1      12.354  21.506  34.285  1.00  0.00     0.020 A 
BRANCH  15  18
HETATM   18  O2  UNL     1      15.729  20.328  33.740  1.00  0.00    -0.311 OA
BRANCH  18  19
HETATM   19  C19 UNL     1      15.549  18.983  34.013  1.00  0.00     0.076 A 
HETATM   20  C20 UNL     1      15.525  18.031  33.014  1.00  0.00     0.037 A 
HETATM   21  C21 UNL     1      15.346  16.699  33.282  1.00  0.00     0.003 A 
HETATM   22  C22 UNL     1      15.178  16.241  34.572  1.00  0.00     0.000 A 
HETATM   23  C23 UNL     1      15.200  17.182  35.580  1.00  0.00     0.003 A 
HETATM   24  C24 UNL     1      15.380  18.522  35.316  1.00  0.00     0.037 A 
ENDBRANCH  18  19
ENDBRANCH  15  18
ENDBRANCH   9  12
ENDBRANCH   1   8
BRANCH   4  25
HETATM   25  C3  UNL     1       6.840  25.564  33.634  1.00  0.00     0.049 A 
HETATM   26  C4  UNL     1       6.131  25.399  34.810  1.00  0.00     0.030 A 
HETATM   27  C5  UNL     1       4.935  24.708  34.880  1.00  0.00     0.002 A 
HETATM   28  C6  UNL     1       4.416  24.157  33.737  1.00  0.00     0.000 A 
HETATM   29  C7  UNL     1       5.076  24.286  32.528  1.00  0.00     0.002 A 
HETATM   30  C8  UNL     1       6.254  24.976  32.508  1.00  0.00     0.030 A 
ENDBRANCH   4  25
BRANCH   6  31
HETATM   31  C9  UNL     1      10.753  27.584  34.760  1.00  0.00     0.049 A 
HETATM   32  C10 UNL     1      10.587  27.378  36.114  1.00  0.00     0.030 A 
HETATM   33  C11 UNL     1      10.957  28.375  36.983  1.00  0.00     0.002 A 
HETATM   34  C12 UNL     1      11.488  29.572  36.565  1.00  0.00     0.000 A 
HETATM   35  C13 UNL     1      11.661  29.789  35.194  1.00  0.00     0.002 A 
HETATM   36  C14 UNL     1      11.289  28.791  34.331  1.00  0.00     0.030 A 
ENDBRANCH   6  31
TORSDOF 6
ENDMDL
MODEL 2
REMARK VINA RESULT: -9.408621891      0.927      1.717
REMARK  6 active torsions:
REMARK  status: ('A' for Active; 'I' for Inactive)
REMARK       I    between atoms: C1_2  and  N1_3 
REMARK    1  A    between atoms: C1_2  and  C15_24 
REMARK    2  A    between atoms: N1_3  and  N2_5 
REMARK       I    between atoms: N2_5  and  C2_7 
REMARK       I    between atoms: C2_7  and  N4_16 
REMARK    3  A    between atoms: N3_8  and  C3_10 
REMARK    4  A    between atoms: N4_16  and  C9_18 
REMARK    5  A    between atoms: C18_27  and  O2_28 
REMARK    6  A    between atoms: O2_28  and  C19_29 
ROOT
HETATM    1  N2  UNL     1       8.763  24.477  33.993  1.00  0.00    -0.129 N 
ATOM      2  H2  UNL     1       7.990  24.030  34.484  1.00  0.00     0.205 HD
HETATM    3  C2  UNL     1       8.642  25.811  33.562  1.00  0.00     0.697 C 
HETATM    4  N3  UNL     1       7.511  26.306  33.275  1.00  0.00    -0.190 N 
ATOM      5  H3  UNL     1       7.477  27.279  32.969  1.00  0.00     0.184 HD
HETATM    6  N4  UNL     1       9.860  26.572  33.462  1.00  0.00    -0.190 N 
ATOM      7  H4  UNL     1      10.420  26.512  32.611  1.00  0.00     0.184 HD
ENDROOT
BRANCH   1   8
HETATM    8  N1  UNL     1       9.935  23.766  33.749  1.00  0.00    -0.251 N 
HETATM    9  C1  UNL     1      10.922  23.488  34.742  1.00  0.00     0.270 C 
HETATM   10  O1  UNL     1      10.697  23.920  35.923  1.00  0.00    -0.266 OA
ATOM     11  H1  UNL     1      10.098  23.422  32.803  1.00  0.00     0.191 HD
BRANCH   9  12
HETATM   12  C15 UNL     1      12.116  22.754  34.408  1.00  0.00     0.033 A 
HETATM   13  C16 UNL     1      13.280  23.405  34.092  1.00  0.00     0.020 A 
HETATM   14  C17 UNL     1      14.429  22.660  33.794  1.00  0.00     0.038 A 
HETATM   15  C18 UNL     1      14.416  21.298  33.812  1.00  0.00     0.076 A 
HETATM   16  C25 UNL     1      13.237  20.645  34.132  1.00  0.00     0.038 A 
HETATM   17  C26 UNL     1      12.108  21.370  34.424  1.00  0.00     0.020 A 
BRANCH  15  18
HETATM   18  O2  UNL     1      15.497  20.482  33.530  1.00  0.00    -0.311 OA
BRANCH  18  19
HETATM   19  C19 UNL     1      15.420  19.144  33.878  1.00  0.00     0.076 A 
HETATM   20  C20 UNL     1      15.335  18.733  35.192  1.00  0.00     0.037 A 
HETATM   21  C21 UNL     1      15.260  17.409  35.536  1.00  0.00     0.003 A 
HETATM   22  C22 UNL     1      15.267  16.415  34.581  1.00  0.00     0.000 A 
HETATM   23  C23 UNL     1      15.351  16.813  33.262  1.00  0.00     0.003 A 
HETATM   24  C24 UNL     1      15.427  18.142  32.911  1.00  0.00     0.037 A 
ENDBRANCH  18  19
ENDBRANCH  15  18
ENDBRANCH   9  12
ENDBRANCH   1   8
BRANCH   4  25
HETATM   25  C3  UNL     1       6.301  25.595  33.353  1.00  0.00     0.049 A 
HETATM   26  C4  UNL     1       5.687  24.959  32.289  1.00  0.00     0.030 A 
HETATM   27  C5  UNL     1       4.496  24.267  32.407  1.00  0.00     0.002 A 
HETATM   28  C6  UNL     1       3.884  24.199  33.632  1.00  0.00     0.000 A 
HETATM   29  C7  UNL     1       4.446  24.813  34.738  1.00  0.00     0.002 A 
HETATM   30  C8  UNL     1       5.622  25.486  34.572  1.00  0.00     0.030 A 
ENDBRANCH   4  25
BRANCH   6  31
HETATM   31  C9  UNL     1      10.298  27.410  34.529  1.00  0.00     0.049 A 
HETATM   32  C10 UNL     1      11.096  28.506  34.277  1.00  0.00     0.030 A 
HETATM   33  C11 UNL     1      11.492  29.291  35.333  1.00  0.00     0.002 A 
HETATM   34  C12 UNL     1      11.128  29.034  36.633  1.00  0.00     0.000 A 
HETATM   35  C13 UNL     1      10.319  27.924  36.898  1.00  0.00     0.002 A 
HETATM   36  C14 UNL     1       9.928  27.144  35.840  1.00  0.00     0.030 A 
ENDBRANCH   6  31
TORSDOF 6
ENDMDL
MODEL 3
REMARK VINA RESULT: -9.403604787      1.056      1.500
REMARK  6 active torsions:
REMARK  status: ('A' for Active; 'I' for Inactive)
REMARK       I    between atoms: C1_2  and  N1_3 
REMARK    1  A    between atoms: C1_2  and  C15_24 
REMARK    2  A    between atoms: N1_3  and  N2_5 
REMARK       I    between atoms: N2_5  and  C2_7 
REMARK       I    between atoms: C2_7  and  N4_16 
REMARK    3  A    between atoms: N3_8  and  C3_10 
REMARK    4  A    between atoms: N4_16  and  C9_18 
REMARK    5  A    between atoms: C18_27  and  O2_28 
REMARK    6  A    between atoms: O2_28  and  C19_29 
ROOT
HETATM    1  N2  UNL     1       8.975  24.159  33.956  1.00  0.00    -0.129 N 
ATOM      2  H2  UNL     1       8.265  23.855  34.623  1.00  0.00     0.205 HD
HETATM    3  C2  UNL     1       8.800  25.360  33.243  1.00  0.00     0.697 C 
HETATM    4  N3  UNL     1       7.640  25.800  32.979  1.00  0.00    -0.190 N 
ATOM      5  H3  UNL     1       7.567  26.676  32.461  1.00  0.00     0.184 HD
HETATM    6  N4  UNL     1       9.994  26.049  32.832  1.00  0.00    -0.190 N 
ATOM      7  H4  UNL     1      10.452  25.781  31.961  1.00  0.00     0.184 HD
ENDROOT
BRANCH   1   8
HETATM    8  N1  UNL     1      10.114  23.385  33.754  1.00  0.00    -0.251 N 
HETATM    9  C1  UNL     1      11.297  23.481  34.546  1.00  0.00     0.270 C 
HETATM   10  O1  UNL     1      11.291  24.329  35.501  1.00  0.00    -0.266 OA
ATOM     11  H1  UNL     1      10.102  22.707  32.992  1.00  0.00     0.191 HD
BRANCH   9  12
HETATM   12  C15 UNL     1      12.441  22.650  34.266  1.00  0.00     0.033 A 
HETATM   13  C16 UNL     1      13.620  23.197  33.831  1.00  0.00     0.020 A 
HETATM   14  C17 UNL     1      14.720  22.363  33.589  1.00  0.00     0.038 A 
HETATM   15  C18 UNL     1      14.645  21.017  33.778  1.00  0.00     0.076 A 
HETATM   16  C25 UNL     1      13.450  20.469  34.219  1.00  0.00     0.038 A 
HETATM   17  C26 UNL     1      12.370  21.281  34.456  1.00  0.00     0.020 A 
BRANCH  15  18
HETATM   18  O2  UNL     1      15.674  20.118  33.565  1.00  0.00    -0.311 OA
BRANCH  18  19
HETATM   19  C19 UNL     1      15.502  18.808  33.981  1.00  0.00     0.076 A 
HETATM   20  C20 UNL     1      15.618  17.744  33.111  1.00  0.00     0.037 A 
HETATM   21  C21 UNL     1      15.448  16.447  33.521  1.00  0.00     0.003 A 
HETATM   22  C22 UNL     1      15.149  16.141  34.832  1.00  0.00     0.000 A 
HETATM   23  C23 UNL     1      15.031  17.197  35.713  1.00  0.00     0.003 A 
HETATM   24  C24 UNL     1      15.201  18.501  35.305  1.00  0.00     0.037 A 
ENDBRANCH  18  19
ENDBRANCH  15  18
ENDBRANCH   9  12
ENDBRANCH   1   8
BRANCH   4  25
HETATM   25  C3  UNL     1       6.450  25.154  33.357  1.00  0.00     0.049 A 
HETATM   26  C4  UNL     1       5.635  24.435  32.501  1.00  0.00     0.030 A 
HETATM   27  C5  UNL     1       4.471  23.811  32.913  1.00  0.00     0.002 A 
HETATM   28  C6  UNL     1       4.097  23.900  34.228  1.00  0.00     0.000 A 
HETATM   29  C7  UNL     1       4.869  24.604  35.137  1.00  0.00     0.002 A 
HETATM   30  C8  UNL     1       6.009  25.204  34.684  1.00  0.00     0.030 A 
ENDBRANCH   4  25
BRANCH   6  31
HETATM   31  C9  UNL     1      10.549  27.101  33.619  1.00  0.00     0.049 A 
HETATM   32  C10 UNL     1      11.907  27.339  33.612  1.00  0.00     0.030 A 
HETATM   33  C11 UNL     1      12.401  28.366  34.380  1.00  0.00     0.002 A 
HETATM   34  C12 UNL     1      11.601  29.171  35.156  1.00  0.00     0.000 A 
HETATM   35  C13 UNL     1      10.222  28.936  35.169  1.00  0.00     0.002 A 
HETATM   36  C14 UNL     1       9.735  27.910  34.401  1.00  0.00     0.030 A 
ENDBRANCH   6  31
TORSDOF 6
ENDMDL
MODEL 4
REMARK VINA RESULT: -9.079586485      1.702      2.406
REMARK  6 active torsions:
REMARK  status: ('A' for Active; 'I' for Inactive)
REMARK       I    between atoms: C1_2  and  N1_3 
REMARK    1  A    between atoms: C1_2  and  C15_24 
REMARK    2  A    between atoms: N1_3  and  N2_5 
REMARK       I    between atoms: N2_5  and  C2_7 
REMARK       I    between atoms: C2_7  and  N4_16 
REMARK    3  A    between atoms: N3_8  and  C3_10 
REMARK    4  A    between atoms: N4_16  and  C9_18 
REMARK    5  A    between atoms: C18_27  and  O2_28 
REMARK    6  A    between atoms: O2_28  and  C19_29 
ROOT
HETATM    1  N2  UNL     1       9.468  23.559  33.933  1.00  0.00    -0.129 N 
ATOM      2  H2  UNL     1       8.783  23.566  34.689  1.00  0.00     0.205 HD
HETATM    3  C2  UNL     1       9.477  24.598  32.985  1.00  0.00     0.697 C 
HETATM    4  N3  UNL     1       8.417  25.230  32.697  1.00  0.00    -0.190 N 
ATOM      5  H3  UNL     1       8.477  25.976  32.004  1.00  0.00     0.184 HD
HETATM    6  N4  UNL     1      10.741  24.898  32.366  1.00  0.00    -0.190 N 
ATOM      7  H4  UNL     1      11.039  24.362  31.551  1.00  0.00     0.184 HD
ENDROOT
BRANCH   1   8
HETATM    8  N1  UNL     1      10.389  22.519  33.842  1.00  0.00    -0.251 N 
HETATM    9  C1  UNL     1      11.662  22.521  34.488  1.00  0.00     0.270 C 
HETATM   10  O1  UNL     1      11.955  23.543  35.195  1.00  0.00    -0.266 OA
ATOM     11  H1  UNL     1      10.140  21.707  33.279  1.00  0.00     0.191 HD
BRANCH   9  12
HETATM   12  C15 UNL     1      12.567  21.410  34.335  1.00  0.00     0.033 A 
HETATM   13  C16 UNL     1      12.267  20.179  34.860  1.00  0.00     0.020 A 
HETATM   14  C17 UNL     1      13.159  19.114  34.674  1.00  0.00     0.038 A 
HETATM   15  C18 UNL     1      14.321  19.274  33.982  1.00  0.00     0.076 A 
HETATM   16  C25 UNL     1      14.619  20.520  33.454  1.00  0.00     0.038 A 
HETATM   17  C26 UNL     1      13.750  21.567  33.633  1.00  0.00     0.020 A 
BRANCH  15  18
HETATM   18  O2  UNL     1      15.260  18.284  33.751  1.00  0.00    -0.311 OA
BRANCH  18  19
HETATM   19  C19 UNL     1      14.880  16.963  33.918  1.00  0.00     0.076 A 
HETATM   20  C20 UNL     1      15.803  15.951  34.074  1.00  0.00     0.037 A 
HETATM   21  C21 UNL     1      15.428  14.643  34.238  1.00  0.00     0.003 A 
HETATM   22  C22 UNL     1      14.100  14.272  34.254  1.00  0.00     0.000 A 
HETATM   23  C23 UNL     1      13.166  15.275  34.100  1.00  0.00     0.003 A 
HETATM   24  C24 UNL     1      13.538  16.591  33.935  1.00  0.00     0.037 A 
ENDBRANCH  18  19
ENDBRANCH  15  18
ENDBRANCH   9  12
ENDBRANCH   1   8
BRANCH   4  25
HETATM   25  C3  UNL     1       7.163  24.964  33.274  1.00  0.00     0.049 A 
HETATM   26  C4  UNL     1       6.828  25.220  34.592  1.00  0.00     0.030 A 
HETATM   27  C5  UNL     1       5.581  24.945  35.122  1.00  0.00     0.002 A 
HETATM   28  C6  UNL     1       4.621  24.394  34.314  1.00  0.00     0.000 A 
HETATM   29  C7  UNL     1       4.890  24.113  32.986  1.00  0.00     0.002 A 
HETATM   30  C8  UNL     1       6.136  24.401  32.507  1.00  0.00     0.030 A 
ENDBRANCH   4  25
BRANCH   6  31
HETATM   31  C9  UNL     1      11.585  25.932  32.870  1.00  0.00     0.049 A 
HETATM   32  C10 UNL     1      12.929  25.952  32.559  1.00  0.00     0.030 A 
HETATM   33  C11 UNL     1      13.706  26.969  33.061  1.00  0.00     0.002 A 
HETATM   34  C12 UNL     1      13.205  27.969  33.858  1.00  0.00     0.000 A 
HETATM   35  C13 UNL     1      11.843  27.956  34.178  1.00  0.00     0.002 A 
HETATM   36  C14 UNL     1      11.072  26.939  33.676  1.00  0.00     0.030 A 
ENDBRANCH   6  31
TORSDOF 6
ENDMDL
MODEL 5
REMARK VINA RESULT: -9.061809323      1.716      2.557
REMARK  6 active torsions:
REMARK  status: ('A' for Active; 'I' for Inactive)
REMARK       I    between atoms: C1_2  and  N1_3 
REMARK    1  A    between atoms: C1_2  and  C15_24 
REMARK    2  A    between atoms: N1_3  and  N2_5 
REMARK       I    between atoms: N2_5  and  C2_7 
REMARK       I    between atoms: C2_7  and  N4_16 
REMARK    3  A    between atoms: N3_8  and  C3_10 
REMARK    4  A    between atoms: N4_16  and  C9_18 
REMARK    5  A    between atoms: C18_27  and  O2_28 
REMARK    6  A    between atoms: O2_28  and  C19_29 
ROOT
HETATM    1  N2  UNL     1       9.465  23.553  33.849  1.00  0.00    -0.129 N 
ATOM      2  H2  UNL     1       8.767  23.553  34.593  1.00  0.00     0.205 HD
HETATM    3  C2  UNL     1       9.490  24.599  32.909  1.00  0.00     0.697 C 
HETATM    4  N3  UNL     1       8.433  25.231  32.606  1.00  0.00    -0.190 N 
ATOM      5  H3  UNL     1       8.505  25.982  31.919  1.00  0.00     0.184 HD
HETATM    6  N4  UNL     1      10.764  24.906  32.315  1.00  0.00    -0.190 N 
ATOM      7  H4  UNL     1      11.078  24.377  31.501  1.00  0.00     0.184 HD
ENDROOT
BRANCH   1   8
HETATM    8  N1  UNL     1      10.391  22.516  33.767  1.00  0.00    -0.251 N 
HETATM    9  C1  UNL     1      11.630  22.494  34.476  1.00  0.00     0.270 C 
HETATM   10  O1  UNL     1      11.886  23.490  35.233  1.00  0.00    -0.266 OA
ATOM     11  H1  UNL     1      10.170  21.724  33.164  1.00  0.00     0.191 HD
BRANCH   9  12
HETATM   12  C15 UNL     1      12.542  21.387  34.330  1.00  0.00     0.033 A 
HETATM   13  C16 UNL     1      12.266  20.167  34.891  1.00  0.00     0.020 A 
HETATM   14  C17 UNL     1      13.164  19.106  34.712  1.00  0.00     0.038 A 
HETATM   15  C18 UNL     1      14.308  19.259  33.988  1.00  0.00     0.076 A 
HETATM   16  C25 UNL     1      14.581  20.495  33.422  1.00  0.00     0.038 A 
HETATM   17  C26 UNL     1      13.706  21.537  33.596  1.00  0.00     0.020 A 
BRANCH  15  18
HETATM   18  O2  UNL     1      15.251  18.273  33.759  1.00  0.00    -0.311 OA
BRANCH  18  19
HETATM   19  C19 UNL     1      14.873  16.951  33.921  1.00  0.00     0.076 A 
HETATM   20  C20 UNL     1      13.549  16.564  33.929  1.00  0.00     0.037 A 
HETATM   21  C21 UNL     1      13.175  15.255  34.090  1.00  0.00     0.003 A 
HETATM   22  C22 UNL     1      14.109  14.254  34.254  1.00  0.00     0.000 A 
HETATM   23  C23 UNL     1      15.437  14.628  34.248  1.00  0.00     0.003 A 
HETATM   24  C24 UNL     1      15.819  15.941  34.087  1.00  0.00     0.037 A 
ENDBRANCH  18  19
ENDBRANCH  15  18
ENDBRANCH   9  12
ENDBRANCH   1   8
BRANCH   4  25
HETATM   25  C3  UNL     1       7.170  24.957  33.158  1.00  0.00     0.049 A 
HETATM   26  C4  UNL     1       6.100  24.425  32.460  1.00  0.00     0.030 A 
HETATM   27  C5  UNL     1       4.872  24.168  33.040  1.00  0.00     0.002 A 
HETATM   28  C6  UNL     1       4.692  24.448  34.370  1.00  0.00     0.000 A 
HETATM   29  C7  UNL     1       5.722  24.981  35.125  1.00  0.00     0.002 A 
HETATM   30  C8  UNL     1       6.916  25.219  34.509  1.00  0.00     0.030 A 
ENDBRANCH   4  25
BRANCH   6  31
HETATM   31  C9  UNL     1      11.596  25.938  32.841  1.00  0.00     0.049 A 
HETATM   32  C10 UNL     1      12.932  26.001  32.505  1.00  0.00     0.030 A 
HETATM   33  C11 UNL     1      13.698  27.014  33.029  1.00  0.00     0.002 A 
HETATM   34  C12 UNL     1      13.193  27.971  33.876  1.00  0.00     0.000 A 
HETATM   35  C13 UNL     1      11.838  27.915  34.223  1.00  0.00     0.002 A 
HETATM   36  C14 UNL     1      11.079  26.902  33.696  1.00  0.00     0.030 A 
ENDBRANCH   6  31
TORSDOF 6
ENDMDL
