MODEL 1
REMARK VINA RESULT: -12.473606788      0.000      0.000
REMARK  7 active torsions:
REMARK  status: ('A' for Active; 'I' for Inactive)
REMARK    1  A    between atoms: O1_1  and  C1_3 
REMARK    2  A    between atoms: C1_3  and  C2_4 
REMARK    3  A    between atoms: C1_3  and  N2_25 
REMARK    4  A    between atoms: C2_4  and  C3_5 
REMARK    5  A    between atoms: C6_8  and  N1_9 
REMARK       I    between atoms: N1_9  and  C7_11 
REMARK    6  A    between atoms: C7_11  and  C8_13 
REMARK    7  A    between atoms: N2_25  and  C20_27 
ROOT
HETATM    1  C3  UNL     1      13.521  25.485  33.519  1.00  0.00    -0.051 A 
HETATM    2  C4  UNL     1      13.732  24.826  32.344  1.00  0.00     0.010 A 
HETATM    3  C5  UNL     1      14.127  23.474  32.306  1.00  0.00     0.030 A 
HETATM    4  C6  UNL     1      14.310  22.781  33.465  1.00  0.00     0.035 A 
HETATM    5  C18 UNL     1      14.085  23.486  34.653  1.00  0.00     0.030 A 
HETATM    6  C19 UNL     1      13.699  24.805  34.693  1.00  0.00     0.010 A 
ENDROOT
BRANCH   1   7
HETATM    7  C2  UNL     1      13.105  26.909  33.557  1.00  0.00     0.123 C 
BRANCH   7   8
HETATM    8  C1  UNL     1      11.647  26.979  33.745  1.00  0.00     0.135 C 
BRANCH   8   9
HETATM    9  O1  UNL     1      11.230  27.553  34.845  1.00  0.00    -0.349 OA
ATOM     10  H1  UNL     1      10.296  27.516  35.011  1.00  0.00     0.219 HD
ENDBRANCH   8   9
BRANCH   8  11
HETATM   11  N2  UNL     1      10.632  26.521  32.919  1.00  0.00    -0.174 N 
ATOM     12  H2  UNL     1      10.804  26.552  31.914  1.00  0.00     0.186 HD
BRANCH  11  13
HETATM   13  C20 UNL     1       9.385  26.017  33.338  1.00  0.00     0.685 A 
HETATM   14  N3  UNL     1       8.422  25.530  32.485  1.00  0.00    -0.189 N 
HETATM   15  C21 UNL     1       7.341  25.119  33.151  1.00  0.00     0.076 A 
ATOM     16  H3  UNL     1       8.521  25.489  31.471  1.00  0.00     0.184 HD
HETATM   17  C22 UNL     1       6.128  24.564  32.768  1.00  0.00     0.032 A 
HETATM   18  C26 UNL     1       7.606  25.342  34.482  1.00  0.00     0.076 A 
HETATM   19  C23 UNL     1       5.193  24.236  33.706  1.00  0.00     0.002 A 
HETATM   20  C24 UNL     1       5.432  24.451  35.066  1.00  0.00     0.002 A 
HETATM   21  C25 UNL     1       6.646  25.003  35.410  1.00  0.00     0.032 A 
HETATM   22  N4  UNL     1       8.862  25.890  34.545  1.00  0.00    -0.189 N 
ATOM     23  H4  UNL     1       9.330  26.163  35.409  1.00  0.00     0.184 HD
ENDBRANCH  11  13
ENDBRANCH   8  11
ENDBRANCH   7   8
ENDBRANCH   1   7
BRANCH   4  24
HETATM   24  N1  UNL     1      14.675  21.434  33.541  1.00  0.00    -0.323 N 
HETATM   25  C7  UNL     1      13.860  20.403  33.977  1.00  0.00     0.256 C 
HETATM   26  O2  UNL     1      12.688  20.545  34.368  1.00  0.00    -0.267 OA
ATOM     27  H1  UNL     1      15.622  21.190  33.252  1.00  0.00     0.169 HD
BRANCH  25  28
HETATM   28  C8  UNL     1      14.368  19.008  34.000  1.00  0.00     0.033 A 
HETATM   29  C9  UNL     1      15.735  18.769  33.890  1.00  0.00     0.018 A 
HETATM   30  C10 UNL     1      16.237  17.486  33.914  1.00  0.00     0.013 A 
HETATM   31  C11 UNL     1      15.422  16.383  34.047  1.00  0.00    -0.026 A 
HETATM   32  C12 UNL     1      15.911  15.095  34.072  1.00  0.00     0.012 A 
HETATM   33  C16 UNL     1      14.070  16.609  34.157  1.00  0.00    -0.025 A 
HETATM   34  C13 UNL     1      15.036  14.030  34.209  1.00  0.00     0.001 A 
HETATM   35  C14 UNL     1      13.676  14.227  34.320  1.00  0.00     0.001 A 
HETATM   36  C15 UNL     1      13.212  15.522  34.293  1.00  0.00     0.012 A 
HETATM   37  C17 UNL     1      13.556  17.913  34.132  1.00  0.00     0.029 A 
ENDBRANCH  25  28
ENDBRANCH   4  24
TORSDOF 7
ENDMDL
MODEL 2
REMARK VINA RESULT: -12.342279132      0.113      1.000
REMARK  7 active torsions:
REMARK  status: ('A' for Active; 'I' for Inactive)
REMARK    1  A    between atoms: O1_1  and  C1_3 
REMARK    2  A    between atoms: C1_3  and  C2_4 
REMARK    3  A    between atoms: C1_3  and  N2_25 
REMARK    4  A    between atoms: C2_4  and  C3_5 
REMARK    5  A    between atoms: C6_8  and  N1_9 
REMARK       I    between atoms: N1_9  and  C7_11 
REMARK    6  A    between atoms: C7_11  and  C8_13 
REMARK    7  A    between atoms: N2_25  and  C20_27 
ROOT
HETATM    1  C3  UNL     1      13.559  25.469  33.547  1.00  0.00    -0.051 A 
HETATM    2  C4  UNL     1      13.763  24.805  32.373  1.00  0.00     0.010 A 
HETATM    3  C5  UNL     1      14.150  23.450  32.339  1.00  0.00     0.030 A 
HETATM    4  C6  UNL     1      14.332  22.760  33.500  1.00  0.00     0.035 A 
HETATM    5  C18 UNL     1      14.114  23.471  34.686  1.00  0.00     0.030 A 
HETATM    6  C19 UNL     1      13.736  24.792  34.722  1.00  0.00     0.010 A 
ENDROOT
BRANCH   1   7
HETATM    7  C2  UNL     1      13.150  26.895  33.582  1.00  0.00     0.123 C 
BRANCH   7   8
HETATM    8  C1  UNL     1      11.686  26.973  33.709  1.00  0.00     0.135 C 
BRANCH   8   9
HETATM    9  O1  UNL     1      11.227  27.512  34.811  1.00  0.00    -0.349 OA
ATOM     10  H1  UNL     1      10.697  26.952  35.365  1.00  0.00     0.219 HD
ENDBRANCH   8   9
BRANCH   8  11
HETATM   11  N2  UNL     1      10.704  26.556  32.825  1.00  0.00    -0.174 N 
ATOM     12  H2  UNL     1      10.915  26.633  31.830  1.00  0.00     0.186 HD
BRANCH  11  13
HETATM   13  C20 UNL     1       9.441  26.037  33.172  1.00  0.00     0.685 A 
HETATM   14  N3  UNL     1       8.990  25.899  34.463  1.00  0.00    -0.189 N 
HETATM   15  C21 UNL     1       7.761  25.380  34.500  1.00  0.00     0.076 A 
ATOM     16  H3  UNL     1       9.527  26.160  35.290  1.00  0.00     0.184 HD
HETATM   17  C22 UNL     1       6.885  25.052  35.526  1.00  0.00     0.032 A 
HETATM   18  C26 UNL     1       7.395  25.174  33.190  1.00  0.00     0.076 A 
HETATM   19  C23 UNL     1       5.659  24.523  35.242  1.00  0.00     0.002 A 
HETATM   20  C24 UNL     1       5.260  24.301  33.922  1.00  0.00     0.002 A 
HETATM   21  C25 UNL     1       6.153  24.639  32.931  1.00  0.00     0.032 A 
HETATM   22  N4  UNL     1       8.451  25.589  32.420  1.00  0.00    -0.189 N 
ATOM     23  H4  UNL     1       8.470  25.556  31.400  1.00  0.00     0.184 HD
ENDBRANCH  11  13
ENDBRANCH   8  11
ENDBRANCH   7   8
ENDBRANCH   1   7
BRANCH   4  24
HETATM   24  N1  UNL     1      14.690  21.412  33.579  1.00  0.00    -0.323 N 
HETATM   25  C7  UNL     1      13.856  20.380  33.976  1.00  0.00     0.256 C 
HETATM   26  O2  UNL     1      12.671  20.524  34.325  1.00  0.00    -0.267 OA
ATOM     27  H1  UNL     1      15.647  21.167  33.323  1.00  0.00     0.169 HD
BRANCH  25  28
HETATM   28  C8  UNL     1      14.359  18.983  34.008  1.00  0.00     0.033 A 
HETATM   29  C9  UNL     1      15.727  18.741  33.934  1.00  0.00     0.018 A 
HETATM   30  C10 UNL     1      16.224  17.455  33.967  1.00  0.00     0.013 A 
HETATM   31  C11 UNL     1      15.402  16.355  34.073  1.00  0.00    -0.026 A 
HETATM   32  C12 UNL     1      15.886  15.065  34.107  1.00  0.00     0.012 A 
HETATM   33  C16 UNL     1      14.048  16.585  34.147  1.00  0.00    -0.025 A 
HETATM   34  C13 UNL     1      15.004  14.002  34.215  1.00  0.00     0.001 A 
HETATM   35  C14 UNL     1      13.642  14.204  34.291  1.00  0.00     0.001 A 
HETATM   36  C15 UNL     1      13.183  15.500  34.256  1.00  0.00     0.012 A 
HETATM   37  C17 UNL     1      13.540  17.891  34.114  1.00  0.00     0.029 A 
ENDBRANCH  25  28
ENDBRANCH   4  24
TORSDOF 7
ENDMDL
MODEL 3
REMARK VINA RESULT: -11.989419754      0.828      1.077
REMARK  7 active torsions:
REMARK  status: ('A' for Active; 'I' for Inactive)
REMARK    1  A    between atoms: O1_1  and  C1_3 
REMARK    2  A    between atoms: C1_3  and  C2_4 
REMARK    3  A    between atoms: C1_3  and  N2_25 
REMARK    4  A    between atoms: C2_4  and  C3_5 
REMARK    5  A    between atoms: C6_8  and  N1_9 
REMARK       I    between atoms: N1_9  and  C7_11 
REMARK    6  A    between atoms: C7_11  and  C8_13 
REMARK    7  A    between atoms: N2_25  and  C20_27 
ROOT
HETATM    1  C3  UNL     1      12.653  25.312  33.433  1.00  0.00    -0.051 A 
HETATM    2  C4  UNL     1      13.772  25.039  34.166  1.00  0.00     0.010 A 
HETATM    3  C5  UNL     1      14.308  23.739  34.254  1.00  0.00     0.030 A 
HETATM    4  C6  UNL     1      13.710  22.705  33.596  1.00  0.00     0.035 A 
HETATM    5  C18 UNL     1      12.565  23.020  32.854  1.00  0.00     0.030 A 
HETATM    6  C19 UNL     1      12.040  24.287  32.767  1.00  0.00     0.010 A 
ENDROOT
BRANCH   1   7
HETATM    7  C2  UNL     1      12.091  26.682  33.341  1.00  0.00     0.123 C 
BRANCH   7   8
HETATM    8  C1  UNL     1      10.758  26.698  33.964  1.00  0.00     0.135 C 
BRANCH   8   9
HETATM    9  O1  UNL     1      10.709  26.394  35.237  1.00  0.00    -0.349 OA
ATOM     10  H1  UNL     1      11.488  25.994  35.605  1.00  0.00     0.219 HD
ENDBRANCH   8   9
BRANCH   8  11
HETATM   11  N2  UNL     1       9.527  26.991  33.399  1.00  0.00    -0.174 N 
ATOM     12  H2  UNL     1       9.483  27.803  32.783  1.00  0.00     0.186 HD
BRANCH  11  13
HETATM   13  C20 UNL     1       8.331  26.272  33.594  1.00  0.00     0.685 A 
HETATM   14  N3  UNL     1       7.556  25.768  32.576  1.00  0.00    -0.189 N 
HETATM   15  C21 UNL     1       6.482  25.132  33.047  1.00  0.00     0.076 A 
ATOM     16  H3  UNL     1       7.775  25.869  31.585  1.00  0.00     0.184 HD
HETATM   17  C22 UNL     1       5.418  24.468  32.451  1.00  0.00     0.032 A 
HETATM   18  C26 UNL     1       6.557  25.221  34.418  1.00  0.00     0.076 A 
HETATM   19  C23 UNL     1       4.443  23.900  33.219  1.00  0.00     0.002 A 
HETATM   20  C24 UNL     1       4.491  23.974  34.613  1.00  0.00     0.002 A 
HETATM   21  C25 UNL     1       5.560  24.640  35.170  1.00  0.00     0.032 A 
HETATM   22  N4  UNL     1       7.700  25.924  34.702  1.00  0.00    -0.189 N 
ATOM     23  H4  UNL     1       8.020  26.148  35.644  1.00  0.00     0.184 HD
ENDBRANCH  11  13
ENDBRANCH   8  11
ENDBRANCH   7   8
ENDBRANCH   1   7
BRANCH   4  24
HETATM   24  N1  UNL     1      14.171  21.386  33.596  1.00  0.00    -0.323 N 
HETATM   25  C7  UNL     1      13.601  20.335  34.296  1.00  0.00     0.256 C 
HETATM   26  O2  UNL     1      12.601  20.433  35.029  1.00  0.00    -0.267 OA
ATOM     27  H1  UNL     1      14.995  21.180  33.033  1.00  0.00     0.169 HD
BRANCH  25  28
HETATM   28  C8  UNL     1      14.185  18.973  34.202  1.00  0.00     0.033 A 
HETATM   29  C9  UNL     1      15.555  18.820  34.016  1.00  0.00     0.018 A 
HETATM   30  C10 UNL     1      16.126  17.568  33.932  1.00  0.00     0.013 A 
HETATM   31  C11 UNL     1      15.379  16.414  34.025  1.00  0.00    -0.026 A 
HETATM   32  C12 UNL     1      15.938  15.157  33.942  1.00  0.00     0.012 A 
HETATM   33  C16 UNL     1      14.024  16.556  34.210  1.00  0.00    -0.025 A 
HETATM   34  C13 UNL     1      15.129  14.037  34.044  1.00  0.00     0.001 A 
HETATM   35  C14 UNL     1      13.767  14.150  34.229  1.00  0.00     0.001 A 
HETATM   36  C15 UNL     1      13.233  15.415  34.310  1.00  0.00     0.012 A 
HETATM   37  C17 UNL     1      13.440  17.827  34.296  1.00  0.00     0.029 A 
ENDBRANCH  25  28
ENDBRANCH   4  24
TORSDOF 7
ENDMDL
MODEL 4
REMARK VINA RESULT: -11.963099500      0.726      1.440
REMARK  7 active torsions:
REMARK  status: ('A' for Active; 'I' for Inactive)
REMARK    1  A    between atoms: O1_1  and  C1_3 
REMARK    2  A    between atoms: C1_3  and  C2_4 
REMARK    3  A    between atoms: C1_3  and  N2_25 
REMARK    4  A    between atoms: C2_4  and  C3_5 
REMARK    5  A    between atoms: C6_8  and  N1_9 
REMARK       I    between atoms: N1_9  and  C7_11 
REMARK    6  A    between atoms: C7_11  and  C8_13 
REMARK    7  A    between atoms: N2_25  and  C20_27 
ROOT
HETATM    1  C3  UNL     1      12.773  25.385  33.666  1.00  0.00    -0.051 A 
HETATM    2  C4  UNL     1      13.681  25.019  34.617  1.00  0.00     0.010 A 
HETATM    3  C5  UNL     1      14.193  23.709  34.696  1.00  0.00     0.030 A 
HETATM    4  C6  UNL     1      13.784  22.759  33.807  1.00  0.00     0.035 A 
HETATM    5  C18 UNL     1      12.853  23.168  32.846  1.00  0.00     0.030 A 
HETATM    6  C19 UNL     1      12.353  24.445  32.766  1.00  0.00     0.010 A 
ENDROOT
BRANCH   1   7
HETATM    7  C2  UNL     1      12.237  26.766  33.584  1.00  0.00     0.123 C 
BRANCH   7   8
HETATM    8  C1  UNL     1      10.862  26.780  34.107  1.00  0.00     0.135 C 
BRANCH   8   9
HETATM    9  O1  UNL     1      10.717  26.452  35.367  1.00  0.00    -0.349 OA
ATOM     10  H1  UNL     1       9.837  26.516  35.720  1.00  0.00     0.219 HD
ENDBRANCH   8   9
BRANCH   8  11
HETATM   11  N2  UNL     1       9.678  27.094  33.458  1.00  0.00    -0.174 N 
ATOM     12  H2  UNL     1       9.670  27.944  32.897  1.00  0.00     0.186 HD
BRANCH  11  13
HETATM   13  C20 UNL     1       8.484  26.346  33.502  1.00  0.00     0.685 A 
HETATM   14  N3  UNL     1       7.840  25.984  34.663  1.00  0.00    -0.189 N 
HETATM   15  C21 UNL     1       6.735  25.281  34.410  1.00  0.00     0.076 A 
ATOM     16  H3  UNL     1       8.167  26.224  35.599  1.00  0.00     0.184 HD
HETATM   17  C22 UNL     1       5.762  24.699  35.211  1.00  0.00     0.032 A 
HETATM   18  C26 UNL     1       6.651  25.181  33.041  1.00  0.00     0.076 A 
HETATM   19  C23 UNL     1       4.718  24.024  34.646  1.00  0.00     0.002 A 
HETATM   20  C24 UNL     1       4.606  23.905  33.258  1.00  0.00     0.002 A 
HETATM   21  C25 UNL     1       5.589  24.495  32.496  1.00  0.00     0.032 A 
HETATM   22  N4  UNL     1       7.739  25.844  32.533  1.00  0.00    -0.189 N 
ATOM     23  H4  UNL     1       7.944  25.938  31.539  1.00  0.00     0.184 HD
ENDBRANCH  11  13
ENDBRANCH   8  11
ENDBRANCH   7   8
ENDBRANCH   1   7
BRANCH   4  24
HETATM   24  N1  UNL     1      14.244  21.440  33.781  1.00  0.00    -0.323 N 
HETATM   25  C7  UNL     1      13.574  20.344  34.298  1.00  0.00     0.256 C 
HETATM   26  O2  UNL     1      12.468  20.395  34.866  1.00  0.00    -0.267 OA
ATOM     27  H1  UNL     1      15.150  21.270  33.344  1.00  0.00     0.169 HD
BRANCH  25  28
HETATM   28  C8  UNL     1      14.170  18.988  34.197  1.00  0.00     0.033 A 
HETATM   29  C9  UNL     1      15.536  18.849  33.973  1.00  0.00     0.018 A 
HETATM   30  C10 UNL     1      16.119  17.604  33.880  1.00  0.00     0.013 A 
HETATM   31  C11 UNL     1      15.389  16.442  34.001  1.00  0.00    -0.026 A 
HETATM   32  C12 UNL     1      15.959  15.191  33.910  1.00  0.00     0.012 A 
HETATM   33  C16 UNL     1      14.037  16.569  34.222  1.00  0.00    -0.025 A 
HETATM   34  C13 UNL     1      15.166  14.063  34.041  1.00  0.00     0.001 A 
HETATM   35  C14 UNL     1      13.808  14.160  34.263  1.00  0.00     0.001 A 
HETATM   36  C15 UNL     1      13.262  15.420  34.351  1.00  0.00     0.012 A 
HETATM   37  C17 UNL     1      13.441  17.834  34.318  1.00  0.00     0.029 A 
ENDBRANCH  25  28
ENDBRANCH   4  24
TORSDOF 7
ENDMDL
MODEL 5
REMARK VINA RESULT: -11.935850104      1.337      2.162
REMARK  7 active torsions:
REMARK  status: ('A' for Active; 'I' for Inactive)
REMARK    1  A    between atoms: O1_1  and  C1_3 
REMARK    2  A    between atoms: C1_3  and  C2_4 
REMARK    3  A    between atoms: C1_3  and  N2_25 
REMARK    4  A    between atoms: C2_4  and  C3_5 
REMARK    5  A    between atoms: C6_8  and  N1_9 
REMARK       I    between atoms: N1_9  and  C7_11 
REMARK    6  A    between atoms: C7_11  and  C8_13 
REMARK    7  A    between atoms: N2_25  and  C20_27 
ROOT
HETATM    1  C3  UNL     1      11.735  26.745  34.772  1.00  0.00    -0.051 A 
HETATM    2  C4  UNL     1      12.633  26.591  33.756  1.00  0.00     0.010 A 
HETATM    3  C5  UNL     1      13.322  25.381  33.546  1.00  0.00     0.030 A 
HETATM    4  C6  UNL     1      13.104  24.316  34.369  1.00  0.00     0.035 A 
HETATM    5  C18 UNL     1      12.177  24.508  35.401  1.00  0.00     0.030 A 
HETATM    6  C19 UNL     1      11.503  25.688  35.607  1.00  0.00     0.010 A 
ENDROOT
BRANCH   1   7
HETATM    7  C2  UNL     1      11.009  28.021  34.991  1.00  0.00     0.123 C 
BRANCH   7   8
HETATM    8  C1  UNL     1       9.596  27.840  34.624  1.00  0.00     0.135 C 
BRANCH   8   9
HETATM    9  O1  UNL     1       8.713  28.365  35.435  1.00  0.00    -0.349 OA
ATOM     10  H1  UNL     1       7.803  28.156  35.260  1.00  0.00     0.219 HD
ENDBRANCH   8   9
BRANCH   8  11
HETATM   11  N2  UNL     1       9.050  27.186  33.530  1.00  0.00    -0.174 N 
ATOM     12  H2  UNL     1       9.522  27.309  32.635  1.00  0.00     0.186 HD
BRANCH  11  13
HETATM   13  C20 UNL     1       7.903  26.368  33.540  1.00  0.00     0.685 A 
HETATM   14  N3  UNL     1       7.298  25.898  34.682  1.00  0.00    -0.189 N 
HETATM   15  C21 UNL     1       6.232  25.147  34.398  1.00  0.00     0.076 A 
ATOM     16  H3  UNL     1       7.623  26.098  35.628  1.00  0.00     0.184 HD
HETATM   17  C22 UNL     1       5.306  24.460  35.171  1.00  0.00     0.032 A 
HETATM   18  C26 UNL     1       6.135  25.126  33.026  1.00  0.00     0.076 A 
HETATM   19  C23 UNL     1       4.295  23.761  34.576  1.00  0.00     0.002 A 
HETATM   20  C24 UNL     1       4.171  23.721  33.185  1.00  0.00     0.002 A 
HETATM   21  C25 UNL     1       5.107  24.414  32.451  1.00  0.00     0.032 A 
HETATM   22  N4  UNL     1       7.174  25.884  32.550  1.00  0.00    -0.189 N 
ATOM     23  H4  UNL     1       7.360  26.051  31.560  1.00  0.00     0.184 HD
ENDBRANCH  11  13
ENDBRANCH   8  11
ENDBRANCH   7   8
ENDBRANCH   1   7
BRANCH   4  24
HETATM   24  N1  UNL     1      13.713  23.066  34.236  1.00  0.00    -0.323 N 
HETATM   25  C7  UNL     1      13.050  21.856  34.115  1.00  0.00     0.256 C 
HETATM   26  O2  UNL     1      11.813  21.725  34.117  1.00  0.00    -0.267 OA
ATOM     27  H1  UNL     1      14.733  23.042  34.227  1.00  0.00     0.169 HD
BRANCH  25  28
HETATM   28  C8  UNL     1      13.819  20.594  33.970  1.00  0.00     0.033 A 
HETATM   29  C9  UNL     1      15.062  20.611  33.346  1.00  0.00     0.018 A 
HETATM   30  C10 UNL     1      15.802  19.457  33.202  1.00  0.00     0.013 A 
HETATM   31  C11 UNL     1      15.354  18.238  33.661  1.00  0.00    -0.026 A 
HETATM   32  C12 UNL     1      16.083  17.077  33.523  1.00  0.00     0.012 A 
HETATM   33  C16 UNL     1      14.126  18.212  34.280  1.00  0.00    -0.025 A 
HETATM   34  C13 UNL     1      15.574  15.884  34.009  1.00  0.00     0.001 A 
HETATM   35  C14 UNL     1      14.345  15.828  34.633  1.00  0.00     0.001 A 
HETATM   36  C15 UNL     1      13.637  17.000  34.760  1.00  0.00     0.012 A 
HETATM   37  C17 UNL     1      13.372  19.384  34.428  1.00  0.00     0.029 A 
ENDBRANCH  25  28
ENDBRANCH   4  24
TORSDOF 7
ENDMDL
