MODEL 1
REMARK VINA RESULT: -9.639268015      0.000      0.000
REMARK  5 active torsions:
REMARK  status: ('A' for Active; 'I' for Inactive)
REMARK    1  A    between atoms: C9_10  and  N2_11 
REMARK       I    between atoms: N2_11  and  C10_13 
REMARK    2  A    between atoms: C10_13  and  C11_15 
REMARK    3  A    between atoms: C14_18  and  N3_19 
REMARK       I    between atoms: N3_19  and  C15_21 
REMARK       I    between atoms: C15_21  and  N4_23 
REMARK    4  A    between atoms: N4_23  and  C16_25 
REMARK    5  A    between atoms: C16_25  and  C17_26 
ROOT
HETATM    1  N1  UNL     1       4.320  22.772  34.190  1.00  0.00    -0.191 NA
HETATM    2  C1  UNL     1       4.577  23.800  33.700  1.00  0.00     0.100 C 
HETATM    3  C2  UNL     1       4.884  25.061  33.074  1.00  0.00     0.055 A 
HETATM    4  C3  UNL     1       3.885  25.964  32.795  1.00  0.00     0.023 A 
HETATM    5  C4  UNL     1       4.126  27.198  32.190  1.00  0.00     0.002 A 
HETATM    6  C5  UNL     1       5.428  27.505  31.867  1.00  0.00     0.012 A 
HETATM    7  C6  UNL     1       6.447  26.619  32.136  1.00  0.00    -0.024 A 
HETATM    8  C7  UNL     1       7.750  26.920  31.815  1.00  0.00     0.014 A 
HETATM    9  C8  UNL     1       8.787  26.025  32.085  1.00  0.00     0.030 A 
HETATM   10  C9  UNL     1       8.559  24.821  32.674  1.00  0.00     0.035 A 
HETATM   11  C25 UNL     1       7.222  24.534  32.993  1.00  0.00     0.043 A 
HETATM   12  C26 UNL     1       6.192  25.398  32.736  1.00  0.00    -0.003 A 
ENDROOT
BRANCH  10  13
HETATM   13  N2  UNL     1       9.526  23.862  33.008  1.00  0.00    -0.323 N 
HETATM   14  C10 UNL     1      10.860  24.116  33.374  1.00  0.00     0.256 C 
HETATM   15  O1  UNL     1      11.320  25.281  33.444  1.00  0.00    -0.267 OA
ATOM     16  H2  UNL     1       9.234  22.885  32.983  1.00  0.00     0.169 HD
BRANCH  14  17
HETATM   17  C11 UNL     1      11.806  23.044  33.699  1.00  0.00     0.032 A 
HETATM   18  C12 UNL     1      13.141  23.141  33.397  1.00  0.00     0.019 A 
HETATM   19  C13 UNL     1      14.021  22.097  33.711  1.00  0.00     0.030 A 
HETATM   20  C14 UNL     1      13.603  20.949  34.324  1.00  0.00     0.036 A 
HETATM   21  C23 UNL     1      12.241  20.886  34.615  1.00  0.00     0.030 A 
HETATM   22  C24 UNL     1      11.361  21.914  34.308  1.00  0.00     0.019 A 
BRANCH  20  23
HETATM   23  N3  UNL     1      14.406  19.848  34.698  1.00  0.00    -0.309 N 
HETATM   24  C15 UNL     1      14.786  18.751  33.895  1.00  0.00     0.320 C 
HETATM   25  O2  UNL     1      14.439  18.637  32.706  1.00  0.00    -0.247 OA
HETATM   26  N4  UNL     1      15.590  17.735  34.444  1.00  0.00    -0.339 N 
ATOM     27  H4  UNL     1      15.887  17.807  35.417  1.00  0.00     0.164 HD
ATOM     28  H3  UNL     1      14.750  19.846  35.657  1.00  0.00     0.170 HD
BRANCH  26  29
HETATM   29  C16 UNL     1      16.003  16.597  33.670  1.00  0.00     0.162 C 
BRANCH  29  30
HETATM   30  C17 UNL     1      15.227  15.408  34.099  1.00  0.00    -0.040 A 
HETATM   31  C18 UNL     1      15.898  14.193  34.278  1.00  0.00     0.009 A 
HETATM   32  C19 UNL     1      15.251  13.044  34.672  1.00  0.00     0.001 A 
HETATM   33  C20 UNL     1      13.893  13.051  34.908  1.00  0.00     0.000 A 
HETATM   34  C21 UNL     1      13.207  14.234  34.740  1.00  0.00     0.001 A 
HETATM   35  C22 UNL     1      13.872  15.400  34.339  1.00  0.00     0.009 A 
ENDBRANCH  29  30
ENDBRANCH  26  29
ENDBRANCH  20  23
ENDBRANCH  14  17
ENDBRANCH  10  13
TORSDOF 5
ENDMDL
MODEL 2
REMARK VINA RESULT: -8.904159426      1.086      1.250
REMARK  5 active torsions:
REMARK  status: ('A' for Active; 'I' for Inactive)
REMARK    1  A    between atoms: C9_10  and  N2_11 
REMARK       I    between atoms: N2_11  and  C10_13 
REMARK    2  A    between atoms: C10_13  and  C11_15 
REMARK    3  A    between atoms: C14_18  and  N3_19 
REMARK       I    between atoms: N3_19  and  C15_21 
REMARK       I    between atoms: C15_21  and  N4_23 
REMARK    4  A    between atoms: N4_23  and  C16_25 
REMARK    5  A    between atoms: C16_25  and  C17_26 
ROOT
HETATM    1  N1  UNL     1       4.219  22.179  34.294  1.00  0.00    -0.191 NA
HETATM    2  C1  UNL     1       4.254  23.281  33.913  1.00  0.00     0.100 C 
HETATM    3  C2  UNL     1       4.285  24.635  33.422  1.00  0.00     0.055 A 
HETATM    4  C3  UNL     1       3.141  25.399  33.406  1.00  0.00     0.023 A 
HETATM    5  C4  UNL     1       3.114  26.715  32.940  1.00  0.00     0.002 A 
HETATM    6  C5  UNL     1       4.295  27.251  32.482  1.00  0.00     0.012 A 
HETATM    7  C6  UNL     1       5.454  26.508  32.487  1.00  0.00    -0.024 A 
HETATM    8  C7  UNL     1       6.638  27.040  32.030  1.00  0.00     0.014 A 
HETATM    9  C8  UNL     1       7.816  26.290  32.032  1.00  0.00     0.030 A 
HETATM   10  C9  UNL     1       7.849  25.009  32.484  1.00  0.00     0.035 A 
HETATM   11  C25 UNL     1       6.631  24.486  32.946  1.00  0.00     0.043 A 
HETATM   12  C26 UNL     1       5.466  25.205  32.951  1.00  0.00    -0.003 A 
ENDROOT
BRANCH  10  13
HETATM   13  N2  UNL     1       8.979  24.179  32.551  1.00  0.00    -0.323 N 
HETATM   14  C10 UNL     1      10.220  24.506  33.125  1.00  0.00     0.256 C 
HETATM   15  O1  UNL     1      10.433  25.621  33.661  1.00  0.00    -0.267 OA
ATOM     16  H2  UNL     1       8.891  23.248  32.143  1.00  0.00     0.169 HD
BRANCH  14  17
HETATM   17  C11 UNL     1      11.351  23.574  33.140  1.00  0.00     0.032 A 
HETATM   18  C12 UNL     1      12.464  23.775  32.365  1.00  0.00     0.019 A 
HETATM   19  C13 UNL     1      13.527  22.862  32.392  1.00  0.00     0.030 A 
HETATM   20  C14 UNL     1      13.510  21.744  33.179  1.00  0.00     0.036 A 
HETATM   21  C23 UNL     1      12.362  21.573  33.952  1.00  0.00     0.030 A 
HETATM   22  C24 UNL     1      11.305  22.470  33.932  1.00  0.00     0.019 A 
BRANCH  20  23
HETATM   23  N3  UNL     1      14.530  20.773  33.293  1.00  0.00    -0.309 N 
HETATM   24  C15 UNL     1      14.642  19.756  34.264  1.00  0.00     0.320 C 
HETATM   25  O2  UNL     1      13.802  19.594  35.168  1.00  0.00    -0.247 OA
HETATM   26  N4  UNL     1      15.740  18.877  34.226  1.00  0.00    -0.339 N 
ATOM     27  H4  UNL     1      16.441  18.989  33.493  1.00  0.00     0.164 HD
ATOM     28  H3  UNL     1      15.271  20.813  32.593  1.00  0.00     0.170 HD
BRANCH  26  29
HETATM   29  C16 UNL     1      15.901  17.826  35.192  1.00  0.00     0.162 C 
BRANCH  29  30
HETATM   30  C17 UNL     1      15.149  16.629  34.740  1.00  0.00    -0.040 A 
HETATM   31  C18 UNL     1      15.861  15.471  34.406  1.00  0.00     0.009 A 
HETATM   32  C19 UNL     1      15.239  14.321  33.976  1.00  0.00     0.001 A 
HETATM   33  C20 UNL     1      13.866  14.271  33.856  1.00  0.00     0.000 A 
HETATM   34  C21 UNL     1      13.141  15.398  34.178  1.00  0.00     0.001 A 
HETATM   35  C22 UNL     1      13.781  16.564  34.616  1.00  0.00     0.009 A 
ENDBRANCH  29  30
ENDBRANCH  26  29
ENDBRANCH  20  23
ENDBRANCH  14  17
ENDBRANCH  10  13
TORSDOF 5
ENDMDL
MODEL 3
REMARK VINA RESULT: -8.450602763      1.694     11.325
REMARK  5 active torsions:
REMARK  status: ('A' for Active; 'I' for Inactive)
REMARK    1  A    between atoms: C9_10  and  N2_11 
REMARK       I    between atoms: N2_11  and  C10_13 
REMARK    2  A    between atoms: C10_13  and  C11_15 
REMARK    3  A    between atoms: C14_18  and  N3_19 
REMARK       I    between atoms: N3_19  and  C15_21 
REMARK       I    between atoms: C15_21  and  N4_23 
REMARK    4  A    between atoms: N4_23  and  C16_25 
REMARK    5  A    between atoms: C16_25  and  C17_26 
ROOT
HETATM    1  N1  UNL     1      11.162  14.114  36.128  1.00  0.00    -0.191 NA
HETATM    2  C1  UNL     1      12.227  14.010  35.663  1.00  0.00     0.100 C 
HETATM    3  C2  UNL     1      13.551  13.880  35.111  1.00  0.00     0.055 A 
HETATM    4  C3  UNL     1      14.173  12.653  35.070  1.00  0.00     0.023 A 
HETATM    5  C4  UNL     1      15.454  12.469  34.547  1.00  0.00     0.002 A 
HETATM    6  C5  UNL     1      16.106  13.577  34.057  1.00  0.00     0.012 A 
HETATM    7  C6  UNL     1      15.506  14.816  34.087  1.00  0.00    -0.024 A 
HETATM    8  C7  UNL     1      16.153  15.927  33.598  1.00  0.00     0.014 A 
HETATM    9  C8  UNL     1      15.550  17.186  33.625  1.00  0.00     0.030 A 
HETATM   10  C9  UNL     1      14.303  17.372  34.133  1.00  0.00     0.035 A 
HETATM   11  C25 UNL     1      13.660  16.225  34.626  1.00  0.00     0.043 A 
HETATM   12  C26 UNL     1      14.235  14.983  34.608  1.00  0.00    -0.003 A 
ENDROOT
BRANCH  10  13
HETATM   13  N2  UNL     1      13.599  18.585  34.188  1.00  0.00    -0.323 N 
HETATM   14  C10 UNL     1      14.145  19.872  34.037  1.00  0.00     0.256 C 
HETATM   15  O1  UNL     1      15.367  20.056  33.823  1.00  0.00    -0.267 OA
ATOM     16  H2  UNL     1      12.594  18.527  34.354  1.00  0.00     0.169 HD
BRANCH  14  17
HETATM   17  C11 UNL     1      13.329  21.087  34.120  1.00  0.00     0.032 A 
HETATM   18  C12 UNL     1      13.836  22.321  33.800  1.00  0.00     0.019 A 
HETATM   19  C13 UNL     1      13.036  23.468  33.897  1.00  0.00     0.030 A 
HETATM   20  C14 UNL     1      11.733  23.417  34.307  1.00  0.00     0.036 A 
HETATM   21  C23 UNL     1      11.253  22.147  34.623  1.00  0.00     0.030 A 
HETATM   22  C24 UNL     1      12.036  21.006  34.532  1.00  0.00     0.019 A 
BRANCH  20  23
HETATM   23  N3  UNL     1      10.838  24.505  34.423  1.00  0.00    -0.309 N 
HETATM   24  C15 UNL     1       9.757  24.822  33.573  1.00  0.00     0.320 C 
HETATM   25  O2  UNL     1       9.458  24.133  32.581  1.00  0.00    -0.247 OA
HETATM   26  N4  UNL     1       8.973  25.959  33.842  1.00  0.00    -0.339 N 
ATOM     27  H4  UNL     1       9.199  26.538  34.651  1.00  0.00     0.164 HD
ATOM     28  H3  UNL     1      10.992  25.133  35.212  1.00  0.00     0.170 HD
BRANCH  26  29
HETATM   29  C16 UNL     1       7.863  26.326  33.008  1.00  0.00     0.162 C 
BRANCH  29  30
HETATM   30  C17 UNL     1       6.676  25.523  33.393  1.00  0.00    -0.040 A 
HETATM   31  C18 UNL     1       5.912  24.921  32.388  1.00  0.00     0.009 A 
HETATM   32  C19 UNL     1       4.796  24.164  32.662  1.00  0.00     0.001 A 
HETATM   33  C20 UNL     1       4.385  23.970  33.964  1.00  0.00     0.000 A 
HETATM   34  C21 UNL     1       5.120  24.552  34.974  1.00  0.00     0.001 A 
HETATM   35  C22 UNL     1       6.254  25.320  34.687  1.00  0.00     0.009 A 
ENDBRANCH  29  30
ENDBRANCH  26  29
ENDBRANCH  20  23
ENDBRANCH  14  17
ENDBRANCH  10  13
TORSDOF 5
ENDMDL
MODEL 4
REMARK VINA RESULT: -8.419802145      3.037      3.945
REMARK  5 active torsions:
REMARK  status: ('A' for Active; 'I' for Inactive)
REMARK    1  A    between atoms: C9_10  and  N2_11 
REMARK       I    between atoms: N2_11  and  C10_13 
REMARK    2  A    between atoms: C10_13  and  C11_15 
REMARK    3  A    between atoms: C14_18  and  N3_19 
REMARK       I    between atoms: N3_19  and  C15_21 
REMARK       I    between atoms: C15_21  and  N4_23 
REMARK    4  A    between atoms: N4_23  and  C16_25 
REMARK    5  A    between atoms: C16_25  and  C17_26 
ROOT
HETATM    1  N1  UNL     1       7.848  25.167  35.589  1.00  0.00    -0.191 NA
HETATM    2  C1  UNL     1       8.586  26.048  35.387  1.00  0.00     0.100 C 
HETATM    3  C2  UNL     1       9.485  27.141  35.117  1.00  0.00     0.055 A 
HETATM    4  C3  UNL     1       9.104  28.438  35.375  1.00  0.00     0.023 A 
HETATM    5  C4  UNL     1       9.933  29.534  35.132  1.00  0.00     0.002 A 
HETATM    6  C5  UNL     1      11.182  29.284  34.612  1.00  0.00     0.012 A 
HETATM    7  C6  UNL     1      11.588  27.996  34.345  1.00  0.00    -0.024 A 
HETATM    8  C7  UNL     1      12.836  27.739  33.826  1.00  0.00     0.014 A 
HETATM    9  C8  UNL     1      13.252  26.435  33.554  1.00  0.00     0.030 A 
HETATM   10  C9  UNL     1      12.450  25.363  33.787  1.00  0.00     0.035 A 
HETATM   11  C25 UNL     1      11.181  25.647  34.317  1.00  0.00     0.043 A 
HETATM   12  C26 UNL     1      10.755  26.918  34.591  1.00  0.00    -0.003 A 
ENDROOT
BRANCH  10  13
HETATM   13  N2  UNL     1      12.777  24.016  33.571  1.00  0.00    -0.323 N 
HETATM   14  C10 UNL     1      13.822  23.303  34.185  1.00  0.00     0.256 C 
HETATM   15  O1  UNL     1      14.585  23.835  35.027  1.00  0.00    -0.267 OA
ATOM     16  H2  UNL     1      12.200  23.504  32.903  1.00  0.00     0.169 HD
BRANCH  14  17
HETATM   17  C11 UNL     1      14.095  21.894  33.889  1.00  0.00     0.032 A 
HETATM   18  C12 UNL     1      15.003  21.520  32.931  1.00  0.00     0.019 A 
HETATM   19  C13 UNL     1      15.238  20.164  32.662  1.00  0.00     0.030 A 
HETATM   20  C14 UNL     1      14.587  19.164  33.328  1.00  0.00     0.036 A 
HETATM   21  C23 UNL     1      13.671  19.583  34.292  1.00  0.00     0.030 A 
HETATM   22  C24 UNL     1      13.431  20.921  34.566  1.00  0.00     0.019 A 
BRANCH  20  23
HETATM   23  N3  UNL     1      14.760  17.773  33.146  1.00  0.00    -0.309 N 
HETATM   24  C15 UNL     1      15.305  16.849  34.063  1.00  0.00     0.320 C 
HETATM   25  O2  UNL     1      15.707  17.181  35.193  1.00  0.00    -0.247 OA
HETATM   26  N4  UNL     1      15.407  15.492  33.703  1.00  0.00    -0.339 N 
ATOM     27  H4  UNL     1      15.083  15.197  32.782  1.00  0.00     0.164 HD
ATOM     28  H3  UNL     1      14.455  17.394  32.250  1.00  0.00     0.170 HD
BRANCH  26  29
HETATM   29  C16 UNL     1      15.957  14.513  34.599  1.00  0.00     0.162 C 
BRANCH  29  30
HETATM   30  C17 UNL     1      15.188  13.250  34.471  1.00  0.00    -0.040 A 
HETATM   31  C18 UNL     1      14.521  12.750  35.594  1.00  0.00     0.009 A 
HETATM   32  C19 UNL     1      13.790  11.584  35.560  1.00  0.00     0.001 A 
HETATM   33  C20 UNL     1      13.688  10.856  34.393  1.00  0.00     0.000 A 
HETATM   34  C21 UNL     1      14.335  11.327  33.272  1.00  0.00     0.001 A 
HETATM   35  C22 UNL     1      15.077  12.514  33.314  1.00  0.00     0.009 A 
ENDBRANCH  29  30
ENDBRANCH  26  29
ENDBRANCH  20  23
ENDBRANCH  14  17
ENDBRANCH  10  13
TORSDOF 5
ENDMDL
MODEL 5
REMARK VINA RESULT: -8.306077781      1.620      2.447
REMARK  5 active torsions:
REMARK  status: ('A' for Active; 'I' for Inactive)
REMARK    1  A    between atoms: C9_10  and  N2_11 
REMARK       I    between atoms: N2_11  and  C10_13 
REMARK    2  A    between atoms: C10_13  and  C11_15 
REMARK    3  A    between atoms: C14_18  and  N3_19 
REMARK       I    between atoms: N3_19  and  C15_21 
REMARK       I    between atoms: C15_21  and  N4_23 
REMARK    4  A    between atoms: N4_23  and  C16_25 
REMARK    5  A    between atoms: C16_25  and  C17_26 
ROOT
HETATM    1  N1  UNL     1       4.192  22.099  34.688  1.00  0.00    -0.191 NA
HETATM    2  C1  UNL     1       4.046  23.186  34.287  1.00  0.00     0.100 C 
HETATM    3  C2  UNL     1       3.853  24.518  33.774  1.00  0.00     0.055 A 
HETATM    4  C3  UNL     1       2.626  25.133  33.872  1.00  0.00     0.023 A 
HETATM    5  C4  UNL     1       2.384  26.421  33.392  1.00  0.00     0.002 A 
HETATM    6  C5  UNL     1       3.431  27.086  32.798  1.00  0.00     0.012 A 
HETATM    7  C6  UNL     1       4.669  26.493  32.687  1.00  0.00    -0.024 A 
HETATM    8  C7  UNL     1       5.720  27.153  32.094  1.00  0.00     0.014 A 
HETATM    9  C8  UNL     1       6.977  26.556  31.979  1.00  0.00     0.030 A 
HETATM   10  C9  UNL     1       7.219  25.303  32.445  1.00  0.00     0.035 A 
HETATM   11  C25 UNL     1       6.134  24.647  33.046  1.00  0.00     0.043 A 
HETATM   12  C26 UNL     1       4.895  25.215  33.168  1.00  0.00    -0.003 A 
ENDROOT
BRANCH  10  13
HETATM   13  N2  UNL     1       8.446  24.621  32.400  1.00  0.00    -0.323 N 
HETATM   14  C10 UNL     1       9.724  25.199  32.501  1.00  0.00     0.256 C 
HETATM   15  O1  UNL     1       9.886  26.434  32.655  1.00  0.00    -0.267 OA
ATOM     16  H2  UNL     1       8.406  23.609  32.282  1.00  0.00     0.169 HD
BRANCH  14  17
HETATM   17  C11 UNL     1      10.954  24.405  32.433  1.00  0.00     0.032 A 
HETATM   18  C12 UNL     1      12.059  24.840  31.747  1.00  0.00     0.019 A 
HETATM   19  C13 UNL     1      13.219  24.056  31.691  1.00  0.00     0.030 A 
HETATM   20  C14 UNL     1      13.309  22.840  32.309  1.00  0.00     0.036 A 
HETATM   21  C23 UNL     1      12.167  22.431  32.996  1.00  0.00     0.030 A 
HETATM   22  C24 UNL     1      11.014  23.199  33.057  1.00  0.00     0.019 A 
BRANCH  20  23
HETATM   23  N3  UNL     1      14.431  21.982  32.329  1.00  0.00    -0.309 N 
HETATM   24  C15 UNL     1      14.888  21.192  33.406  1.00  0.00     0.320 C 
HETATM   25  O2  UNL     1      14.314  21.163  34.510  1.00  0.00    -0.247 OA
HETATM   26  N4  UNL     1      16.039  20.397  33.245  1.00  0.00    -0.339 N 
ATOM     27  H4  UNL     1      16.526  20.404  32.348  1.00  0.00     0.164 HD
ATOM     28  H3  UNL     1      14.972  21.926  31.467  1.00  0.00     0.170 HD
BRANCH  26  29
HETATM   29  C16 UNL     1      16.546  19.578  34.310  1.00  0.00     0.162 C 
BRANCH  29  30
HETATM   30  C17 UNL     1      15.802  18.294  34.334  1.00  0.00    -0.040 A 
HETATM   31  C18 UNL     1      14.894  18.060  35.372  1.00  0.00     0.009 A 
HETATM   32  C19 UNL     1      14.167  16.895  35.467  1.00  0.00     0.001 A 
HETATM   33  C20 UNL     1      14.314  15.900  34.525  1.00  0.00     0.000 A 
HETATM   34  C21 UNL     1      15.202  16.104  33.492  1.00  0.00     0.001 A 
HETATM   35  C22 UNL     1      15.937  17.293  33.401  1.00  0.00     0.009 A 
ENDBRANCH  29  30
ENDBRANCH  26  29
ENDBRANCH  20  23
ENDBRANCH  14  17
ENDBRANCH  10  13
TORSDOF 5
ENDMDL
