MODEL 1
REMARK VINA RESULT: -13.313940195      0.000      0.000
REMARK  5 active torsions:
REMARK  status: ('A' for Active; 'I' for Inactive)
REMARK       I    between atoms: C1_2  and  N1_3 
REMARK    1  A    between atoms: C1_2  and  C8_11 
REMARK    2  A    between atoms: N1_3  and  C2_5 
REMARK    3  A    between atoms: C11_14  and  C12_15 
REMARK    4  A    between atoms: C12_15  and  N2_16 
REMARK    5  A    between atoms: N2_16  and  C13_18 
ROOT
HETATM    1  N2  UNL     1      14.024  25.039  33.407  1.00  0.00    -0.386 N 
ATOM      2  H2  UNL     1      14.721  25.623  33.869  1.00  0.00     0.160 HD
ENDROOT
BRANCH   1   3
HETATM    3  C12 UNL     1      13.215  25.585  32.345  1.00  0.00     0.158 C 
BRANCH   3   4
HETATM    4  C11 UNL     1      11.792  25.703  32.761  1.00  0.00    -0.041 A 
HETATM    5  C10 UNL     1      11.373  26.692  33.625  1.00  0.00     0.010 A 
HETATM    6  C9  UNL     1      10.038  26.821  34.027  1.00  0.00     0.017 A 
HETATM    7  C8  UNL     1       9.094  25.949  33.560  1.00  0.00     0.032 A 
HETATM    8  C27 UNL     1       9.498  24.951  32.690  1.00  0.00     0.017 A 
HETATM    9  C26 UNL     1      10.816  24.837  32.305  1.00  0.00     0.010 A 
BRANCH   7  10
HETATM   10  C1  UNL     1       7.663  26.038  33.959  1.00  0.00     0.256 C 
HETATM   11  O1  UNL     1       7.376  26.755  34.966  1.00  0.00    -0.267 OA
HETATM   12  N1  UNL     1       6.710  25.335  33.213  1.00  0.00    -0.323 N 
ATOM     13  H1  UNL     1       7.037  24.793  32.413  1.00  0.00     0.169 HD
BRANCH  12  14
HETATM   14  C2  UNL     1       5.323  25.326  33.494  1.00  0.00     0.035 A 
HETATM   15  C3  UNL     1       4.771  24.228  34.186  1.00  0.00     0.029 A 
HETATM   16  C4  UNL     1       3.461  24.153  34.512  1.00  0.00     0.002 A 
HETATM   17  C5  UNL     1       2.610  25.200  34.153  1.00  0.00     0.000 A 
HETATM   18  C6  UNL     1       3.088  26.289  33.482  1.00  0.00     0.002 A 
HETATM   19  C7  UNL     1       4.444  26.316  33.170  1.00  0.00     0.029 A 
ENDBRANCH  12  14
ENDBRANCH   7  10
ENDBRANCH   3   4
ENDBRANCH   1   3
BRANCH   1  20
HETATM   20  C13 UNL     1      13.851  23.699  33.807  1.00  0.00     0.029 A 
HETATM   21  C14 UNL     1      12.832  23.377  34.703  1.00  0.00     0.031 A 
HETATM   22  C15 UNL     1      12.665  22.075  35.093  1.00  0.00     0.033 A 
HETATM   23  C16 UNL     1      13.460  21.038  34.646  1.00  0.00     0.047 A 
HETATM   24  N3  UNL     1      13.297  19.761  35.029  1.00  0.00    -0.355 N 
HETATM   25  C24 UNL     1      14.469  21.350  33.760  1.00  0.00     0.044 A 
HETATM   26  C17 UNL     1      14.068  18.751  34.598  1.00  0.00     0.046 A 
ATOM     27  H3  UNL     1      12.545  19.547  35.685  1.00  0.00     0.166 HD
HETATM   28  C18 UNL     1      13.869  17.450  35.015  1.00  0.00     0.030 A 
HETATM   29  C22 UNL     1      15.097  19.015  33.704  1.00  0.00     0.042 A 
HETATM   30  C19 UNL     1      14.644  16.390  34.590  1.00  0.00     0.002 A 
HETATM   31  C20 UNL     1      15.669  16.679  33.696  1.00  0.00     0.001 A 
HETATM   32  C21 UNL     1      15.879  17.983  33.268  1.00  0.00     0.018 A 
HETATM   33  C23 UNL     1      15.280  20.325  33.298  1.00  0.00     0.197 A 
HETATM   34  O2  UNL     1      16.212  20.577  32.488  1.00  0.00    -0.286 OA
HETATM   35  C25 UNL     1      14.647  22.665  33.357  1.00  0.00     0.047 A 
ENDBRANCH   1  20
TORSDOF 5
ENDMDL
MODEL 2
REMARK VINA RESULT: -13.107617552      1.325      9.543
REMARK  5 active torsions:
REMARK  status: ('A' for Active; 'I' for Inactive)
REMARK       I    between atoms: C1_2  and  N1_3 
REMARK    1  A    between atoms: C1_2  and  C8_11 
REMARK    2  A    between atoms: N1_3  and  C2_5 
REMARK    3  A    between atoms: C11_14  and  C12_15 
REMARK    4  A    between atoms: C12_15  and  N2_16 
REMARK    5  A    between atoms: N2_16  and  C13_18 
ROOT
HETATM    1  N2  UNL     1      11.916  26.938  34.441  1.00  0.00    -0.386 N 
ATOM      2  H2  UNL     1      11.955  27.318  35.387  1.00  0.00     0.160 HD
ENDROOT
BRANCH   1   3
HETATM    3  C12 UNL     1      13.118  26.851  33.648  1.00  0.00     0.158 C 
BRANCH   3   4
HETATM    4  C11 UNL     1      13.568  25.439  33.509  1.00  0.00    -0.041 A 
HETATM    5  C10 UNL     1      13.820  24.882  32.274  1.00  0.00     0.010 A 
HETATM    6  C9  UNL     1      14.246  23.556  32.122  1.00  0.00     0.017 A 
HETATM    7  C8  UNL     1      14.425  22.764  33.222  1.00  0.00     0.032 A 
HETATM    8  C27 UNL     1      14.176  23.309  34.469  1.00  0.00     0.017 A 
HETATM    9  C26 UNL     1      13.758  24.614  34.602  1.00  0.00     0.010 A 
BRANCH   7  10
HETATM   10  C1  UNL     1      14.871  21.347  33.117  1.00  0.00     0.256 C 
HETATM   11  O1  UNL     1      15.664  21.048  32.173  1.00  0.00    -0.267 OA
HETATM   12  N1  UNL     1      14.400  20.422  34.055  1.00  0.00    -0.323 N 
ATOM     13  H1  UNL     1      13.772  20.760  34.784  1.00  0.00     0.169 HD
BRANCH  12  14
HETATM   14  C2  UNL     1      14.736  19.047  34.059  1.00  0.00     0.035 A 
HETATM   15  C3  UNL     1      13.790  18.111  34.526  1.00  0.00     0.029 A 
HETATM   16  C4  UNL     1      14.024  16.779  34.543  1.00  0.00     0.002 A 
HETATM   17  C5  UNL     1      15.251  16.300  34.079  1.00  0.00     0.000 A 
HETATM   18  C6  UNL     1      16.206  17.158  33.615  1.00  0.00     0.002 A 
HETATM   19  C7  UNL     1      15.913  18.519  33.620  1.00  0.00     0.029 A 
ENDBRANCH  12  14
ENDBRANCH   7  10
ENDBRANCH   3   4
ENDBRANCH   1   3
BRANCH   1  20
HETATM   20  C13 UNL     1      10.688  26.499  33.909  1.00  0.00     0.029 A 
HETATM   21  C14 UNL     1      10.538  26.394  32.527  1.00  0.00     0.031 A 
HETATM   22  C15 UNL     1       9.342  25.970  32.009  1.00  0.00     0.033 A 
HETATM   23  C16 UNL     1       8.253  25.632  32.787  1.00  0.00     0.047 A 
HETATM   24  N3  UNL     1       7.080  25.217  32.280  1.00  0.00    -0.355 N 
HETATM   25  C24 UNL     1       8.395  25.734  34.155  1.00  0.00     0.044 A 
HETATM   26  C17 UNL     1       6.019  24.889  33.033  1.00  0.00     0.046 A 
ATOM     27  H3  UNL     1       6.992  25.146  31.266  1.00  0.00     0.166 HD
HETATM   28  C18 UNL     1       4.829  24.466  32.474  1.00  0.00     0.030 A 
HETATM   29  C22 UNL     1       6.113  24.975  34.416  1.00  0.00     0.042 A 
HETATM   30  C19 UNL     1       3.720  24.122  33.220  1.00  0.00     0.002 A 
HETATM   31  C20 UNL     1       3.839  24.217  34.602  1.00  0.00     0.001 A 
HETATM   32  C21 UNL     1       5.029  24.641  35.177  1.00  0.00     0.018 A 
HETATM   33  C23 UNL     1       7.313  25.401  34.956  1.00  0.00     0.197 A 
HETATM   34  O2  UNL     1       7.410  25.484  36.209  1.00  0.00    -0.286 OA
HETATM   35  C25 UNL     1       9.601  26.162  34.690  1.00  0.00     0.047 A 
ENDBRANCH   1  20
TORSDOF 5
ENDMDL
MODEL 3
REMARK VINA RESULT: -12.864272258      1.440      9.435
REMARK  5 active torsions:
REMARK  status: ('A' for Active; 'I' for Inactive)
REMARK       I    between atoms: C1_2  and  N1_3 
REMARK    1  A    between atoms: C1_2  and  C8_11 
REMARK    2  A    between atoms: N1_3  and  C2_5 
REMARK    3  A    between atoms: C11_14  and  C12_15 
REMARK    4  A    between atoms: C12_15  and  N2_16 
REMARK    5  A    between atoms: N2_16  and  C13_18 
ROOT
HETATM    1  N2  UNL     1      12.309  27.096  34.063  1.00  0.00    -0.386 N 
ATOM      2  H2  UNL     1      12.790  27.760  34.671  1.00  0.00     0.160 HD
ENDROOT
BRANCH   1   3
HETATM    3  C12 UNL     1      12.925  26.672  32.829  1.00  0.00     0.158 C 
BRANCH   3   4
HETATM    4  C11 UNL     1      13.435  25.278  32.935  1.00  0.00    -0.041 A 
HETATM    5  C10 UNL     1      13.463  24.436  31.844  1.00  0.00     0.010 A 
HETATM    6  C9  UNL     1      13.940  23.122  31.922  1.00  0.00     0.017 A 
HETATM    7  C8  UNL     1      14.403  22.631  33.112  1.00  0.00     0.032 A 
HETATM    8  C27 UNL     1      14.382  23.465  34.217  1.00  0.00     0.017 A 
HETATM    9  C26 UNL     1      13.909  24.754  34.123  1.00  0.00     0.010 A 
BRANCH   7  10
HETATM   10  C1  UNL     1      14.916  21.241  33.253  1.00  0.00     0.256 C 
HETATM   11  O1  UNL     1      16.015  20.959  32.686  1.00  0.00    -0.267 OA
HETATM   12  N1  UNL     1      14.170  20.319  33.997  1.00  0.00    -0.323 N 
ATOM     13  H1  UNL     1      13.303  20.643  34.424  1.00  0.00     0.169 HD
BRANCH  12  14
HETATM   14  C2  UNL     1      14.540  18.968  34.196  1.00  0.00     0.035 A 
HETATM   15  C3  UNL     1      14.423  18.408  35.486  1.00  0.00     0.029 A 
HETATM   16  C4  UNL     1      14.735  17.120  35.755  1.00  0.00     0.002 A 
HETATM   17  C5  UNL     1      15.191  16.301  34.721  1.00  0.00     0.000 A 
HETATM   18  C6  UNL     1      15.324  16.787  33.452  1.00  0.00     0.002 A 
HETATM   19  C7  UNL     1      14.990  18.120  33.229  1.00  0.00     0.029 A 
ENDBRANCH  12  14
ENDBRANCH   7  10
ENDBRANCH   3   4
ENDBRANCH   1   3
BRANCH   1  20
HETATM   20  C13 UNL     1      11.045  26.594  34.428  1.00  0.00     0.029 A 
HETATM   21  C14 UNL     1      10.853  26.087  35.712  1.00  0.00     0.031 A 
HETATM   22  C15 UNL     1       9.624  25.596  36.066  1.00  0.00     0.033 A 
HETATM   23  C16 UNL     1       8.540  25.570  35.212  1.00  0.00     0.047 A 
HETATM   24  N3  UNL     1       7.335  25.088  35.558  1.00  0.00    -0.355 N 
HETATM   25  C24 UNL     1       8.724  26.069  33.940  1.00  0.00     0.044 A 
HETATM   26  C17 UNL     1       6.280  25.059  34.730  1.00  0.00     0.046 A 
ATOM     27  H3  UNL     1       7.215  24.723  36.503  1.00  0.00     0.166 HD
HETATM   28  C18 UNL     1       5.056  24.555  35.123  1.00  0.00     0.030 A 
HETATM   29  C22 UNL     1       6.415  25.551  33.438  1.00  0.00     0.042 A 
HETATM   30  C19 UNL     1       3.951  24.512  34.296  1.00  0.00     0.002 A 
HETATM   31  C20 UNL     1       4.112  25.010  33.008  1.00  0.00     0.001 A 
HETATM   32  C21 UNL     1       5.337  25.519  32.600  1.00  0.00     0.018 A 
HETATM   33  C23 UNL     1       7.648  26.052  33.064  1.00  0.00     0.197 A 
HETATM   34  O2  UNL     1       7.784  26.500  31.894  1.00  0.00    -0.286 OA
HETATM   35  C25 UNL     1       9.964  26.569  33.571  1.00  0.00     0.047 A 
ENDBRANCH   1  20
TORSDOF 5
ENDMDL
MODEL 4
REMARK VINA RESULT: -12.711433800      1.414      9.445
REMARK  5 active torsions:
REMARK  status: ('A' for Active; 'I' for Inactive)
REMARK       I    between atoms: C1_2  and  N1_3 
REMARK    1  A    between atoms: C1_2  and  C8_11 
REMARK    2  A    between atoms: N1_3  and  C2_5 
REMARK    3  A    between atoms: C11_14  and  C12_15 
REMARK    4  A    between atoms: C12_15  and  N2_16 
REMARK    5  A    between atoms: N2_16  and  C13_18 
ROOT
HETATM    1  N2  UNL     1      12.302  27.059  33.939  1.00  0.00    -0.386 N 
ATOM      2  H2  UNL     1      12.786  27.751  34.511  1.00  0.00     0.160 HD
ENDROOT
BRANCH   1   3
HETATM    3  C12 UNL     1      12.911  26.571  32.726  1.00  0.00     0.158 C 
BRANCH   3   4
HETATM    4  C11 UNL     1      13.425  25.186  32.902  1.00  0.00    -0.041 A 
HETATM    5  C10 UNL     1      13.897  24.742  34.118  1.00  0.00     0.010 A 
HETATM    6  C9  UNL     1      14.383  23.442  34.305  1.00  0.00     0.017 A 
HETATM    7  C8  UNL     1      14.400  22.560  33.260  1.00  0.00     0.032 A 
HETATM    8  C27 UNL     1      13.929  22.991  32.032  1.00  0.00     0.017 A 
HETATM    9  C26 UNL     1      13.455  24.273  31.865  1.00  0.00     0.010 A 
BRANCH   7  10
HETATM   10  C1  UNL     1      14.911  21.169  33.402  1.00  0.00     0.256 C 
HETATM   11  O1  UNL     1      16.089  20.930  32.997  1.00  0.00    -0.267 OA
HETATM   12  N1  UNL     1      14.077  20.200  33.971  1.00  0.00    -0.323 N 
ATOM     13  H1  UNL     1      13.148  20.491  34.276  1.00  0.00     0.169 HD
BRANCH  12  14
HETATM   14  C2  UNL     1      14.436  18.843  34.151  1.00  0.00     0.035 A 
HETATM   15  C3  UNL     1      15.106  18.167  33.109  1.00  0.00     0.029 A 
HETATM   16  C4  UNL     1      15.503  16.878  33.210  1.00  0.00     0.002 A 
HETATM   17  C5  UNL     1      15.244  16.178  34.390  1.00  0.00     0.000 A 
HETATM   18  C6  UNL     1      14.598  16.780  35.431  1.00  0.00     0.002 A 
HETATM   19  C7  UNL     1      14.211  18.108  35.276  1.00  0.00     0.029 A 
ENDBRANCH  12  14
ENDBRANCH   7  10
ENDBRANCH   3   4
ENDBRANCH   1   3
BRANCH   1  20
HETATM   20  C13 UNL     1      11.037  26.580  34.333  1.00  0.00     0.029 A 
HETATM   21  C14 UNL     1      10.853  26.121  35.636  1.00  0.00     0.031 A 
HETATM   22  C15 UNL     1       9.624  25.652  36.019  1.00  0.00     0.033 A 
HETATM   23  C16 UNL     1       8.532  25.605  35.176  1.00  0.00     0.047 A 
HETATM   24  N3  UNL     1       7.326  25.145  35.550  1.00  0.00    -0.355 N 
HETATM   25  C24 UNL     1       8.707  26.057  33.885  1.00  0.00     0.044 A 
HETATM   26  C17 UNL     1       6.263  25.096  34.733  1.00  0.00     0.046 A 
ATOM     27  H3  UNL     1       7.213  24.814  36.509  1.00  0.00     0.166 HD
HETATM   28  C18 UNL     1       5.039  24.616  35.155  1.00  0.00     0.030 A 
HETATM   29  C22 UNL     1       6.389  25.541  33.424  1.00  0.00     0.042 A 
HETATM   30  C19 UNL     1       3.926  24.552  34.341  1.00  0.00     0.002 A 
HETATM   31  C20 UNL     1       4.078  25.004  33.034  1.00  0.00     0.001 A 
HETATM   32  C21 UNL     1       5.303  25.489  32.597  1.00  0.00     0.018 A 
HETATM   33  C23 UNL     1       7.623  26.018  33.021  1.00  0.00     0.197 A 
HETATM   34  O2  UNL     1       7.751  26.424  31.835  1.00  0.00    -0.286 OA
HETATM   35  C25 UNL     1       9.947  26.534  33.487  1.00  0.00     0.047 A 
ENDBRANCH   1  20
TORSDOF 5
ENDMDL
MODEL 5
REMARK VINA RESULT: -12.431481396      1.411      1.904
REMARK  5 active torsions:
REMARK  status: ('A' for Active; 'I' for Inactive)
REMARK       I    between atoms: C1_2  and  N1_3 
REMARK    1  A    between atoms: C1_2  and  C8_11 
REMARK    2  A    between atoms: N1_3  and  C2_5 
REMARK    3  A    between atoms: C11_14  and  C12_15 
REMARK    4  A    between atoms: C12_15  and  N2_16 
REMARK    5  A    between atoms: N2_16  and  C13_18 
ROOT
HETATM    1  N2  UNL     1      13.687  24.345  33.936  1.00  0.00    -0.386 N 
ATOM      2  H2  UNL     1      13.700  24.675  34.902  1.00  0.00     0.160 HD
ENDROOT
BRANCH   1   3
HETATM    3  C12 UNL     1      13.259  25.228  32.879  1.00  0.00     0.158 C 
BRANCH   3   4
HETATM    4  C11 UNL     1      11.775  25.341  32.842  1.00  0.00    -0.041 A 
HETATM    5  C10 UNL     1      11.135  26.529  33.122  1.00  0.00     0.010 A 
HETATM    6  C9  UNL     1       9.741  26.656  33.091  1.00  0.00     0.017 A 
HETATM    7  C8  UNL     1       8.962  25.577  32.774  1.00  0.00     0.032 A 
HETATM    8  C27 UNL     1       9.589  24.377  32.490  1.00  0.00     0.017 A 
HETATM    9  C26 UNL     1      10.962  24.269  32.525  1.00  0.00     0.010 A 
BRANCH   7  10
HETATM   10  C1  UNL     1       7.476  25.655  32.732  1.00  0.00     0.256 C 
HETATM   11  O1  UNL     1       6.945  26.233  31.736  1.00  0.00    -0.267 OA
HETATM   12  N1  UNL     1       6.742  25.092  33.782  1.00  0.00    -0.323 N 
ATOM     13  H1  UNL     1       7.259  24.638  34.535  1.00  0.00     0.169 HD
BRANCH  12  14
HETATM   14  C2  UNL     1       5.329  25.109  33.868  1.00  0.00     0.035 A 
HETATM   15  C3  UNL     1       4.605  23.965  33.471  1.00  0.00     0.029 A 
HETATM   16  C4  UNL     1       3.256  23.893  33.543  1.00  0.00     0.002 A 
HETATM   17  C5  UNL     1       2.542  24.990  34.029  1.00  0.00     0.000 A 
HETATM   18  C6  UNL     1       3.189  26.123  34.428  1.00  0.00     0.002 A 
HETATM   19  C7  UNL     1       4.578  26.146  34.333  1.00  0.00     0.029 A 
ENDBRANCH  12  14
ENDBRANCH   7  10
ENDBRANCH   3   4
ENDBRANCH   1   3
BRANCH   1  20
HETATM   20  C13 UNL     1      14.088  23.029  33.635  1.00  0.00     0.029 A 
HETATM   21  C14 UNL     1      14.770  22.775  32.446  1.00  0.00     0.031 A 
HETATM   22  C15 UNL     1      15.157  21.494  32.152  1.00  0.00     0.033 A 
HETATM   23  C16 UNL     1      14.908  20.415  32.977  1.00  0.00     0.047 A 
HETATM   24  N3  UNL     1      15.287  19.159  32.688  1.00  0.00    -0.355 N 
HETATM   25  C24 UNL     1      14.234  20.660  34.154  1.00  0.00     0.044 A 
HETATM   26  C17 UNL     1      15.046  18.108  33.487  1.00  0.00     0.046 A 
ATOM     27  H3  UNL     1      15.786  18.995  31.814  1.00  0.00     0.166 HD
HETATM   28  C18 UNL     1      15.451  16.830  33.155  1.00  0.00     0.030 A 
HETATM   29  C22 UNL     1      14.370  18.304  34.684  1.00  0.00     0.042 A 
HETATM   30  C19 UNL     1      15.219  15.729  33.954  1.00  0.00     0.002 A 
HETATM   31  C20 UNL     1      14.540  15.950  35.147  1.00  0.00     0.001 A 
HETATM   32  C21 UNL     1      14.127  17.230  35.492  1.00  0.00     0.018 A 
HETATM   33  C23 UNL     1      13.972  19.591  34.997  1.00  0.00     0.197 A 
HETATM   34  O2  UNL     1      13.357  19.781  36.080  1.00  0.00    -0.286 OA
HETATM   35  C25 UNL     1      13.837  21.953  34.462  1.00  0.00     0.047 A 
ENDBRANCH   1  20
TORSDOF 5
ENDMDL
