MODEL 1
REMARK VINA RESULT: -5.493809387      0.000      0.000
REMARK  2 active torsions:
REMARK  status: ('A' for Active; 'I' for Inactive)
REMARK    1  A    between atoms: N1_7  and  O1_8 
REMARK    2  A    between atoms: C9_12  and  O2_13 
ROOT
HETATM    1  C1  UNL     1      14.986  18.748  15.212  1.00  0.00     0.012 C 
HETATM    2  C2  UNL     1      14.455  17.470  15.875  1.00  0.00     0.012 C 
HETATM    3  C3  UNL     1      15.485  16.884  16.755  1.00  0.00     0.008 C 
HETATM    4  C4  UNL     1      14.995  16.313  18.041  1.00  0.00     0.022 C 
HETATM    5  C5  UNL     1      13.858  15.347  17.878  1.00  0.00     0.082 C 
HETATM    6  C6  UNL     1      13.938  14.260  18.952  1.00  0.00     0.029 C 
HETATM    7  N1  UNL     1      12.630  16.079  18.032  1.00  0.00    -0.189 NA
HETATM    8  C7  UNL     1      12.262  16.613  16.752  1.00  0.00     0.111 C 
HETATM    9  C8  UNL     1      10.843  17.066  16.677  1.00  0.00     0.031 C 
HETATM   10  C9  UNL     1      13.163  17.822  16.517  1.00  0.00     0.141 C 
ENDROOT
BRANCH   7  11
HETATM   11  O1  UNL     1      11.670  15.440  18.677  1.00  0.00    -0.312 OA
ATOM     12  H1  UNL     1      11.246  15.935  19.367  1.00  0.00     0.237 HD
ENDBRANCH   7  11
BRANCH  10  13
HETATM   13  O2  UNL     1      12.451  18.640  15.607  1.00  0.00    -0.394 OA
ATOM     14  H2  UNL     1      12.640  18.319  14.733  1.00  0.00     0.210 HD
ENDBRANCH  10  13
TORSDOF 2
ENDMDL
MODEL 2
REMARK VINA RESULT: -5.481523109      3.871      4.773
REMARK  2 active torsions:
REMARK  status: ('A' for Active; 'I' for Inactive)
REMARK    1  A    between atoms: N1_7  and  O1_8 
REMARK    2  A    between atoms: C9_12  and  O2_13 
ROOT
HETATM    1  C1  UNL     1      18.178  17.731  17.308  1.00  0.00     0.012 C 
HETATM    2  C2  UNL     1      17.902  17.191  18.718  1.00  0.00     0.012 C 
HETATM    3  C3  UNL     1      18.482  18.092  19.733  1.00  0.00     0.008 C 
HETATM    4  C4  UNL     1      17.664  18.301  20.961  1.00  0.00     0.022 C 
HETATM    5  C5  UNL     1      17.215  17.026  21.612  1.00  0.00     0.082 C 
HETATM    6  C6  UNL     1      17.139  17.212  23.128  1.00  0.00     0.029 C 
HETATM    7  N1  UNL     1      15.907  16.709  21.105  1.00  0.00    -0.189 NA
HETATM    8  C7  UNL     1      16.064  15.949  19.898  1.00  0.00     0.111 C 
HETATM    9  C8  UNL     1      14.826  15.237  19.472  1.00  0.00     0.031 C 
HETATM   10  C9  UNL     1      16.440  16.950  18.809  1.00  0.00     0.141 C 
ENDROOT
BRANCH   7  11
HETATM   11  O1  UNL     1      15.069  16.197  21.990  1.00  0.00    -0.312 OA
ATOM     12  H1  UNL     1      14.675  16.825  22.585  1.00  0.00     0.237 HD
ENDBRANCH   7  11
BRANCH  10  13
HETATM   13  O2  UNL     1      16.038  16.341  17.595  1.00  0.00    -0.394 OA
ATOM     14  H2  UNL     1      15.970  17.030  16.944  1.00  0.00     0.210 HD
ENDBRANCH  10  13
TORSDOF 2
ENDMDL
MODEL 3
REMARK VINA RESULT: -5.252222802      3.943      5.407
REMARK  2 active torsions:
REMARK  status: ('A' for Active; 'I' for Inactive)
REMARK    1  A    between atoms: N1_7  and  O1_8 
REMARK    2  A    between atoms: C9_12  and  O2_13 
ROOT
HETATM    1  C1  UNL     1      18.067  17.660  22.314  1.00  0.00     0.012 C 
HETATM    2  C2  UNL     1      17.492  16.916  21.100  1.00  0.00     0.012 C 
HETATM    3  C3  UNL     1      16.146  16.394  21.410  1.00  0.00     0.008 C 
HETATM    4  C4  UNL     1      15.144  16.483  20.311  1.00  0.00     0.022 C 
HETATM    5  C5  UNL     1      15.623  15.910  19.010  1.00  0.00     0.082 C 
HETATM    6  C6  UNL     1      14.448  15.297  18.245  1.00  0.00     0.029 C 
HETATM    7  N1  UNL     1      16.187  16.982  18.235  1.00  0.00    -0.189 NA
HETATM    8  C7  UNL     1      17.569  17.120  18.597  1.00  0.00     0.111 C 
HETATM    9  C8  UNL     1      18.366  17.921  17.625  1.00  0.00     0.031 C 
HETATM   10  C9  UNL     1      17.589  17.840  19.942  1.00  0.00     0.141 C 
ENDROOT
BRANCH   7  11
HETATM   11  O1  UNL     1      15.944  16.928  16.937  1.00  0.00    -0.312 OA
ATOM     12  H1  UNL     1      16.282  16.159  16.493  1.00  0.00     0.237 HD
ENDBRANCH   7  11
BRANCH  10  13
HETATM   13  O2  UNL     1      18.860  18.463  20.007  1.00  0.00    -0.394 OA
ATOM     14  H2  UNL     1      19.263  18.194  20.824  1.00  0.00     0.210 HD
ENDBRANCH  10  13
TORSDOF 2
ENDMDL
MODEL 4
REMARK VINA RESULT: -5.197993147      2.217      3.635
REMARK  2 active torsions:
REMARK  status: ('A' for Active; 'I' for Inactive)
REMARK    1  A    between atoms: N1_7  and  O1_8 
REMARK    2  A    between atoms: C9_12  and  O2_13 
ROOT
HETATM    1  C1  UNL     1       9.883  18.622  15.339  1.00  0.00     0.012 C 
HETATM    2  C2  UNL     1      11.033  17.652  15.036  1.00  0.00     0.012 C 
HETATM    3  C3  UNL     1      12.014  18.286  14.134  1.00  0.00     0.008 C 
HETATM    4  C4  UNL     1      13.447  17.996  14.422  1.00  0.00     0.022 C 
HETATM    5  C5  UNL     1      13.751  16.532  14.553  1.00  0.00     0.082 C 
HETATM    6  C6  UNL     1      15.165  16.245  14.044  1.00  0.00     0.029 C 
HETATM    7  N1  UNL     1      13.668  16.186  15.946  1.00  0.00    -0.189 NA
HETATM    8  C7  UNL     1      12.304  15.853  16.246  1.00  0.00     0.111 C 
HETATM    9  C8  UNL     1      12.135  15.122  17.534  1.00  0.00     0.031 C 
HETATM   10  C9  UNL     1      11.552  17.178  16.344  1.00  0.00     0.141 C 
ENDROOT
BRANCH   7  11
HETATM   11  O1  UNL     1      14.569  15.315  16.366  1.00  0.00    -0.312 OA
ATOM     12  H1  UNL     1      14.401  14.939  17.222  1.00  0.00     0.237 HD
ENDBRANCH   7  11
BRANCH  10  13
HETATM   13  O2  UNL     1      10.432  16.904  17.166  1.00  0.00    -0.394 OA
ATOM     14  H2  UNL     1       9.670  16.864  16.600  1.00  0.00     0.210 HD
ENDBRANCH  10  13
TORSDOF 2
ENDMDL
MODEL 5
REMARK VINA RESULT: -5.175758356      2.000      3.958
REMARK  2 active torsions:
REMARK  status: ('A' for Active; 'I' for Inactive)
REMARK    1  A    between atoms: N1_7  and  O1_8 
REMARK    2  A    between atoms: C9_12  and  O2_13 
ROOT
HETATM    1  C1  UNL     1      11.257  15.253  16.423  1.00  0.00     0.012 C 
HETATM    2  C2  UNL     1      12.761  15.555  16.362  1.00  0.00     0.012 C 
HETATM    3  C3  UNL     1      13.011  16.729  15.502  1.00  0.00     0.008 C 
HETATM    4  C4  UNL     1      14.068  17.668  15.974  1.00  0.00     0.022 C 
HETATM    5  C5  UNL     1      15.368  16.996  16.307  1.00  0.00     0.082 C 
HETATM    6  C6  UNL     1      16.536  17.932  15.990  1.00  0.00     0.029 C 
HETATM    7  N1  UNL     1      15.364  16.700  17.714  1.00  0.00    -0.189 NA
HETATM    8  C7  UNL     1      14.741  15.421  17.903  1.00  0.00     0.111 C 
HETATM    9  C8  UNL     1      15.001  14.820  19.242  1.00  0.00     0.031 C 
HETATM   10  C9  UNL     1      13.239  15.653  17.764  1.00  0.00     0.141 C 
ENDROOT
BRANCH   7  11
HETATM   11  O1  UNL     1      16.524  16.861  18.326  1.00  0.00    -0.312 OA
ATOM     12  H1  UNL     1      16.498  17.396  19.110  1.00  0.00     0.237 HD
ENDBRANCH   7  11
BRANCH  10  13
HETATM   13  O2  UNL     1      12.636  14.595  18.488  1.00  0.00    -0.394 OA
ATOM     14  H2  UNL     1      13.253  13.873  18.499  1.00  0.00     0.210 HD
ENDBRANCH  10  13
TORSDOF 2
ENDMDL
