MODEL 1
REMARK VINA RESULT: -5.503104707      0.000      0.000
REMARK  1 active torsions:
REMARK  status: ('A' for Active; 'I' for Inactive)
REMARK    1  A    between atoms: O1_1  and  C1_3 
ROOT
HETATM    1  C1  UNL     1      12.149  15.192  17.494  1.00  0.00     0.123 C 
HETATM    2  C2  UNL     1      13.599  15.446  17.788  1.00  0.00     0.033 C 
HETATM    3  C3  UNL     1      13.888  16.880  17.404  1.00  0.00     0.014 C 
HETATM    4  C4  UNL     1      12.763  17.260  16.520  1.00  0.00    -0.006 C 
HETATM    5  C5  UNL     1      12.325  18.702  16.662  1.00  0.00     0.042 C 
HETATM    6  C6  UNL     1      12.306  19.213  15.248  1.00  0.00     0.273 C 
HETATM    7  N1  UNL     1      12.010  17.980  14.495  1.00  0.00     0.089 N 
HETATM    8  C7  UNL     1      10.703  17.463  14.826  1.00  0.00     0.273 C 
HETATM    9  C8  UNL     1      10.788  16.161  15.618  1.00  0.00     0.038 C 
HETATM   10  C9  UNL     1      11.571  16.405  16.870  1.00  0.00     0.026 C 
HETATM   11  C10 UNL     1      13.071  17.118  15.041  1.00  0.00     0.282 C 
ENDROOT
BRANCH   1  12
HETATM   12  O1  UNL     1      11.515  14.937  18.730  1.00  0.00    -0.395 OA
ATOM     13  H1  UNL     1      10.580  14.900  18.561  1.00  0.00     0.210 HD
ENDBRANCH   1  12
TORSDOF 1
ENDMDL
MODEL 2
REMARK VINA RESULT: -5.386647623      1.244      2.209
REMARK  1 active torsions:
REMARK  status: ('A' for Active; 'I' for Inactive)
REMARK    1  A    between atoms: O1_1  and  C1_3 
ROOT
HETATM    1  C1  UNL     1      11.500  16.373  17.201  1.00  0.00     0.123 C 
HETATM    2  C2  UNL     1      11.506  15.248  16.208  1.00  0.00     0.033 C 
HETATM    3  C3  UNL     1      12.577  15.560  15.186  1.00  0.00     0.014 C 
HETATM    4  C4  UNL     1      12.839  17.007  15.355  1.00  0.00    -0.006 C 
HETATM    5  C5  UNL     1      14.284  17.402  15.144  1.00  0.00     0.042 C 
HETATM    6  C6  UNL     1      14.206  18.543  14.168  1.00  0.00     0.273 C 
HETATM    7  N1  UNL     1      12.884  19.112  14.487  1.00  0.00     0.089 N 
HETATM    8  C7  UNL     1      12.848  19.639  15.830  1.00  0.00     0.273 C 
HETATM    9  C8  UNL     1      11.966  18.800  16.750  1.00  0.00     0.038 C 
HETATM   10  C9  UNL     1      12.481  17.395  16.768  1.00  0.00     0.026 C 
HETATM   11  C10 UNL     1      12.076  17.885  14.381  1.00  0.00     0.282 C 
ENDROOT
BRANCH   1  12
HETATM   12  O1  UNL     1      11.890  15.829  18.445  1.00  0.00    -0.395 OA
ATOM     13  H1  UNL     1      12.196  16.551  18.982  1.00  0.00     0.210 HD
ENDBRANCH   1  12
TORSDOF 1
ENDMDL
MODEL 3
REMARK VINA RESULT: -5.304938376      1.846      2.364
REMARK  1 active torsions:
REMARK  status: ('A' for Active; 'I' for Inactive)
REMARK    1  A    between atoms: O1_1  and  C1_3 
ROOT
HETATM    1  C1  UNL     1      12.001  15.137  16.533  1.00  0.00     0.123 C 
HETATM    2  C2  UNL     1      12.256  15.632  17.926  1.00  0.00     0.033 C 
HETATM    3  C3  UNL     1      13.008  16.939  17.806  1.00  0.00     0.014 C 
HETATM    4  C4  UNL     1      13.536  16.935  16.422  1.00  0.00    -0.006 C 
HETATM    5  C5  UNL     1      13.568  18.300  15.769  1.00  0.00     0.042 C 
HETATM    6  C6  UNL     1      14.973  18.415  15.245  1.00  0.00     0.273 C 
HETATM    7  N1  UNL     1      15.309  17.002  14.995  1.00  0.00     0.089 N 
HETATM    8  C7  UNL     1      14.469  16.436  13.966  1.00  0.00     0.273 C 
HETATM    9  C8  UNL     1      13.491  15.408  14.528  1.00  0.00     0.038 C 
HETATM   10  C9  UNL     1      12.644  16.065  15.573  1.00  0.00     0.026 C 
HETATM   11  C10 UNL     1      14.969  16.448  16.315  1.00  0.00     0.282 C 
ENDROOT
BRANCH   1  12
HETATM   12  O1  UNL     1      10.601  15.142  16.341  1.00  0.00    -0.395 OA
ATOM     13  H1  UNL     1      10.319  16.048  16.370  1.00  0.00     0.210 HD
ENDBRANCH   1  12
TORSDOF 1
ENDMDL
MODEL 4
REMARK VINA RESULT: -5.290748806      1.735      3.010
REMARK  1 active torsions:
REMARK  status: ('A' for Active; 'I' for Inactive)
REMARK    1  A    between atoms: O1_1  and  C1_3 
ROOT
HETATM    1  C1  UNL     1      13.629  15.160  18.225  1.00  0.00     0.123 C 
HETATM    2  C2  UNL     1      12.191  14.950  17.852  1.00  0.00     0.033 C 
HETATM    3  C3  UNL     1      12.069  15.226  16.369  1.00  0.00     0.014 C 
HETATM    4  C4  UNL     1      13.292  15.990  16.034  1.00  0.00    -0.006 C 
HETATM    5  C5  UNL     1      13.850  15.690  14.660  1.00  0.00     0.042 C 
HETATM    6  C6  UNL     1      14.031  17.049  14.041  1.00  0.00     0.273 C 
HETATM    7  N1  UNL     1      14.269  17.884  15.232  1.00  0.00     0.089 N 
HETATM    8  C7  UNL     1      15.491  17.507  15.903  1.00  0.00     0.273 C 
HETATM    9  C8  UNL     1      15.221  16.841  17.249  1.00  0.00     0.038 C 
HETATM   10  C9  UNL     1      14.366  15.632  17.030  1.00  0.00     0.026 C 
HETATM   11  C10 UNL     1      13.092  17.494  16.025  1.00  0.00     0.282 C 
ENDROOT
BRANCH   1  12
HETATM   12  O1  UNL     1      14.136  13.909  18.641  1.00  0.00    -0.395 OA
ATOM     13  H1  UNL     1      14.511  13.492  17.875  1.00  0.00     0.210 HD
ENDBRANCH   1  12
TORSDOF 1
ENDMDL
MODEL 5
REMARK VINA RESULT: -5.267923412      1.498      3.055
REMARK  1 active torsions:
REMARK  status: ('A' for Active; 'I' for Inactive)
REMARK    1  A    between atoms: O1_1  and  C1_3 
ROOT
HETATM    1  C1  UNL     1      12.088  16.546  17.540  1.00  0.00     0.123 C 
HETATM    2  C2  UNL     1      10.936  16.689  16.589  1.00  0.00     0.033 C 
HETATM    3  C3  UNL     1      11.456  16.367  15.205  1.00  0.00     0.014 C 
HETATM    4  C4  UNL     1      12.927  16.480  15.327  1.00  0.00    -0.006 C 
HETATM    5  C5  UNL     1      13.695  15.485  14.484  1.00  0.00     0.042 C 
HETATM    6  C6  UNL     1      14.688  16.335  13.741  1.00  0.00     0.273 C 
HETATM    7  N1  UNL     1      14.884  17.451  14.685  1.00  0.00     0.089 N 
HETATM    8  C7  UNL     1      15.483  16.997  15.917  1.00  0.00     0.273 C 
HETATM    9  C8  UNL     1      14.505  17.061  17.086  1.00  0.00     0.038 C 
HETATM   10  C9  UNL     1      13.308  16.222  16.763  1.00  0.00     0.026 C 
HETATM   11  C10 UNL     1      13.475  17.825  14.892  1.00  0.00     0.282 C 
ENDROOT
BRANCH   1  12
HETATM   12  O1  UNL     1      11.775  15.479  18.411  1.00  0.00    -0.395 OA
ATOM     13  H1  UNL     1      12.530  15.347  18.972  1.00  0.00     0.210 HD
ENDBRANCH   1  12
TORSDOF 1
ENDMDL
