MODEL 1
REMARK VINA RESULT: -5.726558191      0.000      0.000
REMARK  1 active torsions:
REMARK  status: ('A' for Active; 'I' for Inactive)
REMARK    1  A    between atoms: N2_13  and  O2_14 
ROOT
HETATM    1  N1  UNL     1      14.585  15.761  19.378  1.00  0.00    -0.364 N 
ATOM      2  H11 UNL     1      14.103  15.514  20.242  1.00  0.00     0.159 HD
ATOM      3  H12 UNL     1      15.585  15.823  19.571  1.00  0.00     0.159 HD
HETATM    4  C1  UNL     1      13.988  15.959  18.233  1.00  0.00     0.240 C 
HETATM    5  O1  UNL     1      14.644  16.296  17.057  1.00  0.00    -0.318 OA
HETATM    6  C2  UNL     1      13.708  16.126  15.980  1.00  0.00     0.212 C 
HETATM    7  C3  UNL     1      12.417  16.510  16.673  1.00  0.00     0.085 C 
HETATM    8  C4  UNL     1      12.404  17.985  16.882  1.00  0.00     0.036 C 
HETATM    9  C5  UNL     1      11.137  18.606  16.388  1.00  0.00     0.003 C 
HETATM   10  C6  UNL     1      11.016  18.233  14.905  1.00  0.00     0.000 C 
HETATM   11  C7  UNL     1      10.783  16.757  14.793  1.00  0.00     0.003 C 
HETATM   12  C8  UNL     1      11.200  15.971  15.983  1.00  0.00     0.036 C 
HETATM   13  N2  UNL     1      12.592  15.874  17.964  1.00  0.00    -0.212 N 
ENDROOT
BRANCH  13  14
HETATM   14  O2  UNL     1      11.672  15.311  18.770  1.00  0.00    -0.283 OA
ATOM     15  H2  UNL     1      10.831  14.968  18.493  1.00  0.00     0.245 HD
ENDBRANCH  13  14
TORSDOF 1
ENDMDL
MODEL 2
REMARK VINA RESULT: -5.610017033      1.848      3.187
REMARK  1 active torsions:
REMARK  status: ('A' for Active; 'I' for Inactive)
REMARK    1  A    between atoms: N2_13  and  O2_14 
ROOT
HETATM    1  N1  UNL     1      11.739  14.683  18.677  1.00  0.00    -0.364 N 
ATOM      2  H11 UNL     1      12.192  13.838  19.028  1.00  0.00     0.159 HD
ATOM      3  H12 UNL     1      10.769  14.685  18.990  1.00  0.00     0.159 HD
HETATM    4  C1  UNL     1      12.337  15.589  17.949  1.00  0.00     0.240 C 
HETATM    5  O1  UNL     1      11.722  16.738  17.472  1.00  0.00    -0.318 OA
HETATM    6  C2  UNL     1      12.758  17.611  16.991  1.00  0.00     0.212 C 
HETATM    7  C3  UNL     1      13.757  16.596  16.474  1.00  0.00     0.085 C 
HETATM    8  C4  UNL     1      13.227  16.001  15.215  1.00  0.00     0.036 C 
HETATM    9  C5  UNL     1      14.235  16.045  14.113  1.00  0.00     0.003 C 
HETATM   10  C6  UNL     1      14.624  17.518  13.934  1.00  0.00     0.000 C 
HETATM   11  C7  UNL     1      15.373  17.973  15.149  1.00  0.00     0.003 C 
HETATM   12  C8  UNL     1      15.146  17.147  16.363  1.00  0.00     0.036 C 
HETATM   13  N2  UNL     1      13.692  15.586  17.512  1.00  0.00    -0.212 N 
ENDROOT
BRANCH  13  14
HETATM   14  O2  UNL     1      14.668  14.792  17.992  1.00  0.00    -0.283 OA
ATOM     15  H2  UNL     1      15.281  14.291  17.467  1.00  0.00     0.245 HD
ENDBRANCH  13  14
TORSDOF 1
ENDMDL
MODEL 3
REMARK VINA RESULT: -5.600009971      1.022      1.060
REMARK  1 active torsions:
REMARK  status: ('A' for Active; 'I' for Inactive)
REMARK    1  A    between atoms: N2_13  and  O2_14 
ROOT
HETATM    1  N1  UNL     1      15.127  15.736  19.886  1.00  0.00    -0.364 N 
ATOM      2  H11 UNL     1      14.710  15.216  20.659  1.00  0.00     0.159 HD
ATOM      3  H12 UNL     1      16.004  16.146  20.206  1.00  0.00     0.159 HD
HETATM    4  C1  UNL     1      14.594  15.839  18.698  1.00  0.00     0.240 C 
HETATM    5  O1  UNL     1      15.161  16.546  17.646  1.00  0.00    -0.318 OA
HETATM    6  C2  UNL     1      14.455  16.175  16.450  1.00  0.00     0.212 C 
HETATM    7  C3  UNL     1      13.065  15.949  17.008  1.00  0.00     0.085 C 
HETATM    8  C4  UNL     1      12.462  17.270  17.341  1.00  0.00     0.036 C 
HETATM    9  C5  UNL     1      11.098  17.424  16.750  1.00  0.00     0.003 C 
HETATM   10  C6  UNL     1      11.252  17.226  15.237  1.00  0.00     0.000 C 
HETATM   11  C7  UNL     1      11.622  15.800  14.968  1.00  0.00     0.003 C 
HETATM   12  C8  UNL     1      12.215  15.084  16.128  1.00  0.00     0.036 C 
HETATM   13  N2  UNL     1      13.369  15.267  18.250  1.00  0.00    -0.212 N 
ENDROOT
BRANCH  13  14
HETATM   14  O2  UNL     1      12.678  14.300  18.884  1.00  0.00    -0.283 OA
ATOM     15  H2  UNL     1      12.882  13.372  18.863  1.00  0.00     0.245 HD
ENDBRANCH  13  14
TORSDOF 1
ENDMDL
MODEL 4
REMARK VINA RESULT: -5.504146941      1.173      1.230
REMARK  1 active torsions:
REMARK  status: ('A' for Active; 'I' for Inactive)
REMARK    1  A    between atoms: N2_13  and  O2_14 
ROOT
HETATM    1  N1  UNL     1      14.611  15.038  17.831  1.00  0.00    -0.364 N 
ATOM      2  H11 UNL     1      14.463  14.814  18.815  1.00  0.00     0.159 HD
ATOM      3  H12 UNL     1      15.530  14.692  17.555  1.00  0.00     0.159 HD
HETATM    4  C1  UNL     1      13.745  15.665  17.081  1.00  0.00     0.240 C 
HETATM    5  O1  UNL     1      13.946  15.970  15.742  1.00  0.00    -0.318 OA
HETATM    6  C2  UNL     1      12.678  16.372  15.199  1.00  0.00     0.212 C 
HETATM    7  C3  UNL     1      12.062  17.050  16.405  1.00  0.00     0.085 C 
HETATM    8  C4  UNL     1      12.747  18.354  16.624  1.00  0.00     0.036 C 
HETATM    9  C5  UNL     1      11.772  19.478  16.764  1.00  0.00     0.003 C 
HETATM   10  C6  UNL     1      10.921  19.481  15.488  1.00  0.00     0.000 C 
HETATM   11  C7  UNL     1      10.074  18.246  15.466  1.00  0.00     0.003 C 
HETATM   12  C8  UNL     1      10.568  17.140  16.327  1.00  0.00     0.036 C 
HETATM   13  N2  UNL     1      12.462  16.148  17.467  1.00  0.00    -0.212 N 
ENDROOT
BRANCH  13  14
HETATM   14  O2  UNL     1      11.803  15.808  18.591  1.00  0.00    -0.283 OA
ATOM     15  H2  UNL     1      10.895  16.013  18.783  1.00  0.00     0.245 HD
ENDBRANCH  13  14
TORSDOF 1
ENDMDL
MODEL 5
REMARK VINA RESULT: -5.290458908      1.314      2.489
REMARK  1 active torsions:
REMARK  status: ('A' for Active; 'I' for Inactive)
REMARK    1  A    between atoms: N2_13  and  O2_14 
ROOT
HETATM    1  N1  UNL     1      14.777  13.772  19.087  1.00  0.00    -0.364 N 
ATOM      2  H11 UNL     1      15.776  13.958  19.175  1.00  0.00     0.159 HD
ATOM      3  H12 UNL     1      14.581  12.856  19.490  1.00  0.00     0.159 HD
HETATM    4  C1  UNL     1      13.921  14.595  18.542  1.00  0.00     0.240 C 
HETATM    5  O1  UNL     1      12.561  14.342  18.422  1.00  0.00    -0.318 OA
HETATM    6  C2  UNL     1      11.925  15.579  18.062  1.00  0.00     0.212 C 
HETATM    7  C3  UNL     1      13.010  16.211  17.215  1.00  0.00     0.085 C 
HETATM    8  C4  UNL     1      13.079  15.494  15.911  1.00  0.00     0.036 C 
HETATM    9  C5  UNL     1      13.036  16.438  14.754  1.00  0.00     0.003 C 
HETATM   10  C6  UNL     1      11.741  17.248  14.896  1.00  0.00     0.000 C 
HETATM   11  C7  UNL     1      11.851  18.131  16.101  1.00  0.00     0.003 C 
HETATM   12  C8  UNL     1      12.867  17.699  17.097  1.00  0.00     0.036 C 
HETATM   13  N2  UNL     1      14.194  15.874  17.979  1.00  0.00    -0.212 N 
ENDROOT
BRANCH  13  14
HETATM   14  O2  UNL     1      15.329  16.578  18.150  1.00  0.00    -0.283 OA
ATOM     15  H2  UNL     1      16.146  16.430  17.688  1.00  0.00     0.245 HD
ENDBRANCH  13  14
TORSDOF 1
ENDMDL
