MODEL 1
REMARK VINA RESULT: -5.179364507      0.000      0.000
REMARK  2 active torsions:
REMARK  status: ('A' for Active; 'I' for Inactive)
REMARK    1  A    between atoms: O1_1  and  C1_3 
REMARK    2  A    between atoms: C9_11  and  O2_12 
ROOT
HETATM    1  C1  UNL     1      12.090  16.224  15.335  1.00  0.00     0.152 C 
HETATM    2  C2  UNL     1      12.676  17.597  14.995  1.00  0.00     0.035 C 
HETATM    3  C3  UNL     1      13.994  17.665  15.765  1.00  0.00     0.010 C 
HETATM    4  C4  UNL     1      14.095  16.346  16.470  1.00  0.00     0.023 C 
HETATM    5  C5  UNL     1      14.750  16.407  17.808  1.00  0.00     0.007 C 
HETATM    6  C6  UNL     1      14.654  14.996  18.382  1.00  0.00     0.001 C 
HETATM    7  C7  UNL     1      13.217  14.573  18.572  1.00  0.00     0.003 C 
HETATM    8  C8  UNL     1      12.396  14.707  17.318  1.00  0.00     0.041 C 
HETATM    9  C9  UNL     1      12.612  16.056  16.719  1.00  0.00     0.087 C 
ENDROOT
BRANCH   1  10
HETATM   10  O1  UNL     1      10.733  16.185  15.206  1.00  0.00    -0.393 OA
ATOM     11  H1  UNL     1      10.450  16.191  14.299  1.00  0.00     0.210 HD
ENDBRANCH   1  10
BRANCH   9  12
HETATM   12  O2  UNL     1      12.145  17.094  17.502  1.00  0.00    -0.387 OA
ATOM     13  H2  UNL     1      11.436  17.531  17.044  1.00  0.00     0.210 HD
ENDBRANCH   9  12
TORSDOF 2
ENDMDL
MODEL 2
REMARK VINA RESULT: -4.933658198      2.178      3.524
REMARK  2 active torsions:
REMARK  status: ('A' for Active; 'I' for Inactive)
REMARK    1  A    between atoms: O1_1  and  C1_3 
REMARK    2  A    between atoms: C9_11  and  O2_12 
ROOT
HETATM    1  C1  UNL     1      14.817  16.427  19.090  1.00  0.00     0.152 C 
HETATM    2  C2  UNL     1      16.108  16.897  18.415  1.00  0.00     0.035 C 
HETATM    3  C3  UNL     1      15.742  17.076  16.942  1.00  0.00     0.010 C 
HETATM    4  C4  UNL     1      14.287  16.726  16.863  1.00  0.00     0.023 C 
HETATM    5  C5  UNL     1      13.878  16.057  15.595  1.00  0.00     0.007 C 
HETATM    6  C6  UNL     1      12.405  15.701  15.769  1.00  0.00     0.001 C 
HETATM    7  C7  UNL     1      12.200  14.731  16.909  1.00  0.00     0.003 C 
HETATM    8  C8  UNL     1      12.801  15.212  18.202  1.00  0.00     0.041 C 
HETATM    9  C9  UNL     1      14.202  15.667  17.967  1.00  0.00     0.087 C 
ENDROOT
BRANCH   1  10
HETATM   10  O1  UNL     1      15.048  15.715  20.229  1.00  0.00    -0.393 OA
ATOM     11  H1  UNL     1      14.427  15.915  20.919  1.00  0.00     0.210 HD
ENDBRANCH   1  10
BRANCH   9  12
HETATM   12  O2  UNL     1      15.061  14.652  17.591  1.00  0.00    -0.387 OA
ATOM     13  H2  UNL     1      14.556  13.861  17.441  1.00  0.00     0.210 HD
ENDBRANCH   9  12
TORSDOF 2
ENDMDL
MODEL 3
REMARK VINA RESULT: -4.884362950      1.826      3.351
REMARK  2 active torsions:
REMARK  status: ('A' for Active; 'I' for Inactive)
REMARK    1  A    between atoms: O1_1  and  C1_3 
REMARK    2  A    between atoms: C9_11  and  O2_12 
ROOT
HETATM    1  C1  UNL     1      14.458  15.780  17.712  1.00  0.00     0.152 C 
HETATM    2  C2  UNL     1      15.517  16.825  17.349  1.00  0.00     0.035 C 
HETATM    3  C3  UNL     1      14.802  17.804  16.417  1.00  0.00     0.010 C 
HETATM    4  C4  UNL     1      13.400  17.286  16.319  1.00  0.00     0.023 C 
HETATM    5  C5  UNL     1      12.755  17.489  14.990  1.00  0.00     0.007 C 
HETATM    6  C6  UNL     1      11.394  16.805  15.080  1.00  0.00     0.001 C 
HETATM    7  C7  UNL     1      11.535  15.321  15.319  1.00  0.00     0.003 C 
HETATM    8  C8  UNL     1      12.385  15.000  16.520  1.00  0.00     0.041 C 
HETATM    9  C9  UNL     1      13.655  15.782  16.459  1.00  0.00     0.087 C 
ENDROOT
BRANCH   1  10
HETATM   10  O1  UNL     1      15.002  14.581  18.064  1.00  0.00    -0.393 OA
ATOM     11  H1  UNL     1      14.391  13.860  17.971  1.00  0.00     0.210 HD
ENDBRANCH   1  10
BRANCH   9  12
HETATM   12  O2  UNL     1      14.473  15.432  15.402  1.00  0.00    -0.387 OA
ATOM     13  H2  UNL     1      14.111  14.667  14.972  1.00  0.00     0.210 HD
ENDBRANCH   9  12
TORSDOF 2
ENDMDL
MODEL 4
REMARK VINA RESULT: -4.824514259      1.747      2.700
REMARK  2 active torsions:
REMARK  status: ('A' for Active; 'I' for Inactive)
REMARK    1  A    between atoms: O1_1  and  C1_3 
REMARK    2  A    between atoms: C9_11  and  O2_12 
ROOT
HETATM    1  C1  UNL     1      13.034  14.709  17.940  1.00  0.00     0.152 C 
HETATM    2  C2  UNL     1      12.342  15.367  16.743  1.00  0.00     0.035 C 
HETATM    3  C3  UNL     1      13.397  16.293  16.138  1.00  0.00     0.010 C 
HETATM    4  C4  UNL     1      14.613  16.099  16.991  1.00  0.00     0.023 C 
HETATM    5  C5  UNL     1      15.444  17.324  17.174  1.00  0.00     0.007 C 
HETATM    6  C6  UNL     1      16.554  16.931  18.145  1.00  0.00     0.001 C 
HETATM    7  C7  UNL     1      15.996  16.527  19.489  1.00  0.00     0.003 C 
HETATM    8  C8  UNL     1      14.954  15.446  19.389  1.00  0.00     0.041 C 
HETATM    9  C9  UNL     1      13.954  15.808  18.342  1.00  0.00     0.087 C 
ENDROOT
BRANCH   1  10
HETATM   10  O1  UNL     1      12.153  14.296  18.895  1.00  0.00    -0.393 OA
ATOM     11  H1  UNL     1      12.254  14.766  19.714  1.00  0.00     0.210 HD
ENDBRANCH   1  10
BRANCH   9  12
HETATM   12  O2  UNL     1      13.205  16.927  18.652  1.00  0.00    -0.387 OA
ATOM     13  H2  UNL     1      13.769  17.572  19.061  1.00  0.00     0.210 HD
ENDBRANCH   9  12
TORSDOF 2
ENDMDL
MODEL 5
REMARK VINA RESULT: -4.803643239      5.610      7.014
REMARK  2 active torsions:
REMARK  status: ('A' for Active; 'I' for Inactive)
REMARK    1  A    between atoms: O1_1  and  C1_3 
REMARK    2  A    between atoms: C9_11  and  O2_12 
ROOT
HETATM    1  C1  UNL     1      18.798  18.046  19.847  1.00  0.00     0.152 C 
HETATM    2  C2  UNL     1      18.229  17.230  18.683  1.00  0.00     0.035 C 
HETATM    3  C3  UNL     1      16.874  16.727  19.179  1.00  0.00     0.010 C 
HETATM    4  C4  UNL     1      16.738  17.290  20.561  1.00  0.00     0.023 C 
HETATM    5  C5  UNL     1      16.018  16.406  21.522  1.00  0.00     0.007 C 
HETATM    6  C6  UNL     1      16.085  17.118  22.871  1.00  0.00     0.001 C 
HETATM    7  C7  UNL     1      17.511  17.274  23.343  1.00  0.00     0.003 C 
HETATM    8  C8  UNL     1      18.393  17.949  22.327  1.00  0.00     0.041 C 
HETATM    9  C9  UNL     1      18.207  17.305  20.994  1.00  0.00     0.087 C 
ENDROOT
BRANCH   1  10
HETATM   10  O1  UNL     1      20.159  18.115  19.825  1.00  0.00    -0.393 OA
ATOM     11  H1  UNL     1      20.490  18.948  20.142  1.00  0.00     0.210 HD
ENDBRANCH   1  10
BRANCH   9  12
HETATM   12  O2  UNL     1      18.635  15.992  20.946  1.00  0.00    -0.387 OA
ATOM     13  H2  UNL     1      19.060  15.837  20.111  1.00  0.00     0.210 HD
ENDBRANCH   9  12
TORSDOF 2
ENDMDL
