MODEL 1
REMARK VINA RESULT: -7.673123638      0.000      0.000
REMARK  8 active torsions:
REMARK  status: ('A' for Active; 'I' for Inactive)
REMARK    1  A    between atoms: S1_2  and  C2_5 
REMARK    2  A    between atoms: N3_10  and  C3_11 
REMARK    3  A    between atoms: C4_14  and  N5_15 
REMARK    4  A    between atoms: C5_18  and  C6_19 
REMARK    5  A    between atoms: C6_19  and  N6_20 
REMARK    6  A    between atoms: C6_19  and  O3_24 
REMARK    7  A    between atoms: C7_26  and  N7_27 
REMARK    8  A    between atoms: N8_30  and  O4_31 
ROOT
HETATM    1  C3  UNL     1      -0.177 -19.866   6.652  1.00  0.00     0.723 A 
HETATM    2  N4  UNL     1      -0.519 -21.121   6.947  1.00  0.00    -0.173 N 
ATOM      3  H4  UNL     1      -1.306 -21.276   7.577  1.00  0.00     0.186 HD
HETATM    4  C4  UNL     1       0.138 -22.214   6.444  1.00  0.00     0.129 A 
HETATM    5  C5  UNL     1       1.218 -21.944   5.577  1.00  0.00     0.086 A 
HETATM    6  C7  UNL     1       1.563 -20.669   5.280  1.00  0.00     0.134 A 
HETATM    7  N9  UNL     1       0.854 -19.625   5.827  1.00  0.00    -0.173 N 
ATOM      8  H9  UNL     1       1.114 -18.664   5.605  1.00  0.00     0.186 HD
ENDROOT
BRANCH   1   9
HETATM    9  N3  UNL     1      -0.925 -18.780   7.228  1.00  0.00    -0.003 N 
HETATM   10  N2  UNL     1      -1.565 -18.760   8.376  1.00  0.00    -0.204 N 
HETATM   11  N1  UNL     1      -2.115 -17.569   8.517  1.00  0.00    -0.258 N 
ATOM     12  H2  UNL     1      -1.625 -19.530   9.042  1.00  0.00     0.211 HD
HETATM   13  C2  UNL     1      -1.807 -16.836   7.428  1.00  0.00     0.235 A 
ATOM     14  H1  UNL     1      -2.675 -17.258   9.310  1.00  0.00     0.191 HD
HETATM   15  N10 UNL     1      -1.064 -17.618   6.641  1.00  0.00    -0.237 N 
ATOM     16  H10 UNL     1      -0.671 -17.355   5.737  1.00  0.00     0.192 HD
BRANCH  13  17
HETATM   17  S1  UNL     1      -2.343 -15.190   7.214  1.00  0.00     0.206 S 
HETATM   18  C1  UNL     1      -3.966 -14.974   7.881  1.00  0.00     0.170 C 
HETATM   19  O1  UNL     1      -2.354 -14.811   5.741  1.00  0.00    -0.220 OA
HETATM   20  O2  UNL     1      -1.403 -14.237   7.898  1.00  0.00    -0.220 OA
ENDBRANCH  13  17
ENDBRANCH   1   9
BRANCH   4  21
HETATM   21  N5  UNL     1      -0.236 -23.354   6.794  1.00  0.00    -0.384 N 
ATOM     22  H52 UNL     1       0.262 -23.960   7.445  1.00  0.00     0.157 HD
ATOM     23  H51 UNL     1      -1.115 -23.716   6.426  1.00  0.00     0.157 HD
ENDBRANCH   4  21
BRANCH   6  24
HETATM   24  N7  UNL     1       2.654 -20.353   4.411  1.00  0.00    -0.360 N 
HETATM   25  C8  UNL     1       3.945 -20.049   4.932  1.00  0.00     0.147 C 
HETATM   26  C9  UNL     1       5.048 -19.952   3.958  1.00  0.00     0.174 C 
HETATM   27  N8  UNL     1       4.640 -19.571   2.637  1.00  0.00    -0.273 N 
HETATM   28  C10 UNL     1       3.530 -20.284   2.144  1.00  0.00     0.109 C 
HETATM   29  C11 UNL     1       2.344 -20.299   3.027  1.00  0.00     0.171 C 
BRANCH  27  30
HETATM   30  O4  UNL     1       4.675 -18.276   2.374  1.00  0.00    -0.288 OA
ATOM     31  H4  UNL     1       3.831 -17.846   2.297  1.00  0.00     0.244 HD
ENDBRANCH  27  30
ENDBRANCH   6  24
BRANCH   5  32
HETATM   32  C6  UNL     1       1.874 -23.110   5.022  1.00  0.00     0.358 C 
BRANCH  32  33
HETATM   33  N6  UNL     1       2.862 -23.731   5.918  1.00  0.00    -0.049 N 
ATOM     34  H63 UNL     1       3.634 -23.088   6.098  1.00  0.00     0.277 HD
ATOM     35  H62 UNL     1       2.484 -23.817   6.861  1.00  0.00     0.277 HD
ATOM     36  H61 UNL     1       3.217 -24.630   5.591  1.00  0.00     0.277 HD
ENDBRANCH  32  33
BRANCH  32  37
HETATM   37  O3  UNL     1       1.154 -24.112   4.485  1.00  0.00    -0.366 OA
ATOM     38  H3  UNL     1       0.774 -24.786   5.037  1.00  0.00     0.212 HD
ENDBRANCH  32  37
ENDBRANCH   5  32
TORSDOF 8
ENDMDL
MODEL 2
REMARK VINA RESULT: -7.199148956      1.013      1.393
REMARK  8 active torsions:
REMARK  status: ('A' for Active; 'I' for Inactive)
REMARK    1  A    between atoms: S1_2  and  C2_5 
REMARK    2  A    between atoms: N3_10  and  C3_11 
REMARK    3  A    between atoms: C4_14  and  N5_15 
REMARK    4  A    between atoms: C5_18  and  C6_19 
REMARK    5  A    between atoms: C6_19  and  N6_20 
REMARK    6  A    between atoms: C6_19  and  O3_24 
REMARK    7  A    between atoms: C7_26  and  N7_27 
REMARK    8  A    between atoms: N8_30  and  O4_31 
ROOT
HETATM    1  C3  UNL     1      -0.485 -20.035   6.989  1.00  0.00     0.723 A 
HETATM    2  N4  UNL     1      -0.751 -21.219   7.541  1.00  0.00    -0.173 N 
ATOM      3  H4  UNL     1      -1.435 -21.260   8.297  1.00  0.00     0.186 HD
HETATM    4  C4  UNL     1      -0.151 -22.384   7.141  1.00  0.00     0.129 A 
HETATM    5  C5  UNL     1       0.785 -22.271   6.091  1.00  0.00     0.086 A 
HETATM    6  C7  UNL     1       1.054 -21.068   5.533  1.00  0.00     0.134 A 
HETATM    7  N9  UNL     1       0.410 -19.943   5.992  1.00  0.00    -0.173 N 
ATOM      8  H9  UNL     1       0.613 -19.035   5.573  1.00  0.00     0.186 HD
ENDROOT
BRANCH   1   9
HETATM    9  N3  UNL     1      -1.164 -18.863   7.475  1.00  0.00    -0.003 N 
HETATM   10  N2  UNL     1      -1.820 -18.721   8.605  1.00  0.00    -0.204 N 
HETATM   11  N1  UNL     1      -2.289 -17.489   8.653  1.00  0.00    -0.258 N 
ATOM     12  H2  UNL     1      -1.946 -19.439   9.320  1.00  0.00     0.211 HD
HETATM   13  C2  UNL     1      -1.912 -16.854   7.526  1.00  0.00     0.235 A 
ATOM     14  H1  UNL     1      -2.839 -17.086   9.412  1.00  0.00     0.191 HD
HETATM   15  N10 UNL     1      -1.211 -17.737   6.809  1.00  0.00    -0.237 N 
ATOM     16  H10 UNL     1      -0.786 -17.563   5.898  1.00  0.00     0.192 HD
BRANCH  13  17
HETATM   17  S1  UNL     1      -2.328 -15.194   7.191  1.00  0.00     0.206 S 
HETATM   18  C1  UNL     1      -3.950 -14.827   7.791  1.00  0.00     0.170 C 
HETATM   19  O1  UNL     1      -2.273 -14.912   5.697  1.00  0.00    -0.220 OA
HETATM   20  O2  UNL     1      -1.344 -14.263   7.842  1.00  0.00    -0.220 OA
ENDBRANCH  13  17
ENDBRANCH   1   9
BRANCH   4  21
HETATM   21  N5  UNL     1      -0.444 -23.446   7.732  1.00  0.00    -0.384 N 
ATOM     22  H52 UNL     1      -1.350 -23.653   8.150  1.00  0.00     0.157 HD
ATOM     23  H51 UNL     1       0.259 -24.182   7.795  1.00  0.00     0.157 HD
ENDBRANCH   4  21
BRANCH   6  24
HETATM   24  N7  UNL     1       2.000 -20.910   4.471  1.00  0.00    -0.360 N 
HETATM   25  C8  UNL     1       1.582 -20.914   3.108  1.00  0.00     0.147 C 
HETATM   26  C9  UNL     1       2.591 -20.529   2.104  1.00  0.00     0.174 C 
HETATM   27  N8  UNL     1       3.947 -20.784   2.497  1.00  0.00    -0.273 N 
HETATM   28  C10 UNL     1       4.267 -20.347   3.797  1.00  0.00     0.109 C 
HETATM   29  C11 UNL     1       3.360 -20.818   4.865  1.00  0.00     0.171 C 
BRANCH  27  30
HETATM   30  O4  UNL     1       4.443 -21.953   2.128  1.00  0.00    -0.288 OA
ATOM     31  H4  UNL     1       5.044 -21.935   1.392  1.00  0.00     0.244 HD
ENDBRANCH  27  30
ENDBRANCH   6  24
BRANCH   5  32
HETATM   32  C6  UNL     1       1.379 -23.517   5.653  1.00  0.00     0.358 C 
BRANCH  32  33
HETATM   33  N6  UNL     1       2.518 -23.964   6.470  1.00  0.00    -0.049 N 
ATOM     34  H63 UNL     1       3.285 -23.296   6.409  1.00  0.00     0.277 HD
ATOM     35  H62 UNL     1       2.297 -23.885   7.463  1.00  0.00     0.277 HD
ATOM     36  H61 UNL     1       2.846 -24.905   6.252  1.00  0.00     0.277 HD
ENDBRANCH  32  33
BRANCH  32  37
HETATM   37  O3  UNL     1       0.614 -24.602   5.429  1.00  0.00    -0.366 OA
ATOM     38  H3  UNL     1       0.749 -25.401   5.924  1.00  0.00     0.212 HD
ENDBRANCH  32  37
ENDBRANCH   5  32
TORSDOF 8
ENDMDL
MODEL 3
REMARK VINA RESULT: -7.017891885      2.960      7.550
REMARK  8 active torsions:
REMARK  status: ('A' for Active; 'I' for Inactive)
REMARK    1  A    between atoms: S1_2  and  C2_5 
REMARK    2  A    between atoms: N3_10  and  C3_11 
REMARK    3  A    between atoms: C4_14  and  N5_15 
REMARK    4  A    between atoms: C5_18  and  C6_19 
REMARK    5  A    between atoms: C6_19  and  N6_20 
REMARK    6  A    between atoms: C6_19  and  O3_24 
REMARK    7  A    between atoms: C7_26  and  N7_27 
REMARK    8  A    between atoms: N8_30  and  O4_31 
ROOT
HETATM    1  C3  UNL     1      -1.143 -19.873   7.244  1.00  0.00     0.723 A 
HETATM    2  N4  UNL     1      -1.455 -20.648   8.284  1.00  0.00    -0.173 N 
ATOM      3  H4  UNL     1      -1.061 -21.588   8.325  1.00  0.00     0.186 HD
HETATM    4  C4  UNL     1      -2.281 -20.241   9.300  1.00  0.00     0.129 A 
HETATM    5  C5  UNL     1      -2.797 -18.933   9.193  1.00  0.00     0.086 A 
HETATM    6  C7  UNL     1      -2.479 -18.149   8.137  1.00  0.00     0.134 A 
HETATM    7  N9  UNL     1      -1.644 -18.630   7.156  1.00  0.00    -0.173 N 
ATOM      8  H9  UNL     1      -1.404 -18.040   6.359  1.00  0.00     0.186 HD
ENDROOT
BRANCH   1   9
HETATM    9  N3  UNL     1      -0.267 -20.385   6.224  1.00  0.00    -0.003 N 
HETATM   10  N2  UNL     1       0.282 -21.577   6.154  1.00  0.00    -0.204 N 
HETATM   11  N1  UNL     1       1.013 -21.627   5.057  1.00  0.00    -0.258 N 
ATOM     12  H2  UNL     1       0.163 -22.332   6.831  1.00  0.00     0.211 HD
HETATM   13  C2  UNL     1       0.912 -20.436   4.434  1.00  0.00     0.235 A 
ATOM     14  H1  UNL     1       1.558 -22.427   4.737  1.00  0.00     0.191 HD
HETATM   15  N10 UNL     1       0.108 -19.681   5.185  1.00  0.00    -0.237 N 
ATOM     16  H10 UNL     1      -0.168 -18.720   4.984  1.00  0.00     0.192 HD
BRANCH  13  17
HETATM   17  S1  UNL     1       1.732 -20.082   2.936  1.00  0.00     0.206 S 
HETATM   18  C1  UNL     1       3.358 -20.775   2.938  1.00  0.00     0.170 C 
HETATM   19  O1  UNL     1       1.830 -18.580   2.714  1.00  0.00    -0.220 OA
HETATM   20  O2  UNL     1       0.964 -20.641   1.770  1.00  0.00    -0.220 OA
ENDBRANCH  13  17
ENDBRANCH   1   9
BRANCH   4  21
HETATM   21  N5  UNL     1      -2.539 -21.044  10.222  1.00  0.00    -0.384 N 
ATOM     22  H52 UNL     1      -2.544 -20.814  11.216  1.00  0.00     0.157 HD
ATOM     23  H51 UNL     1      -2.784 -22.004   9.983  1.00  0.00     0.157 HD
ENDBRANCH   4  21
BRANCH   6  24
HETATM   24  N7  UNL     1      -2.986 -16.819   7.989  1.00  0.00    -0.360 N 
HETATM   25  C8  UNL     1      -4.321 -16.495   8.367  1.00  0.00     0.147 C 
HETATM   26  C9  UNL     1      -4.678 -15.064   8.381  1.00  0.00     0.174 C 
HETATM   27  N8  UNL     1      -3.913 -14.253   7.479  1.00  0.00    -0.273 N 
HETATM   28  C10 UNL     1      -2.523 -14.476   7.534  1.00  0.00     0.109 C 
HETATM   29  C11 UNL     1      -2.101 -15.886   7.389  1.00  0.00     0.171 C 
BRANCH  27  30
HETATM   30  O4  UNL     1      -4.437 -14.078   6.278  1.00  0.00    -0.288 OA
ATOM     31  H4  UNL     1      -3.846 -14.210   5.545  1.00  0.00     0.244 HD
ENDBRANCH  27  30
ENDBRANCH   6  24
BRANCH   5  32
HETATM   32  C6  UNL     1      -3.634 -18.505  10.295  1.00  0.00     0.358 C 
BRANCH  32  33
HETATM   33  N6  UNL     1      -5.049 -18.890  10.165  1.00  0.00    -0.049 N 
ATOM     34  H63 UNL     1      -5.129 -19.819   9.753  1.00  0.00     0.277 HD
ATOM     35  H62 UNL     1      -5.455 -19.070  11.082  1.00  0.00     0.277 HD
ATOM     36  H61 UNL     1      -5.618 -18.220   9.647  1.00  0.00     0.277 HD
ENDBRANCH  32  33
BRANCH  32  37
HETATM   37  O3  UNL     1      -3.279 -18.763  11.568  1.00  0.00    -0.366 OA
ATOM     38  H3  UNL     1      -2.401 -19.061  11.775  1.00  0.00     0.212 HD
ENDBRANCH  32  37
ENDBRANCH   5  32
TORSDOF 8
ENDMDL
MODEL 4
REMARK VINA RESULT: -7.015201207      2.927      7.605
REMARK  8 active torsions:
REMARK  status: ('A' for Active; 'I' for Inactive)
REMARK    1  A    between atoms: S1_2  and  C2_5 
REMARK    2  A    between atoms: N3_10  and  C3_11 
REMARK    3  A    between atoms: C4_14  and  N5_15 
REMARK    4  A    between atoms: C5_18  and  C6_19 
REMARK    5  A    between atoms: C6_19  and  N6_20 
REMARK    6  A    between atoms: C6_19  and  O3_24 
REMARK    7  A    between atoms: C7_26  and  N7_27 
REMARK    8  A    between atoms: N8_30  and  O4_31 
ROOT
HETATM    1  C3  UNL     1      -0.960 -19.741   7.361  1.00  0.00     0.723 A 
HETATM    2  N4  UNL     1      -1.367 -20.525   8.360  1.00  0.00    -0.173 N 
ATOM      3  H4  UNL     1      -0.975 -21.464   8.432  1.00  0.00     0.186 HD
HETATM    4  C4  UNL     1      -2.288 -20.128   9.295  1.00  0.00     0.129 A 
HETATM    5  C5  UNL     1      -2.796 -18.821   9.150  1.00  0.00     0.086 A 
HETATM    6  C7  UNL     1      -2.382 -18.028   8.134  1.00  0.00     0.134 A 
HETATM    7  N9  UNL     1      -1.455 -18.499   7.234  1.00  0.00    -0.173 N 
ATOM      8  H9  UNL     1      -1.143 -17.903   6.467  1.00  0.00     0.186 HD
ENDROOT
BRANCH   1   9
HETATM    9  N3  UNL     1       0.011 -20.242   6.424  1.00  0.00    -0.003 N 
HETATM   10  N2  UNL     1      -0.105 -21.271   5.614  1.00  0.00    -0.204 N 
HETATM   11  N1  UNL     1       1.018 -21.381   4.930  1.00  0.00    -0.258 N 
ATOM     12  H2  UNL     1      -0.921 -21.877   5.529  1.00  0.00     0.211 HD
HETATM   13  C2  UNL     1       1.847 -20.396   5.329  1.00  0.00     0.235 A 
ATOM     14  H1  UNL     1       1.223 -22.088   4.224  1.00  0.00     0.191 HD
HETATM   15  N10 UNL     1       1.192 -19.701   6.262  1.00  0.00    -0.237 N 
ATOM     16  H10 UNL     1       1.551 -18.888   6.763  1.00  0.00     0.192 HD
BRANCH  13  17
HETATM   17  S1  UNL     1       3.448 -20.183   4.668  1.00  0.00     0.206 S 
HETATM   18  C1  UNL     1       3.727 -21.316   3.340  1.00  0.00     0.170 C 
HETATM   19  O1  UNL     1       4.508 -20.397   5.738  1.00  0.00    -0.220 OA
HETATM   20  O2  UNL     1       3.625 -18.779   4.159  1.00  0.00    -0.220 OA
ENDBRANCH  13  17
ENDBRANCH   1   9
BRANCH   4  21
HETATM   21  N5  UNL     1      -2.629 -20.938  10.183  1.00  0.00    -0.384 N 
ATOM     22  H52 UNL     1      -3.379 -20.788  10.858  1.00  0.00     0.157 HD
ATOM     23  H51 UNL     1      -2.145 -21.834  10.243  1.00  0.00     0.157 HD
ENDBRANCH   4  21
BRANCH   6  24
HETATM   24  N7  UNL     1      -2.877 -16.698   7.948  1.00  0.00    -0.360 N 
HETATM   25  C8  UNL     1      -4.223 -16.363   8.276  1.00  0.00     0.147 C 
HETATM   26  C9  UNL     1      -4.573 -14.931   8.255  1.00  0.00     0.174 C 
HETATM   27  N8  UNL     1      -3.775 -14.137   7.366  1.00  0.00    -0.273 N 
HETATM   28  C10 UNL     1      -2.388 -14.365   7.471  1.00  0.00     0.109 C 
HETATM   29  C11 UNL     1      -1.969 -15.779   7.363  1.00  0.00     0.171 C 
BRANCH  27  30
HETATM   30  O4  UNL     1      -4.257 -13.980   6.145  1.00  0.00    -0.288 OA
ATOM     31  H4  UNL     1      -3.917 -13.238   5.658  1.00  0.00     0.244 HD
ENDBRANCH  27  30
ENDBRANCH   6  24
BRANCH   5  32
HETATM   32  C6  UNL     1      -3.736 -18.404  10.170  1.00  0.00     0.358 C 
BRANCH  32  33
HETATM   33  N6  UNL     1      -5.130 -18.794   9.903  1.00  0.00    -0.049 N 
ATOM     34  H63 UNL     1      -5.726 -18.552  10.695  1.00  0.00     0.277 HD
ATOM     35  H62 UNL     1      -5.538 -18.193   9.188  1.00  0.00     0.277 HD
ATOM     36  H61 UNL     1      -5.249 -19.777   9.655  1.00  0.00     0.277 HD
ENDBRANCH  32  33
BRANCH  32  37
HETATM   37  O3  UNL     1      -3.502 -18.667  11.469  1.00  0.00    -0.366 OA
ATOM     38  H3  UNL     1      -3.477 -17.966  12.109  1.00  0.00     0.212 HD
ENDBRANCH  32  37
ENDBRANCH   5  32
TORSDOF 8
ENDMDL
MODEL 5
REMARK VINA RESULT: -6.688148519      1.767      1.947
REMARK  8 active torsions:
REMARK  status: ('A' for Active; 'I' for Inactive)
REMARK    1  A    between atoms: S1_2  and  C2_5 
REMARK    2  A    between atoms: N3_10  and  C3_11 
REMARK    3  A    between atoms: C4_14  and  N5_15 
REMARK    4  A    between atoms: C5_18  and  C6_19 
REMARK    5  A    between atoms: C6_19  and  N6_20 
REMARK    6  A    between atoms: C6_19  and  O3_24 
REMARK    7  A    between atoms: C7_26  and  N7_27 
REMARK    8  A    between atoms: N8_30  and  O4_31 
ROOT
HETATM    1  C3  UNL     1      -0.121 -20.093   6.612  1.00  0.00     0.723 A 
HETATM    2  N4  UNL     1      -0.395 -21.378   6.844  1.00  0.00    -0.173 N 
ATOM      3  H4  UNL     1      -1.174 -21.605   7.462  1.00  0.00     0.186 HD
HETATM    4  C4  UNL     1       0.321 -22.408   6.292  1.00  0.00     0.129 A 
HETATM    5  C5  UNL     1       1.387 -22.039   5.444  1.00  0.00     0.086 A 
HETATM    6  C7  UNL     1       1.663 -20.735   5.210  1.00  0.00     0.134 A 
HETATM    7  N9  UNL     1       0.898 -19.758   5.803  1.00  0.00    -0.173 N 
ATOM      8  H9  UNL     1       1.106 -18.774   5.629  1.00  0.00     0.186 HD
ENDROOT
BRANCH   1   9
HETATM    9  N3  UNL     1      -0.927 -19.078   7.236  1.00  0.00    -0.003 N 
HETATM   10  N2  UNL     1      -0.616 -17.820   7.452  1.00  0.00    -0.204 N 
HETATM   11  N1  UNL     1      -1.640 -17.241   8.048  1.00  0.00    -0.258 N 
ATOM     12  H2  UNL     1       0.265 -17.369   7.202  1.00  0.00     0.211 HD
HETATM   13  C2  UNL     1      -2.608 -18.166   8.204  1.00  0.00     0.235 A 
ATOM     14  H1  UNL     1      -1.691 -16.266   8.341  1.00  0.00     0.191 HD
HETATM   15  N10 UNL     1      -2.136 -19.303   7.688  1.00  0.00    -0.237 N 
ATOM     16  H10 UNL     1      -2.630 -20.194   7.652  1.00  0.00     0.192 HD
BRANCH  13  17
HETATM   17  S1  UNL     1      -4.142 -17.811   8.956  1.00  0.00     0.206 S 
HETATM   18  C1  UNL     1      -4.481 -16.077   8.887  1.00  0.00     0.170 C 
HETATM   19  O1  UNL     1      -4.152 -18.265  10.407  1.00  0.00    -0.220 OA
HETATM   20  O2  UNL     1      -5.252 -18.554   8.264  1.00  0.00    -0.220 OA
ENDBRANCH  13  17
ENDBRANCH   1   9
BRANCH   4  21
HETATM   21  N5  UNL     1       0.009 -23.582   6.585  1.00  0.00    -0.384 N 
ATOM     22  H52 UNL     1       0.508 -24.174   7.249  1.00  0.00     0.157 HD
ATOM     23  H51 UNL     1      -0.818 -23.992   6.152  1.00  0.00     0.157 HD
ENDBRANCH   4  21
BRANCH   6  24
HETATM   24  N7  UNL     1       2.737 -20.319   4.362  1.00  0.00    -0.360 N 
HETATM   25  C8  UNL     1       4.014 -19.987   4.902  1.00  0.00     0.147 C 
HETATM   26  C9  UNL     1       5.109 -19.783   3.936  1.00  0.00     0.174 C 
HETATM   27  N8  UNL     1       4.682 -19.344   2.639  1.00  0.00    -0.273 N 
HETATM   28  C10 UNL     1       3.605 -20.077   2.104  1.00  0.00     0.109 C 
HETATM   29  C11 UNL     1       2.422 -20.198   2.983  1.00  0.00     0.171 C 
BRANCH  27  30
HETATM   30  O4  UNL     1       4.658 -18.035   2.453  1.00  0.00    -0.288 OA
ATOM     31  H4  UNL     1       4.843 -17.505   3.219  1.00  0.00     0.244 HD
ENDBRANCH  27  30
ENDBRANCH   6  24
BRANCH   5  32
HETATM   32  C6  UNL     1       2.106 -23.140   4.837  1.00  0.00     0.358 C 
BRANCH  32  33
HETATM   33  N6  UNL     1       3.127 -23.747   5.705  1.00  0.00    -0.049 N 
ATOM     34  H63 UNL     1       2.691 -24.361   6.393  1.00  0.00     0.277 HD
ATOM     35  H62 UNL     1       3.676 -24.430   5.185  1.00  0.00     0.277 HD
ATOM     36  H61 UNL     1       3.738 -23.073   6.166  1.00  0.00     0.277 HD
ENDBRANCH  32  33
BRANCH  32  37
HETATM   37  O3  UNL     1       1.442 -24.154   4.251  1.00  0.00    -0.366 OA
ATOM     38  H3  UNL     1       0.870 -24.717   4.760  1.00  0.00     0.212 HD
ENDBRANCH  32  37
ENDBRANCH   5  32
TORSDOF 8
ENDMDL
