MODEL 1
REMARK VINA RESULT: -6.969741307      0.000      0.000
REMARK  13 active torsions:
REMARK  status: ('A' for Active; 'I' for Inactive)
REMARK    1  A    between atoms: N1_1  and  C1_4 
REMARK    2  A    between atoms: C1_4  and  C2_5 
REMARK    3  A    between atoms: N2_10  and  N3_11 
REMARK    4  A    between atoms: N3_11  and  O3_13 
REMARK    5  A    between atoms: C6_20  and  O5_21 
REMARK    6  A    between atoms: C7_23  and  C8_24 
REMARK    7  A    between atoms: C8_24  and  C9_25 
REMARK    8  A    between atoms: C9_25  and  C10_26 
REMARK    9  A    between atoms: C10_26  and  N6_27 
REMARK   10  A    between atoms: N7_31  and  N8_33 
REMARK   11  A    between atoms: N8_33  and  C11_35 
REMARK   12  A    between atoms: C11_35  and  O6_36 
REMARK   13  A    between atoms: N9_38  and  O7_40 
ROOT
HETATM    1  C2  UNL     1      -0.978 -21.011   8.093  1.00  0.00     0.112 A 
HETATM    2  C3  UNL     1      -1.452 -21.654   9.254  1.00  0.00     0.264 A 
HETATM    3  O1  UNL     1      -1.044 -22.775   9.559  1.00  0.00    -0.281 OA
HETATM    4  C4  UNL     1      -2.375 -21.025  10.056  1.00  0.00     0.335 A 
HETATM    5  O2  UNL     1      -2.831 -21.548  11.102  1.00  0.00    -0.260 OA
HETATM    6  N2  UNL     1      -2.772 -19.808   9.660  1.00  0.00    -0.122 N 
HETATM    7  N4  UNL     1      -2.339 -19.180   8.583  1.00  0.00    -0.177 N 
HETATM    8  C5  UNL     1      -2.875 -18.002   8.251  1.00  0.00     0.349 A 
HETATM    9  O4  UNL     1      -3.747 -17.477   9.020  1.00  0.00    -0.244 OA
HETATM   10  N5  UNL     1      -2.507 -17.396   7.148  1.00  0.00    -0.287 N 
ATOM     11  H5  UNL     1      -2.932 -16.502   6.902  1.00  0.00     0.172 HD
HETATM   12  C6  UNL     1      -1.569 -17.938   6.328  1.00  0.00     0.158 A 
HETATM   13  C7  UNL     1      -0.944 -19.174   6.608  1.00  0.00     0.070 A 
HETATM   14  C12 UNL     1      -1.394 -19.779   7.757  1.00  0.00     0.104 A 
ENDROOT
BRANCH  13  15
HETATM   15  C8  UNL     1       0.347 -19.464   6.006  1.00  0.00     0.044 C 
HETATM   16  N7  UNL     1       1.494 -19.441   6.289  1.00  0.00    -0.301 N 
ATOM     17  H7  UNL     1       1.530 -19.117   7.255  1.00  0.00     0.186 HD
BRANCH  15  18
HETATM   18  C9  UNL     1       0.150 -19.910   4.550  1.00  0.00     0.087 C 
BRANCH  18  19
HETATM   19  C10 UNL     1       0.927 -19.162   3.529  1.00  0.00     0.235 C 
BRANCH  19  20
HETATM   20  N6  UNL     1       1.450 -20.312   2.684  1.00  0.00    -0.079 N 
ATOM     21  H63 UNL     1       0.907 -21.174   2.726  1.00  0.00     0.274 HD
ATOM     22  H62 UNL     1       1.352 -20.198   1.675  1.00  0.00     0.274 HD
ATOM     23  H61 UNL     1       2.408 -20.376   3.029  1.00  0.00     0.274 HD
ENDBRANCH  19  20
ENDBRANCH  18  19
ENDBRANCH  15  18
BRANCH  16  24
HETATM   24  N8  UNL     1       2.773 -19.642   5.929  1.00  0.00    -0.264 N 
ATOM     25  H8  UNL     1       3.338 -18.792   5.953  1.00  0.00     0.190 HD
BRANCH  24  26
HETATM   26  C11 UNL     1       3.498 -20.784   5.525  1.00  0.00     0.256 C 
HETATM   27  N9  UNL     1       4.778 -20.742   5.460  1.00  0.00    -0.232 N 
ATOM     28  H9  UNL     1       5.237 -19.865   5.708  1.00  0.00     0.198 HD
BRANCH  26  29
HETATM   29  O6  UNL     1       2.889 -21.987   5.183  1.00  0.00    -0.330 OA
ATOM     30  H6  UNL     1       2.859 -22.317   4.294  1.00  0.00     0.221 HD
ENDBRANCH  26  29
BRANCH  27  31
HETATM   31  O7  UNL     1       5.565 -21.783   5.084  1.00  0.00    -0.287 OA
ATOM     32  H7  UNL     1       6.503 -21.726   4.943  1.00  0.00     0.244 HD
ENDBRANCH  27  31
ENDBRANCH  24  26
ENDBRANCH  16  24
ENDBRANCH  13  15
BRANCH  12  33
HETATM   33  O5  UNL     1      -1.298 -17.194   5.219  1.00  0.00    -0.345 OA
ATOM     34  H5  UNL     1      -0.576 -16.586   5.324  1.00  0.00     0.219 HD
ENDBRANCH  12  33
BRANCH   1  35
HETATM   35  C1  UNL     1      -0.542 -21.961   7.058  1.00  0.00    -0.030 C 
BRANCH  35  36
HETATM   36  N1  UNL     1      -0.138 -22.840   6.346  1.00  0.00    -0.365 N 
ATOM     37  H12 UNL     1      -1.045 -23.284   6.488  1.00  0.00     0.165 HD
ATOM     38  H11 UNL     1       0.330 -23.507   5.733  1.00  0.00     0.165 HD
ENDBRANCH  35  36
ENDBRANCH   1  35
BRANCH   6  39
HETATM   39  N3  UNL     1      -3.735 -19.121  10.451  1.00  0.00    -0.185 N 
ATOM     40  H3  UNL     1      -4.643 -18.884  10.054  1.00  0.00     0.218 HD
BRANCH  39  41
HETATM   41  O3  UNL     1      -3.469 -18.807  11.640  1.00  0.00    -0.273 OA
ATOM     42  H3  UNL     1      -4.125 -18.911  12.321  1.00  0.00     0.246 HD
ENDBRANCH  39  41
ENDBRANCH   6  39
TORSDOF 13
ENDMDL
MODEL 2
REMARK VINA RESULT: -6.868470668      3.168      5.937
REMARK  13 active torsions:
REMARK  status: ('A' for Active; 'I' for Inactive)
REMARK    1  A    between atoms: N1_1  and  C1_4 
REMARK    2  A    between atoms: C1_4  and  C2_5 
REMARK    3  A    between atoms: N2_10  and  N3_11 
REMARK    4  A    between atoms: N3_11  and  O3_13 
REMARK    5  A    between atoms: C6_20  and  O5_21 
REMARK    6  A    between atoms: C7_23  and  C8_24 
REMARK    7  A    between atoms: C8_24  and  C9_25 
REMARK    8  A    between atoms: C9_25  and  C10_26 
REMARK    9  A    between atoms: C10_26  and  N6_27 
REMARK   10  A    between atoms: N7_31  and  N8_33 
REMARK   11  A    between atoms: N8_33  and  C11_35 
REMARK   12  A    between atoms: C11_35  and  O6_36 
REMARK   13  A    between atoms: N9_38  and  O7_40 
ROOT
HETATM    1  C2  UNL     1       0.421 -19.513   4.343  1.00  0.00     0.112 A 
HETATM    2  C3  UNL     1      -0.560 -18.986   5.207  1.00  0.00     0.264 A 
HETATM    3  O1  UNL     1      -1.019 -17.858   5.020  1.00  0.00    -0.281 OA
HETATM    4  C4  UNL     1      -1.012 -19.737   6.267  1.00  0.00     0.335 A 
HETATM    5  O2  UNL     1      -1.885 -19.320   7.068  1.00  0.00    -0.260 OA
HETATM    6  N2  UNL     1      -0.467 -20.953   6.407  1.00  0.00    -0.122 N 
HETATM    7  N4  UNL     1       0.446 -21.472   5.610  1.00  0.00    -0.177 N 
HETATM    8  C5  UNL     1       0.972 -22.666   5.905  1.00  0.00     0.349 A 
HETATM    9  O4  UNL     1       0.531 -23.306   6.916  1.00  0.00    -0.244 OA
HETATM   10  N5  UNL     1       1.929 -23.167   5.162  1.00  0.00    -0.287 N 
ATOM     11  H5  UNL     1       2.328 -24.074   5.405  1.00  0.00     0.172 HD
HETATM   12  C6  UNL     1       2.397 -22.501   4.074  1.00  0.00     0.158 A 
HETATM   13  C7  UNL     1       1.891 -21.241   3.684  1.00  0.00     0.070 A 
HETATM   14  C12 UNL     1       0.915 -20.749   4.519  1.00  0.00     0.104 A 
ENDROOT
BRANCH  13  15
HETATM   15  C8  UNL     1       2.052 -20.811   2.305  1.00  0.00     0.044 C 
HETATM   16  N7  UNL     1       1.404 -20.676   1.326  1.00  0.00    -0.301 N 
ATOM     17  H7  UNL     1       0.457 -20.953   1.585  1.00  0.00     0.186 HD
BRANCH  15  18
HETATM   18  C9  UNL     1       3.522 -20.454   2.043  1.00  0.00     0.087 C 
BRANCH  18  19
HETATM   19  C10 UNL     1       4.276 -19.907   3.199  1.00  0.00     0.235 C 
BRANCH  19  20
HETATM   20  N6  UNL     1       5.022 -18.766   2.528  1.00  0.00    -0.079 N 
ATOM     21  H63 UNL     1       5.947 -18.561   2.907  1.00  0.00     0.274 HD
ATOM     22  H62 UNL     1       5.357 -18.953   1.583  1.00  0.00     0.274 HD
ATOM     23  H61 UNL     1       4.334 -18.019   2.612  1.00  0.00     0.274 HD
ENDBRANCH  19  20
ENDBRANCH  18  19
ENDBRANCH  15  18
BRANCH  16  24
HETATM   24  N8  UNL     1       1.334 -20.327   0.030  1.00  0.00    -0.264 N 
ATOM     25  H8  UNL     1       2.200 -19.922  -0.326  1.00  0.00     0.190 HD
BRANCH  24  26
HETATM   26  C11 UNL     1       0.312 -20.405  -0.940  1.00  0.00     0.256 C 
HETATM   27  N9  UNL     1      -0.544 -21.359  -0.895  1.00  0.00    -0.232 N 
ATOM     28  H9  UNL     1      -0.454 -22.043  -0.143  1.00  0.00     0.198 HD
BRANCH  26  29
HETATM   29  O6  UNL     1       0.173 -19.483  -1.972  1.00  0.00    -0.330 OA
ATOM     30  H6  UNL     1       0.224 -18.544  -1.839  1.00  0.00     0.221 HD
ENDBRANCH  26  29
BRANCH  27  31
HETATM   31  O7  UNL     1      -1.563 -21.523  -1.779  1.00  0.00    -0.287 OA
ATOM     32  H7  UNL     1      -2.379 -21.037  -1.758  1.00  0.00     0.244 HD
ENDBRANCH  27  31
ENDBRANCH  24  26
ENDBRANCH  16  24
ENDBRANCH  13  15
BRANCH  12  33
HETATM   33  O5  UNL     1       3.396 -23.147   3.408  1.00  0.00    -0.345 OA
ATOM     34  H5  UNL     1       3.596 -22.780   2.555  1.00  0.00     0.219 HD
ENDBRANCH  12  33
BRANCH   1  35
HETATM   35  C1  UNL     1       1.233 -18.467   3.704  1.00  0.00    -0.030 C 
BRANCH  35  36
HETATM   36  N1  UNL     1       1.804 -17.499   3.280  1.00  0.00    -0.365 N 
ATOM     37  H12 UNL     1       1.143 -17.529   2.503  1.00  0.00     0.165 HD
ATOM     38  H11 UNL     1       2.375 -16.689   3.039  1.00  0.00     0.165 HD
ENDBRANCH  35  36
ENDBRANCH   1  35
BRANCH   6  39
HETATM   39  N3  UNL     1      -0.895 -21.762   7.496  1.00  0.00    -0.185 N 
ATOM     40  H3  UNL     1      -1.235 -22.708   7.323  1.00  0.00     0.218 HD
BRANCH  39  41
HETATM   41  O3  UNL     1      -0.855 -21.316   8.672  1.00  0.00    -0.273 OA
ATOM     42  H3  UNL     1      -0.490 -21.844   9.372  1.00  0.00     0.246 HD
ENDBRANCH  39  41
ENDBRANCH   6  39
TORSDOF 13
ENDMDL
MODEL 3
REMARK VINA RESULT: -6.710539310      3.224      5.761
REMARK  13 active torsions:
REMARK  status: ('A' for Active; 'I' for Inactive)
REMARK    1  A    between atoms: N1_1  and  C1_4 
REMARK    2  A    between atoms: C1_4  and  C2_5 
REMARK    3  A    between atoms: N2_10  and  N3_11 
REMARK    4  A    between atoms: N3_11  and  O3_13 
REMARK    5  A    between atoms: C6_20  and  O5_21 
REMARK    6  A    between atoms: C7_23  and  C8_24 
REMARK    7  A    between atoms: C8_24  and  C9_25 
REMARK    8  A    between atoms: C9_25  and  C10_26 
REMARK    9  A    between atoms: C10_26  and  N6_27 
REMARK   10  A    between atoms: N7_31  and  N8_33 
REMARK   11  A    between atoms: N8_33  and  C11_35 
REMARK   12  A    between atoms: C11_35  and  O6_36 
REMARK   13  A    between atoms: N9_38  and  O7_40 
ROOT
HETATM    1  C2  UNL     1       1.980 -20.047   4.700  1.00  0.00     0.112 A 
HETATM    2  C3  UNL     1       1.527 -18.852   5.295  1.00  0.00     0.264 A 
HETATM    3  O1  UNL     1       1.948 -17.761   4.909  1.00  0.00    -0.281 OA
HETATM    4  C4  UNL     1       0.606 -18.903   6.315  1.00  0.00     0.335 A 
HETATM    5  O2  UNL     1       0.166 -17.871   6.881  1.00  0.00    -0.260 OA
HETATM    6  N2  UNL     1       0.194 -20.124   6.682  1.00  0.00    -0.122 N 
HETATM    7  N4  UNL     1       0.595 -21.256   6.137  1.00  0.00    -0.177 N 
HETATM    8  C5  UNL     1       0.172 -22.416   6.649  1.00  0.00     0.349 A 
HETATM    9  O4  UNL     1      -0.664 -22.402   7.612  1.00  0.00    -0.244 OA
HETATM   10  N5  UNL     1       0.613 -23.552   6.165  1.00  0.00    -0.287 N 
ATOM     11  H5  UNL     1       0.290 -24.430   6.572  1.00  0.00     0.172 HD
HETATM   12  C6  UNL     1       1.494 -23.580   5.130  1.00  0.00     0.158 A 
HETATM   13  C7  UNL     1       1.984 -22.403   4.522  1.00  0.00     0.070 A 
HETATM   14  C12 UNL     1       1.514 -21.243   5.094  1.00  0.00     0.104 A 
ENDROOT
BRANCH  13  15
HETATM   15  C8  UNL     1       2.502 -22.471   3.166  1.00  0.00     0.044 C 
HETATM   16  N7  UNL     1       2.161 -22.224   2.062  1.00  0.00    -0.301 N 
ATOM     17  H7  UNL     1       1.217 -21.850   2.146  1.00  0.00     0.186 HD
BRANCH  15  18
HETATM   18  C9  UNL     1       3.913 -23.077   3.182  1.00  0.00     0.087 C 
BRANCH  18  19
HETATM   19  C10 UNL     1       4.102 -24.310   2.376  1.00  0.00     0.235 C 
BRANCH  19  20
HETATM   20  N6  UNL     1       4.551 -25.280   3.455  1.00  0.00    -0.079 N 
ATOM     21  H63 UNL     1       5.544 -25.515   3.453  1.00  0.00     0.274 HD
ATOM     22  H62 UNL     1       4.553 -24.912   4.407  1.00  0.00     0.274 HD
ATOM     23  H61 UNL     1       3.913 -26.057   3.285  1.00  0.00     0.274 HD
ENDBRANCH  19  20
ENDBRANCH  18  19
ENDBRANCH  15  18
BRANCH  16  24
HETATM   24  N8  UNL     1       2.440 -22.206   0.748  1.00  0.00    -0.264 N 
ATOM     25  H8  UNL     1       1.978 -22.952   0.227  1.00  0.00     0.190 HD
BRANCH  24  26
HETATM   26  C11 UNL     1       3.239 -21.371  -0.062  1.00  0.00     0.256 C 
HETATM   27  N9  UNL     1       3.070 -21.357  -1.334  1.00  0.00    -0.232 N 
ATOM     28  H9  UNL     1       2.349 -21.965  -1.722  1.00  0.00     0.198 HD
BRANCH  26  29
HETATM   29  O6  UNL     1       4.227 -20.537   0.450  1.00  0.00    -0.330 OA
ATOM     30  H6  UNL     1       5.123 -20.820   0.591  1.00  0.00     0.221 HD
ENDBRANCH  26  29
BRANCH  27  31
HETATM   31  O7  UNL     1       3.785 -20.592  -2.198  1.00  0.00    -0.287 OA
ATOM     32  H7  UNL     1       3.557 -20.451  -3.109  1.00  0.00     0.244 HD
ENDBRANCH  27  31
ENDBRANCH  24  26
ENDBRANCH  16  24
ENDBRANCH  13  15
BRANCH  12  33
HETATM   33  O5  UNL     1       1.864 -24.834   4.743  1.00  0.00    -0.345 OA
ATOM     34  H5  UNL     1       2.305 -24.868   3.903  1.00  0.00     0.219 HD
ENDBRANCH  12  33
BRANCH   1  35
HETATM   35  C1  UNL     1       3.330 -19.920   4.133  1.00  0.00    -0.030 C 
BRANCH  35  36
HETATM   36  N1  UNL     1       4.387 -19.652   3.630  1.00  0.00    -0.365 N 
ATOM     37  H12 UNL     1       4.759 -19.620   4.579  1.00  0.00     0.165 HD
ATOM     38  H11 UNL     1       5.214 -19.433   3.073  1.00  0.00     0.165 HD
ENDBRANCH  35  36
ENDBRANCH   1  35
BRANCH   6  39
HETATM   39  N3  UNL     1      -0.751 -20.228   7.740  1.00  0.00    -0.185 N 
ATOM     40  H3  UNL     1      -0.517 -20.754   8.581  1.00  0.00     0.218 HD
BRANCH  39  41
HETATM   41  O3  UNL     1      -1.875 -19.671   7.642  1.00  0.00    -0.273 OA
ATOM     42  H3  UNL     1      -2.462 -19.642   8.390  1.00  0.00     0.246 HD
ENDBRANCH  39  41
ENDBRANCH   6  39
TORSDOF 13
ENDMDL
MODEL 4
REMARK VINA RESULT: -6.574106218      1.460      1.721
REMARK  13 active torsions:
REMARK  status: ('A' for Active; 'I' for Inactive)
REMARK    1  A    between atoms: N1_1  and  C1_4 
REMARK    2  A    between atoms: C1_4  and  C2_5 
REMARK    3  A    between atoms: N2_10  and  N3_11 
REMARK    4  A    between atoms: N3_11  and  O3_13 
REMARK    5  A    between atoms: C6_20  and  O5_21 
REMARK    6  A    between atoms: C7_23  and  C8_24 
REMARK    7  A    between atoms: C8_24  and  C9_25 
REMARK    8  A    between atoms: C9_25  and  C10_26 
REMARK    9  A    between atoms: C10_26  and  N6_27 
REMARK   10  A    between atoms: N7_31  and  N8_33 
REMARK   11  A    between atoms: N8_33  and  C11_35 
REMARK   12  A    between atoms: C11_35  and  O6_36 
REMARK   13  A    between atoms: N9_38  and  O7_40 
ROOT
HETATM    1  C2  UNL     1      -0.288 -21.490   7.498  1.00  0.00     0.112 A 
HETATM    2  C3  UNL     1      -0.959 -21.922   8.659  1.00  0.00     0.264 A 
HETATM    3  O1  UNL     1      -0.751 -23.044   9.123  1.00  0.00    -0.281 OA
HETATM    4  C4  UNL     1      -1.854 -21.084   9.283  1.00  0.00     0.335 A 
HETATM    5  O2  UNL     1      -2.478 -21.415  10.322  1.00  0.00    -0.260 OA
HETATM    6  N2  UNL     1      -2.028 -19.881   8.722  1.00  0.00    -0.122 N 
HETATM    7  N4  UNL     1      -1.408 -19.449   7.641  1.00  0.00    -0.177 N 
HETATM    8  C5  UNL     1      -1.732 -18.256   7.131  1.00  0.00     0.349 A 
HETATM    9  O4  UNL     1      -2.588 -17.532   7.740  1.00  0.00    -0.244 OA
HETATM   10  N5  UNL     1      -1.175 -17.840   6.019  1.00  0.00    -0.287 N 
ATOM     11  H5  UNL     1      -1.440 -16.933   5.636  1.00  0.00     0.172 HD
HETATM   12  C6  UNL     1      -0.253 -18.597   5.369  1.00  0.00     0.158 A 
HETATM   13  C7  UNL     1       0.156 -19.864   5.843  1.00  0.00     0.070 A 
HETATM   14  C12 UNL     1      -0.486 -20.263   6.992  1.00  0.00     0.104 A 
ENDROOT
BRANCH  13  15
HETATM   15  C8  UNL     1       1.442 -20.394   5.423  1.00  0.00     0.044 C 
HETATM   16  N7  UNL     1       2.578 -20.354   5.746  1.00  0.00    -0.301 N 
ATOM     17  H7  UNL     1       2.605 -19.762   6.575  1.00  0.00     0.186 HD
BRANCH  15  18
HETATM   18  C9  UNL     1       1.262 -21.240   4.153  1.00  0.00     0.087 C 
BRANCH  18  19
HETATM   19  C10 UNL     1       1.563 -20.558   2.869  1.00  0.00     0.235 C 
BRANCH  19  20
HETATM   20  N6  UNL     1       2.367 -21.638   2.165  1.00  0.00    -0.079 N 
ATOM     21  H63 UNL     1       1.847 -22.476   1.904  1.00  0.00     0.274 HD
ATOM     22  H62 UNL     1       2.660 -21.420   1.212  1.00  0.00     0.274 HD
ATOM     23  H61 UNL     1       3.120 -21.777   2.837  1.00  0.00     0.274 HD
ENDBRANCH  19  20
ENDBRANCH  18  19
ENDBRANCH  15  18
BRANCH  16  24
HETATM   24  N8  UNL     1       3.851 -20.727   5.529  1.00  0.00    -0.264 N 
ATOM     25  H8  UNL     1       4.106 -21.590   6.010  1.00  0.00     0.190 HD
BRANCH  24  26
HETATM   26  C11 UNL     1       4.907 -20.172   4.776  1.00  0.00     0.256 C 
HETATM   27  N9  UNL     1       4.655 -19.511   3.706  1.00  0.00    -0.232 N 
ATOM     28  H9  UNL     1       3.677 -19.407   3.433  1.00  0.00     0.198 HD
BRANCH  26  29
HETATM   29  O6  UNL     1       6.245 -20.304   5.133  1.00  0.00    -0.330 OA
ATOM     30  H6  UNL     1       6.960 -20.180   4.520  1.00  0.00     0.221 HD
ENDBRANCH  26  29
BRANCH  27  31
HETATM   31  O7  UNL     1       5.597 -18.938   2.913  1.00  0.00    -0.287 OA
ATOM     32  H7  UNL     1       6.257 -18.326   3.215  1.00  0.00     0.244 HD
ENDBRANCH  27  31
ENDBRANCH  24  26
ENDBRANCH  16  24
ENDBRANCH  13  15
BRANCH  12  33
HETATM   33  O5  UNL     1       0.229 -18.033   4.226  1.00  0.00    -0.345 OA
ATOM     34  H5  UNL     1       0.138 -18.579   3.453  1.00  0.00     0.219 HD
ENDBRANCH  12  33
BRANCH   1  35
HETATM   35  C1  UNL     1       0.102 -22.606   6.622  1.00  0.00    -0.030 C 
BRANCH  35  36
HETATM   36  N1  UNL     1       0.380 -23.620   6.043  1.00  0.00    -0.365 N 
ATOM     37  H12 UNL     1      -0.545 -23.954   6.314  1.00  0.00     0.165 HD
ATOM     38  H11 UNL     1       0.746 -24.417   5.521  1.00  0.00     0.165 HD
ENDBRANCH  35  36
ENDBRANCH   1  35
BRANCH   6  39
HETATM   39  N3  UNL     1      -2.952 -18.982   9.326  1.00  0.00    -0.185 N 
ATOM     40  H3  UNL     1      -3.748 -18.636   8.792  1.00  0.00     0.218 HD
BRANCH  39  41
HETATM   41  O3  UNL     1      -2.790 -18.613  10.518  1.00  0.00    -0.273 OA
ATOM     42  H3  UNL     1      -3.087 -19.163  11.234  1.00  0.00     0.246 HD
ENDBRANCH  39  41
ENDBRANCH   6  39
TORSDOF 13
ENDMDL
MODEL 5
REMARK VINA RESULT: -6.534026029      3.472      5.734
REMARK  13 active torsions:
REMARK  status: ('A' for Active; 'I' for Inactive)
REMARK    1  A    between atoms: N1_1  and  C1_4 
REMARK    2  A    between atoms: C1_4  and  C2_5 
REMARK    3  A    between atoms: N2_10  and  N3_11 
REMARK    4  A    between atoms: N3_11  and  O3_13 
REMARK    5  A    between atoms: C6_20  and  O5_21 
REMARK    6  A    between atoms: C7_23  and  C8_24 
REMARK    7  A    between atoms: C8_24  and  C9_25 
REMARK    8  A    between atoms: C9_25  and  C10_26 
REMARK    9  A    between atoms: C10_26  and  N6_27 
REMARK   10  A    between atoms: N7_31  and  N8_33 
REMARK   11  A    between atoms: N8_33  and  C11_35 
REMARK   12  A    between atoms: C11_35  and  O6_36 
REMARK   13  A    between atoms: N9_38  and  O7_40 
ROOT
HETATM    1  C2  UNL     1       2.725 -20.455   4.474  1.00  0.00     0.112 A 
HETATM    2  C3  UNL     1       2.650 -19.142   3.968  1.00  0.00     0.264 A 
HETATM    3  O1  UNL     1       3.651 -18.589   3.510  1.00  0.00    -0.281 OA
HETATM    4  C4  UNL     1       1.450 -18.471   3.985  1.00  0.00     0.335 A 
HETATM    5  O2  UNL     1       1.323 -17.300   3.547  1.00  0.00    -0.260 OA
HETATM    6  N2  UNL     1       0.406 -19.135   4.499  1.00  0.00    -0.122 N 
HETATM    7  N4  UNL     1       0.447 -20.366   4.970  1.00  0.00    -0.177 N 
HETATM    8  C5  UNL     1      -0.646 -20.890   5.534  1.00  0.00     0.349 A 
HETATM    9  O4  UNL     1      -1.726 -20.211   5.543  1.00  0.00    -0.244 OA
HETATM   10  N5  UNL     1      -0.605 -22.086   6.069  1.00  0.00    -0.287 N 
ATOM     11  H5  UNL     1      -1.444 -22.469   6.505  1.00  0.00     0.172 HD
HETATM   12  C6  UNL     1       0.535 -22.824   6.053  1.00  0.00     0.158 A 
HETATM   13  C7  UNL     1       1.733 -22.353   5.470  1.00  0.00     0.070 A 
HETATM   14  C12 UNL     1       1.640 -21.081   4.956  1.00  0.00     0.104 A 
ENDROOT
BRANCH  13  15
HETATM   15  C8  UNL     1       2.737 -23.314   5.045  1.00  0.00     0.044 C 
HETATM   16  N7  UNL     1       3.728 -23.815   5.450  1.00  0.00    -0.301 N 
ATOM     17  H7  UNL     1       3.871 -23.424   6.380  1.00  0.00     0.186 HD
BRANCH  15  18
HETATM   18  C9  UNL     1       2.419 -23.799   3.622  1.00  0.00     0.087 C 
BRANCH  18  19
HETATM   19  C10 UNL     1       3.283 -23.260   2.542  1.00  0.00     0.235 C 
BRANCH  19  20
HETATM   20  N6  UNL     1       3.703 -24.549   1.855  1.00  0.00    -0.079 N 
ATOM     21  H63 UNL     1       3.496 -25.408   2.365  1.00  0.00     0.274 HD
ATOM     22  H62 UNL     1       3.160 -24.807   1.031  1.00  0.00     0.274 HD
ATOM     23  H61 UNL     1       4.691 -24.359   1.691  1.00  0.00     0.274 HD
ENDBRANCH  19  20
ENDBRANCH  18  19
ENDBRANCH  15  18
BRANCH  16  24
HETATM   24  N8  UNL     1       4.754 -24.661   5.254  1.00  0.00    -0.264 N 
ATOM     25  H8  UNL     1       4.556 -25.613   5.562  1.00  0.00     0.190 HD
BRANCH  24  26
HETATM   26  C11 UNL     1       6.047 -24.505   4.712  1.00  0.00     0.256 C 
HETATM   27  N9  UNL     1       6.974 -23.959   5.410  1.00  0.00    -0.232 N 
ATOM     28  H9  UNL     1       6.738 -23.650   6.353  1.00  0.00     0.198 HD
BRANCH  26  29
HETATM   29  O6  UNL     1       6.388 -24.920   3.429  1.00  0.00    -0.330 OA
ATOM     30  H6  UNL     1       6.380 -25.830   3.159  1.00  0.00     0.221 HD
ENDBRANCH  26  29
BRANCH  27  31
HETATM   31  O7  UNL     1       8.248 -23.763   4.982  1.00  0.00    -0.287 OA
ATOM     32  H7  UNL     1       9.020 -23.851   5.528  1.00  0.00     0.244 HD
ENDBRANCH  27  31
ENDBRANCH  24  26
ENDBRANCH  16  24
ENDBRANCH  13  15
BRANCH  12  33
HETATM   33  O5  UNL     1       0.422 -24.043   6.654  1.00  0.00    -0.345 OA
ATOM     34  H5  UNL     1       0.990 -24.711   6.290  1.00  0.00     0.219 HD
ENDBRANCH  12  33
BRANCH   1  35
HETATM   35  C1  UNL     1       4.067 -20.794   4.971  1.00  0.00    -0.030 C 
BRANCH  35  36
HETATM   36  N1  UNL     1       5.193 -20.898   5.375  1.00  0.00    -0.365 N 
ATOM     37  H12 UNL     1       5.006 -20.059   5.925  1.00  0.00     0.165 HD
ATOM     38  H11 UNL     1       6.158 -21.106   5.632  1.00  0.00     0.165 HD
ENDBRANCH  35  36
ENDBRANCH   1  35
BRANCH   6  39
HETATM   39  N3  UNL     1      -0.855 -18.478   4.547  1.00  0.00    -0.185 N 
ATOM     40  H3  UNL     1      -1.643 -18.851   4.018  1.00  0.00     0.218 HD
BRANCH  39  41
HETATM   41  O3  UNL     1      -1.001 -17.438   5.240  1.00  0.00    -0.273 OA
ATOM     42  H3  UNL     1      -0.587 -16.625   4.975  1.00  0.00     0.246 HD
ENDBRANCH  39  41
ENDBRANCH   6  39
TORSDOF 13
ENDMDL
