MODEL 1
REMARK VINA RESULT: -8.218877184      0.000      0.000
REMARK  11 active torsions:
REMARK  status: ('A' for Active; 'I' for Inactive)
REMARK    1  A    between atoms: S1_2  and  C2_3 
REMARK    2  A    between atoms: C2_3  and  C3_4 
REMARK    3  A    between atoms: C4_6  and  N1_7 
REMARK       I    between atoms: N1_7  and  C5_9 
REMARK       I    between atoms: C5_9  and  N3_11 
REMARK    4  A    between atoms: N3_11  and  N4_13 
REMARK    5  A    between atoms: N4_13  and  C6_15 
REMARK    6  A    between atoms: C6_15  and  C8_17 
REMARK    7  A    between atoms: N7_22  and  N8_23 
REMARK    8  A    between atoms: N8_23  and  N9_24 
REMARK    9  A    between atoms: N8_23  and  N10_27 
REMARK   10  A    between atoms: N10_27  and  N11_28 
REMARK   11  A    between atoms: C9_35  and  O1_36 
ROOT
HETATM    1  N4  UNL     1      -0.436 -19.469   6.171  1.00  0.00    -0.299 N 
ATOM      2  H4  UNL     1      -0.959 -19.619   5.308  1.00  0.00     0.186 HD
ENDROOT
BRANCH   1   3
HETATM    3  N3  UNL     1       0.897 -19.431   6.195  1.00  0.00    -0.273 N 
HETATM    4  C5  UNL     1       1.897 -19.109   5.571  1.00  0.00     0.209 C 
HETATM    5  N1  UNL     1       2.015 -18.531   4.289  1.00  0.00    -0.309 N 
HETATM    6  N2  UNL     1       3.196 -19.393   6.199  1.00  0.00    -0.062 NA
ATOM      7  H1  UNL     1       1.789 -17.549   4.131  1.00  0.00     0.170 HD
ATOM      8  H3  UNL     1       1.202 -19.828   7.084  1.00  0.00     0.189 HD
BRANCH   5   9
HETATM    9  C4  UNL     1       2.427 -19.301   3.306  1.00  0.00     0.153 A 
HETATM   10  S2  UNL     1       1.526 -20.438   2.385  1.00  0.00    -0.053 SA
HETATM   11  C3  UNL     1       2.802 -20.981   1.374  1.00  0.00     0.046 A 
HETATM   12  C9  UNL     1       3.864 -20.245   1.816  1.00  0.00     0.156 A 
HETATM   13  N13 UNL     1       3.661 -19.409   2.783  1.00  0.00    -0.316 N 
ATOM     14  H13 UNL     1       4.427 -18.839   3.143  1.00  0.00     0.170 HD
BRANCH  11  15
HETATM   15  C2  UNL     1       2.855 -22.061   0.308  1.00  0.00     0.124 C 
BRANCH  15  16
HETATM   16  S1  UNL     1       2.387 -21.269  -1.263  1.00  0.00    -0.168 SA
HETATM   17  C1  UNL     1       0.721 -20.611  -1.201  1.00  0.00     0.090 C 
ENDBRANCH  15  16
ENDBRANCH  11  15
BRANCH  12  18
HETATM   18  O1  UNL     1       5.135 -20.416   1.199  1.00  0.00    -0.345 OA
ATOM     19  H1  UNL     1       5.306 -19.997   0.364  1.00  0.00     0.219 HD
ENDBRANCH  12  18
ENDBRANCH   5   9
ENDBRANCH   1   3
BRANCH   1  20
HETATM   20  C6  UNL     1      -1.034 -19.301   7.331  1.00  0.00     0.068 C 
HETATM   21  C7  UNL     1      -1.288 -20.425   8.252  1.00  0.00     0.074 C 
BRANCH  20  22
HETATM   22  C8  UNL     1      -1.509 -17.986   7.702  1.00  0.00     0.163 A 
HETATM   23  N5  UNL     1      -0.883 -16.839   7.841  1.00  0.00    -0.265 N 
HETATM   24  N6  UNL     1      -1.764 -15.871   8.071  1.00  0.00    -0.202 N 
ATOM     25  H5  UNL     1       0.128 -16.711   7.780  1.00  0.00     0.190 HD
HETATM   26  N7  UNL     1      -2.979 -16.370   8.076  1.00  0.00    -0.079 N 
ATOM     27  H6  UNL     1      -1.531 -14.889   8.221  1.00  0.00     0.212 HD
HETATM   28  N12 UNL     1      -2.856 -17.682   7.856  1.00  0.00    -0.242 N 
ATOM     29  H12 UNL     1      -3.625 -18.351   7.808  1.00  0.00     0.192 HD
BRANCH  26  30
HETATM   30  N8  UNL     1      -4.218 -15.696   8.237  1.00  0.00    -0.084 N 
BRANCH  30  31
HETATM   31  N9  UNL     1      -4.433 -14.522   7.551  1.00  0.00    -0.307 N 
ATOM     32  H92 UNL     1      -4.205 -13.628   7.987  1.00  0.00     0.180 HD
ATOM     33  H91 UNL     1      -4.883 -14.559   6.637  1.00  0.00     0.180 HD
ENDBRANCH  30  31
BRANCH  30  34
HETATM   34  N10 UNL     1      -5.246 -16.256   9.003  1.00  0.00     0.013 NA
BRANCH  34  35
HETATM   35  N11 UNL     1      -6.108 -15.317   9.499  1.00  0.00    -0.326 N 
ATOM     36 2H11 UNL     1      -6.042 -14.326   9.262  1.00  0.00     0.174 HD
ATOM     37 1H11 UNL     1      -6.810 -15.716  10.122  1.00  0.00     0.174 HD
ENDBRANCH  34  35
ENDBRANCH  30  34
ENDBRANCH  26  30
ENDBRANCH  20  22
ENDBRANCH   1  20
TORSDOF 11
ENDMDL
MODEL 2
REMARK VINA RESULT: -8.167506181      0.871      1.622
REMARK  11 active torsions:
REMARK  status: ('A' for Active; 'I' for Inactive)
REMARK    1  A    between atoms: S1_2  and  C2_3 
REMARK    2  A    between atoms: C2_3  and  C3_4 
REMARK    3  A    between atoms: C4_6  and  N1_7 
REMARK       I    between atoms: N1_7  and  C5_9 
REMARK       I    between atoms: C5_9  and  N3_11 
REMARK    4  A    between atoms: N3_11  and  N4_13 
REMARK    5  A    between atoms: N4_13  and  C6_15 
REMARK    6  A    between atoms: C6_15  and  C8_17 
REMARK    7  A    between atoms: N7_22  and  N8_23 
REMARK    8  A    between atoms: N8_23  and  N9_24 
REMARK    9  A    between atoms: N8_23  and  N10_27 
REMARK   10  A    between atoms: N10_27  and  N11_28 
REMARK   11  A    between atoms: C9_35  and  O1_36 
ROOT
HETATM    1  N4  UNL     1      -0.587 -19.726   6.171  1.00  0.00    -0.299 N 
ATOM      2  H4  UNL     1      -1.103 -19.798   5.293  1.00  0.00     0.186 HD
ENDROOT
BRANCH   1   3
HETATM    3  N3  UNL     1       0.737 -19.566   6.204  1.00  0.00    -0.273 N 
HETATM    4  C5  UNL     1       1.708 -19.163   5.583  1.00  0.00     0.209 C 
HETATM    5  N1  UNL     1       1.785 -18.597   4.293  1.00  0.00    -0.309 N 
HETATM    6  N2  UNL     1       3.022 -19.318   6.226  1.00  0.00    -0.062 NA
ATOM      7  H1  UNL     1       1.471 -17.642   4.117  1.00  0.00     0.170 HD
ATOM      8  H3  UNL     1       1.068 -19.919   7.102  1.00  0.00     0.189 HD
BRANCH   5   9
HETATM    9  C4  UNL     1       2.275 -19.341   3.326  1.00  0.00     0.153 A 
HETATM   10  S2  UNL     1       1.469 -20.514   2.363  1.00  0.00    -0.053 SA
HETATM   11  C3  UNL     1       2.812 -20.990   1.406  1.00  0.00     0.046 A 
HETATM   12  C9  UNL     1       3.817 -20.208   1.896  1.00  0.00     0.156 A 
HETATM   13  N13 UNL     1       3.534 -19.388   2.856  1.00  0.00    -0.316 N 
ATOM     14  H13 UNL     1       4.255 -18.785   3.251  1.00  0.00     0.170 HD
BRANCH  11  15
HETATM   15  C2  UNL     1       2.961 -22.061   0.340  1.00  0.00     0.124 C 
BRANCH  15  16
HETATM   16  S1  UNL     1       2.532 -21.281  -1.249  1.00  0.00    -0.168 SA
HETATM   17  C1  UNL     1       0.856 -20.647  -1.243  1.00  0.00     0.090 C 
ENDBRANCH  15  16
ENDBRANCH  11  15
BRANCH  12  18
HETATM   18  O1  UNL     1       5.120 -20.316   1.334  1.00  0.00    -0.345 OA
ATOM     19  H1  UNL     1       5.413 -19.661   0.712  1.00  0.00     0.219 HD
ENDBRANCH  12  18
ENDBRANCH   5   9
ENDBRANCH   1   3
BRANCH   1  20
HETATM   20  C6  UNL     1      -1.186 -19.784   7.341  1.00  0.00     0.068 C 
HETATM   21  C7  UNL     1      -1.006 -20.927   8.258  1.00  0.00     0.074 C 
BRANCH  20  22
HETATM   22  C8  UNL     1      -2.095 -18.728   7.728  1.00  0.00     0.163 A 
HETATM   23  N5  UNL     1      -3.064 -18.692   8.614  1.00  0.00    -0.265 N 
HETATM   24  N6  UNL     1      -3.541 -17.455   8.710  1.00  0.00    -0.202 N 
ATOM     25  H5  UNL     1      -3.401 -19.494   9.148  1.00  0.00     0.190 HD
HETATM   26  N7  UNL     1      -2.882 -16.663   7.895  1.00  0.00    -0.079 N 
ATOM     27  H6  UNL     1      -4.303 -17.165   9.323  1.00  0.00     0.212 HD
HETATM   28  N12 UNL     1      -1.981 -17.422   7.266  1.00  0.00    -0.242 N 
ATOM     29  H12 UNL     1      -1.318 -17.097   6.562  1.00  0.00     0.192 HD
BRANCH  26  30
HETATM   30  N8  UNL     1      -3.025 -15.262   7.705  1.00  0.00    -0.084 N 
BRANCH  30  31
HETATM   31  N9  UNL     1      -4.139 -14.631   8.208  1.00  0.00    -0.307 N 
ATOM     32  H92 UNL     1      -5.053 -15.080   8.141  1.00  0.00     0.180 HD
ATOM     33  H91 UNL     1      -4.046 -13.687   8.583  1.00  0.00     0.180 HD
ENDBRANCH  30  31
BRANCH  30  34
HETATM   34  N10 UNL     1      -2.009 -14.513   7.101  1.00  0.00     0.013 NA
BRANCH  34  35
HETATM   35  N11 UNL     1      -1.235 -13.846   8.009  1.00  0.00    -0.326 N 
ATOM     36 2H11 UNL     1      -1.627 -13.258   8.746  1.00  0.00     0.174 HD
ATOM     37 1H11 UNL     1      -0.237 -14.001   7.866  1.00  0.00     0.174 HD
ENDBRANCH  34  35
ENDBRANCH  30  34
ENDBRANCH  26  30
ENDBRANCH  20  22
ENDBRANCH   1  20
TORSDOF 11
ENDMDL
MODEL 3
REMARK VINA RESULT: -8.137649046      0.816      1.247
REMARK  11 active torsions:
REMARK  status: ('A' for Active; 'I' for Inactive)
REMARK    1  A    between atoms: S1_2  and  C2_3 
REMARK    2  A    between atoms: C2_3  and  C3_4 
REMARK    3  A    between atoms: C4_6  and  N1_7 
REMARK       I    between atoms: N1_7  and  C5_9 
REMARK       I    between atoms: C5_9  and  N3_11 
REMARK    4  A    between atoms: N3_11  and  N4_13 
REMARK    5  A    between atoms: N4_13  and  C6_15 
REMARK    6  A    between atoms: C6_15  and  C8_17 
REMARK    7  A    between atoms: N7_22  and  N8_23 
REMARK    8  A    between atoms: N8_23  and  N9_24 
REMARK    9  A    between atoms: N8_23  and  N10_27 
REMARK   10  A    between atoms: N10_27  and  N11_28 
REMARK   11  A    between atoms: C9_35  and  O1_36 
ROOT
HETATM    1  N4  UNL     1      -0.438 -19.496   6.157  1.00  0.00    -0.299 N 
ATOM      2  H4  UNL     1      -0.973 -19.658   5.304  1.00  0.00     0.186 HD
ENDROOT
BRANCH   1   3
HETATM    3  N3  UNL     1       0.895 -19.447   6.159  1.00  0.00    -0.273 N 
HETATM    4  C5  UNL     1       1.881 -19.101   5.525  1.00  0.00     0.209 C 
HETATM    5  N1  UNL     1       1.971 -18.491   4.256  1.00  0.00    -0.309 N 
HETATM    6  N2  UNL     1       3.193 -19.388   6.125  1.00  0.00    -0.062 NA
ATOM      7  H1  UNL     1       1.734 -17.508   4.125  1.00  0.00     0.170 HD
ATOM      8  H3  UNL     1       1.218 -19.861   7.033  1.00  0.00     0.189 HD
BRANCH   5   9
HETATM    9  C4  UNL     1       2.373 -19.234   3.248  1.00  0.00     0.153 A 
HETATM   10  S2  UNL     1       1.433 -20.227   2.206  1.00  0.00    -0.053 SA
HETATM   11  C3  UNL     1       2.715 -20.820   1.233  1.00  0.00     0.046 A 
HETATM   12  C9  UNL     1       3.808 -20.212   1.779  1.00  0.00     0.156 A 
HETATM   13  N13 UNL     1       3.621 -19.421   2.787  1.00  0.00    -0.316 N 
ATOM     14  H13 UNL     1       4.411 -18.947   3.224  1.00  0.00     0.170 HD
BRANCH  11  15
HETATM   15  C2  UNL     1       2.737 -21.834   0.102  1.00  0.00     0.124 C 
BRANCH  15  16
HETATM   16  S1  UNL     1       2.254 -23.434   0.825  1.00  0.00    -0.168 SA
HETATM   17  C1  UNL     1       3.482 -24.032   1.985  1.00  0.00     0.090 C 
ENDBRANCH  15  16
ENDBRANCH  11  15
BRANCH  12  18
HETATM   18  O1  UNL     1       5.094 -20.459   1.222  1.00  0.00    -0.345 OA
ATOM     19  H1  UNL     1       5.411 -19.904   0.520  1.00  0.00     0.219 HD
ENDBRANCH  12  18
ENDBRANCH   5   9
ENDBRANCH   1   3
BRANCH   1  20
HETATM   20  C6  UNL     1      -1.018 -19.321   7.326  1.00  0.00     0.068 C 
HETATM   21  C7  UNL     1      -1.251 -20.440   8.260  1.00  0.00     0.074 C 
BRANCH  20  22
HETATM   22  C8  UNL     1      -1.496 -18.007   7.693  1.00  0.00     0.163 A 
HETATM   23  N5  UNL     1      -0.868 -16.863   7.850  1.00  0.00    -0.265 N 
HETATM   24  N6  UNL     1      -1.750 -15.893   8.068  1.00  0.00    -0.202 N 
ATOM     25  H5  UNL     1       0.143 -16.739   7.810  1.00  0.00     0.190 HD
HETATM   26  N7  UNL     1      -2.967 -16.388   8.046  1.00  0.00    -0.079 N 
ATOM     27  H6  UNL     1      -1.517 -14.913   8.227  1.00  0.00     0.212 HD
HETATM   28  N12 UNL     1      -2.845 -17.699   7.822  1.00  0.00    -0.242 N 
ATOM     29  H12 UNL     1      -3.615 -18.364   7.756  1.00  0.00     0.192 HD
BRANCH  26  30
HETATM   30  N8  UNL     1      -4.207 -15.709   8.186  1.00  0.00    -0.084 N 
BRANCH  30  31
HETATM   31  N9  UNL     1      -4.395 -14.519   7.521  1.00  0.00    -0.307 N 
ATOM     32  H92 UNL     1      -4.384 -13.639   8.037  1.00  0.00     0.180 HD
ATOM     33  H91 UNL     1      -4.612 -14.539   6.524  1.00  0.00     0.180 HD
ENDBRANCH  30  31
BRANCH  30  34
HETATM   34  N10 UNL     1      -5.260 -16.280   8.908  1.00  0.00     0.013 NA
BRANCH  34  35
HETATM   35  N11 UNL     1      -6.060 -15.344   9.504  1.00  0.00    -0.326 N 
ATOM     36 2H11 UNL     1      -5.769 -14.806  10.320  1.00  0.00     0.174 HD
ATOM     37 1H11 UNL     1      -6.966 -15.250   9.044  1.00  0.00     0.174 HD
ENDBRANCH  34  35
ENDBRANCH  30  34
ENDBRANCH  26  30
ENDBRANCH  20  22
ENDBRANCH   1  20
TORSDOF 11
ENDMDL
MODEL 4
REMARK VINA RESULT: -8.117446407      1.173      2.012
REMARK  11 active torsions:
REMARK  status: ('A' for Active; 'I' for Inactive)
REMARK    1  A    between atoms: S1_2  and  C2_3 
REMARK    2  A    between atoms: C2_3  and  C3_4 
REMARK    3  A    between atoms: C4_6  and  N1_7 
REMARK       I    between atoms: N1_7  and  C5_9 
REMARK       I    between atoms: C5_9  and  N3_11 
REMARK    4  A    between atoms: N3_11  and  N4_13 
REMARK    5  A    between atoms: N4_13  and  C6_15 
REMARK    6  A    between atoms: C6_15  and  C8_17 
REMARK    7  A    between atoms: N7_22  and  N8_23 
REMARK    8  A    between atoms: N8_23  and  N9_24 
REMARK    9  A    between atoms: N8_23  and  N10_27 
REMARK   10  A    between atoms: N10_27  and  N11_28 
REMARK   11  A    between atoms: C9_35  and  O1_36 
ROOT
HETATM    1  N4  UNL     1      -0.440 -20.004   6.303  1.00  0.00    -0.299 N 
ATOM      2  H4  UNL     1      -0.990 -20.124   5.452  1.00  0.00     0.186 HD
ENDROOT
BRANCH   1   3
HETATM    3  N3  UNL     1       0.870 -19.753   6.271  1.00  0.00    -0.273 N 
HETATM    4  C5  UNL     1       1.774 -19.257   5.616  1.00  0.00     0.209 C 
HETATM    5  N1  UNL     1       1.737 -18.632   4.352  1.00  0.00    -0.309 N 
HETATM    6  N2  UNL     1       3.130 -19.346   6.178  1.00  0.00    -0.062 NA
ATOM      7  H1  UNL     1       1.349 -17.695   4.237  1.00  0.00     0.170 HD
ATOM      8  H3  UNL     1       1.276 -20.120   7.132  1.00  0.00     0.189 HD
BRANCH   5   9
HETATM    9  C4  UNL     1       2.218 -19.298   3.325  1.00  0.00     0.153 A 
HETATM   10  S2  UNL     1       1.373 -20.253   2.174  1.00  0.00    -0.053 SA
HETATM   11  C3  UNL     1       2.726 -20.745   1.241  1.00  0.00     0.046 A 
HETATM   12  C9  UNL     1       3.766 -20.137   1.884  1.00  0.00     0.156 A 
HETATM   13  N13 UNL     1       3.497 -19.417   2.925  1.00  0.00    -0.316 N 
ATOM     14  H13 UNL     1       4.244 -18.945   3.435  1.00  0.00     0.170 HD
BRANCH  11  15
HETATM   15  C2  UNL     1       2.846 -21.685   0.055  1.00  0.00     0.124 C 
BRANCH  15  16
HETATM   16  S1  UNL     1       2.201 -23.299   0.599  1.00  0.00    -0.168 SA
HETATM   17  C1  UNL     1       2.941 -23.819   2.146  1.00  0.00     0.090 C 
ENDBRANCH  15  16
ENDBRANCH  11  15
BRANCH  12  18
HETATM   18  O1  UNL     1       5.088 -20.309   1.387  1.00  0.00    -0.345 OA
ATOM     19  H1  UNL     1       5.796 -20.474   1.998  1.00  0.00     0.219 HD
ENDBRANCH  12  18
ENDBRANCH   5   9
ENDBRANCH   1   3
BRANCH   1  20
HETATM   20  C6  UNL     1      -0.977 -20.087   7.501  1.00  0.00     0.068 C 
HETATM   21  C7  UNL     1      -0.853 -21.300   8.334  1.00  0.00     0.074 C 
BRANCH  20  22
HETATM   22  C8  UNL     1      -1.762 -18.983   8.006  1.00  0.00     0.163 A 
HETATM   23  N5  UNL     1      -2.386 -18.807   9.149  1.00  0.00    -0.265 N 
HETATM   24  N6  UNL     1      -2.870 -17.571   9.212  1.00  0.00    -0.202 N 
ATOM     25  H5  UNL     1      -2.484 -19.513   9.879  1.00  0.00     0.190 HD
HETATM   26  N7  UNL     1      -2.560 -16.918   8.114  1.00  0.00    -0.079 N 
ATOM     27  H6  UNL     1      -3.401 -17.186   9.993  1.00  0.00     0.212 HD
HETATM   28  N12 UNL     1      -1.877 -17.768   7.342  1.00  0.00    -0.242 N 
ATOM     29  H12 UNL     1      -1.502 -17.559   6.417  1.00  0.00     0.192 HD
BRANCH  26  30
HETATM   30  N8  UNL     1      -2.832 -15.566   7.775  1.00  0.00    -0.084 N 
BRANCH  30  31
HETATM   31  N9  UNL     1      -4.030 -15.010   8.159  1.00  0.00    -0.307 N 
ATOM     32  H92 UNL     1      -4.252 -14.912   9.150  1.00  0.00     0.180 HD
ATOM     33  H91 UNL     1      -4.714 -14.764   7.443  1.00  0.00     0.180 HD
ENDBRANCH  30  31
BRANCH  30  34
HETATM   34  N10 UNL     1      -1.865 -14.776   7.144  1.00  0.00     0.013 NA
BRANCH  34  35
HETATM   35  N11 UNL     1      -1.170 -13.990   8.022  1.00  0.00    -0.326 N 
ATOM     36 2H11 UNL     1      -1.435 -13.889   9.002  1.00  0.00     0.174 HD
ATOM     37 1H11 UNL     1      -0.371 -13.526   7.589  1.00  0.00     0.174 HD
ENDBRANCH  34  35
ENDBRANCH  30  34
ENDBRANCH  26  30
ENDBRANCH  20  22
ENDBRANCH   1  20
TORSDOF 11
ENDMDL
MODEL 5
REMARK VINA RESULT: -7.973824225      1.215      1.918
REMARK  11 active torsions:
REMARK  status: ('A' for Active; 'I' for Inactive)
REMARK    1  A    between atoms: S1_2  and  C2_3 
REMARK    2  A    between atoms: C2_3  and  C3_4 
REMARK    3  A    between atoms: C4_6  and  N1_7 
REMARK       I    between atoms: N1_7  and  C5_9 
REMARK       I    between atoms: C5_9  and  N3_11 
REMARK    4  A    between atoms: N3_11  and  N4_13 
REMARK    5  A    between atoms: N4_13  and  C6_15 
REMARK    6  A    between atoms: C6_15  and  C8_17 
REMARK    7  A    between atoms: N7_22  and  N8_23 
REMARK    8  A    between atoms: N8_23  and  N9_24 
REMARK    9  A    between atoms: N8_23  and  N10_27 
REMARK   10  A    between atoms: N10_27  and  N11_28 
REMARK   11  A    between atoms: C9_35  and  O1_36 
ROOT
HETATM    1  N4  UNL     1      -0.126 -20.792   6.622  1.00  0.00    -0.299 N 
ATOM      2  H4  UNL     1      -0.256 -21.736   6.986  1.00  0.00     0.186 HD
ENDROOT
BRANCH   1   3
HETATM    3  N3  UNL     1       1.080 -20.229   6.525  1.00  0.00    -0.273 N 
HETATM    4  C5  UNL     1       1.796 -19.521   5.833  1.00  0.00     0.209 C 
HETATM    5  N1  UNL     1       1.534 -18.911   4.588  1.00  0.00    -0.309 N 
HETATM    6  N2  UNL     1       3.165 -19.283   6.318  1.00  0.00    -0.062 NA
ATOM      7  H1  UNL     1       0.925 -18.096   4.518  1.00  0.00     0.170 HD
ATOM      8  H3  UNL     1       1.613 -20.495   7.353  1.00  0.00     0.189 HD
BRANCH   5   9
HETATM    9  C4  UNL     1       2.101 -19.430   3.521  1.00  0.00     0.153 A 
HETATM   10  S2  UNL     1       1.366 -20.282   2.223  1.00  0.00    -0.053 SA
HETATM   11  C3  UNL     1       2.789 -20.598   1.318  1.00  0.00     0.046 A 
HETATM   12  C9  UNL     1       3.762 -20.022   2.083  1.00  0.00     0.156 A 
HETATM   13  N13 UNL     1       3.403 -19.442   3.183  1.00  0.00    -0.316 N 
ATOM     14  H13 UNL     1       4.097 -18.999   3.785  1.00  0.00     0.170 HD
BRANCH  11  15
HETATM   15  C2  UNL     1       3.018 -21.387   0.040  1.00  0.00     0.124 C 
BRANCH  15  16
HETATM   16  S1  UNL     1       2.256 -23.021   0.291  1.00  0.00    -0.168 SA
HETATM   17  C1  UNL     1       2.893 -23.829   1.759  1.00  0.00     0.090 C 
ENDBRANCH  15  16
ENDBRANCH  11  15
BRANCH  12  18
HETATM   18  O1  UNL     1       5.115 -20.074   1.645  1.00  0.00    -0.345 OA
ATOM     19  H1  UNL     1       5.708 -20.700   2.042  1.00  0.00     0.219 HD
ENDBRANCH  12  18
ENDBRANCH   5   9
ENDBRANCH   1   3
BRANCH   1  20
HETATM   20  C6  UNL     1      -1.137 -20.052   6.218  1.00  0.00     0.068 C 
HETATM   21  C7  UNL     1      -1.713 -20.183   4.866  1.00  0.00     0.074 C 
BRANCH  20  22
HETATM   22  C8  UNL     1      -1.671 -19.037   7.099  1.00  0.00     0.163 A 
HETATM   23  N5  UNL     1      -2.092 -19.095   8.343  1.00  0.00    -0.265 N 
HETATM   24  N6  UNL     1      -2.376 -17.872   8.778  1.00  0.00    -0.202 N 
ATOM     25  H5  UNL     1      -2.186 -19.950   8.891  1.00  0.00     0.190 HD
HETATM   26  N7  UNL     1      -2.134 -16.996   7.829  1.00  0.00    -0.079 N 
ATOM     27  H6  UNL     1      -2.727 -17.647   9.709  1.00  0.00     0.212 HD
HETATM   28  N12 UNL     1      -1.702 -17.687   6.771  1.00  0.00    -0.242 N 
ATOM     29  H12 UNL     1      -1.437 -17.289   5.870  1.00  0.00     0.192 HD
BRANCH  26  30
HETATM   30  N8  UNL     1      -2.252 -15.582   7.872  1.00  0.00    -0.084 N 
BRANCH  30  31
HETATM   31  N9  UNL     1      -1.154 -14.832   8.225  1.00  0.00    -0.307 N 
ATOM     32  H92 UNL     1      -0.952 -14.656   9.209  1.00  0.00     0.180 HD
ATOM     33  H91 UNL     1      -0.592 -14.402   7.490  1.00  0.00     0.180 HD
ENDBRANCH  30  31
BRANCH  30  34
HETATM   34  N10 UNL     1      -3.432 -14.947   7.470  1.00  0.00     0.013 NA
BRANCH  34  35
HETATM   35  N11 UNL     1      -4.345 -14.841   8.483  1.00  0.00    -0.326 N 
ATOM     36 2H11 UNL     1      -4.099 -14.508   9.416  1.00  0.00     0.174 HD
ATOM     37 1H11 UNL     1      -5.283 -15.127   8.201  1.00  0.00     0.174 HD
ENDBRANCH  34  35
ENDBRANCH  30  34
ENDBRANCH  26  30
ENDBRANCH  20  22
ENDBRANCH   1  20
TORSDOF 11
ENDMDL
