MODEL 1
REMARK VINA RESULT: -8.420434607      0.000      0.000
REMARK  8 active torsions:
REMARK  status: ('A' for Active; 'I' for Inactive)
REMARK    1  A    between atoms: O1_2  and  C2_3 
REMARK    2  A    between atoms: C2_3  and  C3_5 
REMARK       I    between atoms: C3_5  and  N1_7 
REMARK    3  A    between atoms: N1_7  and  N2_9 
REMARK    4  A    between atoms: C4_11  and  C5_12 
REMARK    5  A    between atoms: C7_19  and  S1_20 
REMARK    6  A    between atoms: S1_20  and  C8_21 
REMARK    7  A    between atoms: C10_27  and  N8_28 
REMARK    8  A    between atoms: N9_30  and  N10_32 
ROOT
HETATM    1  C5  UNL     1      -0.466 -19.328   6.406  1.00  0.00     0.058 A 
HETATM    2  C6  UNL     1      -0.609 -20.433   7.235  1.00  0.00     0.145 A 
HETATM    3  N3  UNL     1      -1.507 -20.507   8.336  1.00  0.00    -0.080 NA
HETATM    4  N4  UNL     1       0.249 -21.365   6.781  1.00  0.00    -0.286 N 
ATOM      5  H4  UNL     1       0.367 -22.290   7.193  1.00  0.00     0.188 HD
HETATM    6  N5  UNL     1       0.918 -20.921   5.730  1.00  0.00    -0.292 N 
ATOM      7  H5  UNL     1       1.626 -21.434   5.205  1.00  0.00     0.187 HD
HETATM    8  C7  UNL     1       0.497 -19.678   5.482  1.00  0.00     0.103 A 
ENDROOT
BRANCH   8   9
HETATM    9  S1  UNL     1       1.056 -18.574   4.164  1.00  0.00    -0.080 SA
BRANCH   9  10
HETATM   10  C8  UNL     1       2.568 -19.207   3.460  1.00  0.00     0.088 C 
HETATM   11  C9  UNL     1       2.587 -20.025   2.444  1.00  0.00     0.123 A 
HETATM   12  N6  UNL     1       1.363 -20.453   1.846  1.00  0.00    -0.281 N 
HETATM   13  C11 UNL     1       3.838 -20.521   1.896  1.00  0.00     0.288 A 
HETATM   14  N7  UNL     1       1.442 -21.325   0.766  1.00  0.00    -0.130 N 
ATOM     15  H6  UNL     1       0.462 -20.130   2.199  1.00  0.00     0.188 HD
HETATM   16  C10 UNL     1       2.536 -21.782   0.258  1.00  0.00     0.715 A 
ATOM     17  H7  UNL     1       0.565 -21.628   0.341  1.00  0.00     0.205 HD
HETATM   18  N11 UNL     1       3.794 -21.406   0.794  1.00  0.00    -0.151 N 
ATOM     19  H11 UNL     1       4.657 -21.770   0.389  1.00  0.00     0.188 HD
HETATM   20  O4  UNL     1       4.966 -20.179   2.382  1.00  0.00    -0.265 OA
BRANCH  16  21
HETATM   21  N8  UNL     1       2.465 -22.685  -0.867  1.00  0.00    -0.117 N 
HETATM   22  N9  UNL     1       2.789 -22.257  -2.011  1.00  0.00    -0.235 N 
ATOM     23  H9  UNL     1       2.736 -22.901  -2.801  1.00  0.00     0.208 HD
ATOM     24  H8  UNL     1       2.158 -23.649  -0.741  1.00  0.00     0.207 HD
BRANCH  22  25
HETATM   25  N10 UNL     1       3.217 -20.948  -2.250  1.00  0.00    -0.330 N 
ATOM     26 2H10 UNL     1       3.299 -20.328  -1.443  1.00  0.00     0.178 HD
ATOM     27 1H10 UNL     1       3.445 -20.593  -3.178  1.00  0.00     0.178 HD
ENDBRANCH  22  25
ENDBRANCH  16  21
ENDBRANCH   9  10
ENDBRANCH   8   9
BRANCH   1  28
HETATM   28  C4  UNL     1      -1.184 -18.069   6.498  1.00  0.00     0.125 C 
HETATM   29  N2  UNL     1      -1.776 -17.667   7.559  1.00  0.00    -0.308 N 
ATOM     30  H2  UNL     1      -1.735 -18.272   8.379  1.00  0.00     0.186 HD
BRANCH  29  31
HETATM   31  N1  UNL     1      -2.464 -16.481   7.680  1.00  0.00    -0.262 N 
HETATM   32  C3  UNL     1      -3.778 -16.468   8.241  1.00  0.00     0.335 C 
HETATM   33  O3  UNL     1      -4.336 -17.529   8.634  1.00  0.00    -0.260 OA
ATOM     34  H1  UNL     1      -2.035 -15.610   7.370  1.00  0.00     0.190 HD
BRANCH  32  35
HETATM   35  C2  UNL     1      -4.515 -15.228   8.375  1.00  0.00     0.352 C 
HETATM   36  O2  UNL     1      -4.660 -14.488   7.343  1.00  0.00    -0.254 OA
BRANCH  35  37
HETATM   37  O1  UNL     1      -5.055 -14.845   9.592  1.00  0.00    -0.319 OA
HETATM   38  C1  UNL     1      -6.460 -14.864   9.734  1.00  0.00     0.213 C 
ENDBRANCH  35  37
ENDBRANCH  32  35
ENDBRANCH  29  31
ENDBRANCH   1  28
TORSDOF 8
ENDMDL
MODEL 2
REMARK VINA RESULT: -8.192255833      2.855      3.682
REMARK  8 active torsions:
REMARK  status: ('A' for Active; 'I' for Inactive)
REMARK    1  A    between atoms: O1_2  and  C2_3 
REMARK    2  A    between atoms: C2_3  and  C3_5 
REMARK       I    between atoms: C3_5  and  N1_7 
REMARK    3  A    between atoms: N1_7  and  N2_9 
REMARK    4  A    between atoms: C4_11  and  C5_12 
REMARK    5  A    between atoms: C7_19  and  S1_20 
REMARK    6  A    between atoms: S1_20  and  C8_21 
REMARK    7  A    between atoms: C10_27  and  N8_28 
REMARK    8  A    between atoms: N9_30  and  N10_32 
ROOT
HETATM    1  C5  UNL     1       0.525 -23.093   6.787  1.00  0.00     0.058 A 
HETATM    2  C6  UNL     1       0.360 -24.155   7.667  1.00  0.00     0.145 A 
HETATM    3  N3  UNL     1      -0.701 -24.267   8.608  1.00  0.00    -0.080 NA
HETATM    4  N4  UNL     1       1.378 -25.004   7.437  1.00  0.00    -0.286 N 
ATOM      5  H4  UNL     1       1.521 -25.882   7.936  1.00  0.00     0.188 HD
HETATM    6  N5  UNL     1       2.167 -24.550   6.478  1.00  0.00    -0.292 N 
ATOM      7  H5  UNL     1       3.005 -25.007   6.119  1.00  0.00     0.187 HD
HETATM    8  C7  UNL     1       1.665 -23.383   6.064  1.00  0.00     0.103 A 
ENDROOT
BRANCH   8   9
HETATM    9  S1  UNL     1       2.321 -22.303   4.772  1.00  0.00    -0.080 SA
BRANCH   9  10
HETATM   10  C8  UNL     1       2.420 -23.207   3.237  1.00  0.00     0.088 C 
HETATM   11  C9  UNL     1       2.188 -22.658   2.076  1.00  0.00     0.123 A 
HETATM   12  N6  UNL     1       1.836 -21.276   1.995  1.00  0.00    -0.281 N 
HETATM   13  C11 UNL     1       2.278 -23.426   0.845  1.00  0.00     0.288 A 
HETATM   14  N7  UNL     1       1.600 -20.743   0.732  1.00  0.00    -0.130 N 
ATOM     15  H6  UNL     1       1.762 -20.701   2.833  1.00  0.00     0.188 HD
HETATM   16  C10 UNL     1       1.671 -21.398  -0.376  1.00  0.00     0.715 A 
ATOM     17  H7  UNL     1       1.349 -19.756   0.679  1.00  0.00     0.205 HD
HETATM   18  N11 UNL     1       2.015 -22.774  -0.382  1.00  0.00    -0.151 N 
ATOM     19  H11 UNL     1       2.071 -23.288  -1.262  1.00  0.00     0.188 HD
HETATM   20  O4  UNL     1       2.587 -24.662   0.847  1.00  0.00    -0.265 OA
BRANCH  16  21
HETATM   21  N8  UNL     1       1.398 -20.711  -1.617  1.00  0.00    -0.117 N 
HETATM   22  N9  UNL     1       0.203 -20.633  -2.019  1.00  0.00    -0.235 N 
ATOM     23  H9  UNL     1       0.019 -20.146  -2.896  1.00  0.00     0.208 HD
ATOM     24  H8  UNL     1       2.156 -20.297  -2.159  1.00  0.00     0.207 HD
BRANCH  22  25
HETATM   25  N10 UNL     1      -0.879 -21.180  -1.324  1.00  0.00    -0.330 N 
ATOM     26 2H10 UNL     1      -1.227 -20.661  -0.517  1.00  0.00     0.178 HD
ATOM     27 1H10 UNL     1      -1.327 -22.058  -1.584  1.00  0.00     0.178 HD
ENDBRANCH  22  25
ENDBRANCH  16  21
ENDBRANCH   9  10
ENDBRANCH   8   9
BRANCH   1  28
HETATM   28  C4  UNL     1      -0.328 -21.925   6.658  1.00  0.00     0.125 C 
HETATM   29  N2  UNL     1      -0.724 -21.223   7.652  1.00  0.00    -0.308 N 
ATOM     30  H2  UNL     1      -0.417 -21.510   8.582  1.00  0.00     0.186 HD
BRANCH  29  31
HETATM   31  N1  UNL     1      -1.531 -20.112   7.565  1.00  0.00    -0.262 N 
HETATM   32  C3  UNL     1      -0.969 -18.805   7.699  1.00  0.00     0.335 C 
HETATM   33  O3  UNL     1       0.266 -18.637   7.898  1.00  0.00    -0.260 OA
ATOM     34  H1  UNL     1      -2.532 -20.222   7.405  1.00  0.00     0.190 HD
BRANCH  32  35
HETATM   35  C2  UNL     1      -1.806 -17.626   7.611  1.00  0.00     0.352 C 
HETATM   36  O2  UNL     1      -3.048 -17.734   7.895  1.00  0.00    -0.254 OA
BRANCH  35  37
HETATM   37  O1  UNL     1      -1.280 -16.403   7.227  1.00  0.00    -0.319 OA
HETATM   38  C1  UNL     1      -1.949 -15.230   7.641  1.00  0.00     0.213 C 
ENDBRANCH  35  37
ENDBRANCH  32  35
ENDBRANCH  29  31
ENDBRANCH   1  28
TORSDOF 8
ENDMDL
MODEL 3
REMARK VINA RESULT: -8.162148441      2.088      2.598
REMARK  8 active torsions:
REMARK  status: ('A' for Active; 'I' for Inactive)
REMARK    1  A    between atoms: O1_2  and  C2_3 
REMARK    2  A    between atoms: C2_3  and  C3_5 
REMARK       I    between atoms: C3_5  and  N1_7 
REMARK    3  A    between atoms: N1_7  and  N2_9 
REMARK    4  A    between atoms: C4_11  and  C5_12 
REMARK    5  A    between atoms: C7_19  and  S1_20 
REMARK    6  A    between atoms: S1_20  and  C8_21 
REMARK    7  A    between atoms: C10_27  and  N8_28 
REMARK    8  A    between atoms: N9_30  and  N10_32 
ROOT
HETATM    1  C5  UNL     1       0.591 -21.888   5.990  1.00  0.00     0.058 A 
HETATM    2  C6  UNL     1       0.574 -23.226   6.362  1.00  0.00     0.145 A 
HETATM    3  N3  UNL     1      -0.493 -23.857   7.059  1.00  0.00    -0.080 NA
HETATM    4  N4  UNL     1       1.733 -23.757   5.932  1.00  0.00    -0.286 N 
ATOM      5  H4  UNL     1       2.004 -24.732   6.060  1.00  0.00     0.188 HD
HETATM    6  N5  UNL     1       2.473 -22.847   5.320  1.00  0.00    -0.292 N 
ATOM      7  H5  UNL     1       3.393 -22.996   4.907  1.00  0.00     0.187 HD
HETATM    8  C7  UNL     1       1.795 -21.696   5.343  1.00  0.00     0.103 A 
ENDROOT
BRANCH   8   9
HETATM    9  S1  UNL     1       2.311 -20.105   4.657  1.00  0.00    -0.080 SA
BRANCH   9  10
HETATM   10  C8  UNL     1       3.405 -20.381   3.276  1.00  0.00     0.088 C 
HETATM   11  C9  UNL     1       2.975 -20.592   2.062  1.00  0.00     0.123 A 
HETATM   12  N6  UNL     1       1.572 -20.610   1.794  1.00  0.00    -0.281 N 
HETATM   13  C11 UNL     1       3.896 -20.813   0.961  1.00  0.00     0.288 A 
HETATM   14  N7  UNL     1       1.168 -20.839   0.483  1.00  0.00    -0.130 N 
ATOM     15  H6  UNL     1       0.891 -20.459   2.537  1.00  0.00     0.188 HD
HETATM   16  C10 UNL     1       1.961 -21.038  -0.515  1.00  0.00     0.715 A 
ATOM     17  H7  UNL     1       0.165 -20.850   0.295  1.00  0.00     0.205 HD
HETATM   18  N11 UNL     1       3.367 -21.036  -0.332  1.00  0.00    -0.151 N 
ATOM     19  H11 UNL     1       3.990 -21.194  -1.125  1.00  0.00     0.188 HD
HETATM   20  O4  UNL     1       5.159 -20.810   1.131  1.00  0.00    -0.265 OA
BRANCH  16  21
HETATM   21  N8  UNL     1       1.397 -21.264  -1.825  1.00  0.00    -0.117 N 
HETATM   22  N9  UNL     1       0.509 -20.472  -2.250  1.00  0.00    -0.235 N 
ATOM     23  H9  UNL     1       0.116 -20.638  -3.177  1.00  0.00     0.208 HD
ATOM     24  H8  UNL     1       1.711 -22.047  -2.397  1.00  0.00     0.207 HD
BRANCH  22  25
HETATM   25  N10 UNL     1       0.036 -19.381  -1.515  1.00  0.00    -0.330 N 
ATOM     26 2H10 UNL     1      -0.975 -19.271  -1.440  1.00  0.00     0.178 HD
ATOM     27 1H10 UNL     1       0.648 -18.704  -1.061  1.00  0.00     0.178 HD
ENDBRANCH  22  25
ENDBRANCH  16  21
ENDBRANCH   9  10
ENDBRANCH   8   9
BRANCH   1  28
HETATM   28  C4  UNL     1      -0.446 -20.901   6.235  1.00  0.00     0.125 C 
HETATM   29  N2  UNL     1      -0.494 -20.168   7.283  1.00  0.00    -0.308 N 
ATOM     30  H2  UNL     1       0.242 -20.294   7.979  1.00  0.00     0.186 HD
BRANCH  29  31
HETATM   31  N1  UNL     1      -1.461 -19.225   7.546  1.00  0.00    -0.262 N 
HETATM   32  C3  UNL     1      -1.221 -17.849   7.244  1.00  0.00     0.335 C 
HETATM   33  O3  UNL     1      -0.131 -17.467   6.735  1.00  0.00    -0.260 OA
ATOM     34  H1  UNL     1      -2.350 -19.508   7.956  1.00  0.00     0.190 HD
BRANCH  32  35
HETATM   35  C2  UNL     1      -2.228 -16.843   7.515  1.00  0.00     0.352 C 
HETATM   36  O2  UNL     1      -2.009 -15.641   7.138  1.00  0.00    -0.254 OA
BRANCH  35  37
HETATM   37  O1  UNL     1      -3.405 -17.168   8.168  1.00  0.00    -0.319 OA
HETATM   38  C1  UNL     1      -4.266 -16.117   8.553  1.00  0.00     0.213 C 
ENDBRANCH  35  37
ENDBRANCH  32  35
ENDBRANCH  29  31
ENDBRANCH   1  28
TORSDOF 8
ENDMDL
MODEL 4
REMARK VINA RESULT: -8.124999082      1.401      1.730
REMARK  8 active torsions:
REMARK  status: ('A' for Active; 'I' for Inactive)
REMARK    1  A    between atoms: O1_2  and  C2_3 
REMARK    2  A    between atoms: C2_3  and  C3_5 
REMARK       I    between atoms: C3_5  and  N1_7 
REMARK    3  A    between atoms: N1_7  and  N2_9 
REMARK    4  A    between atoms: C4_11  and  C5_12 
REMARK    5  A    between atoms: C7_19  and  S1_20 
REMARK    6  A    between atoms: S1_20  and  C8_21 
REMARK    7  A    between atoms: C10_27  and  N8_28 
REMARK    8  A    between atoms: N9_30  and  N10_32 
ROOT
HETATM    1  C5  UNL     1      -0.093 -20.885   6.780  1.00  0.00     0.058 A 
HETATM    2  C6  UNL     1      -0.057 -22.214   7.181  1.00  0.00     0.145 A 
HETATM    3  N3  UNL     1      -0.951 -22.798   8.120  1.00  0.00    -0.080 NA
HETATM    4  N4  UNL     1       0.960 -22.788   6.513  1.00  0.00    -0.286 N 
ATOM      5  H4  UNL     1       1.230 -23.767   6.602  1.00  0.00     0.188 HD
HETATM    6  N5  UNL     1       1.563 -21.913   5.725  1.00  0.00    -0.292 N 
ATOM      7  H5  UNL     1       2.360 -22.099   5.117  1.00  0.00     0.187 HD
HETATM    8  C7  UNL     1       0.936 -20.743   5.871  1.00  0.00     0.103 A 
ENDROOT
BRANCH   8   9
HETATM    9  S1  UNL     1       1.320 -19.182   5.043  1.00  0.00    -0.080 SA
BRANCH   9  10
HETATM   10  C8  UNL     1       2.819 -19.367   4.094  1.00  0.00     0.088 C 
HETATM   11  C9  UNL     1       2.839 -19.875   2.892  1.00  0.00     0.123 A 
HETATM   12  N6  UNL     1       1.624 -20.313   2.280  1.00  0.00    -0.281 N 
HETATM   13  C11 UNL     1       4.079 -20.011   2.148  1.00  0.00     0.288 A 
HETATM   14  N7  UNL     1       1.703 -20.846   0.998  1.00  0.00    -0.130 N 
ATOM     15  H6  UNL     1       0.731 -20.236   2.767  1.00  0.00     0.188 HD
HETATM   16  C10 UNL     1       2.787 -20.979   0.314  1.00  0.00     0.715 A 
ATOM     17  H7  UNL     1       0.833 -21.157   0.565  1.00  0.00     0.205 HD
HETATM   18  N11 UNL     1       4.035 -20.569   0.849  1.00  0.00    -0.151 N 
ATOM     19  H11 UNL     1       4.891 -20.676   0.304  1.00  0.00     0.188 HD
HETATM   20  O4  UNL     1       5.197 -19.640   2.635  1.00  0.00    -0.265 OA
BRANCH  16  21
HETATM   21  N8  UNL     1       2.717 -21.552  -1.010  1.00  0.00    -0.117 N 
HETATM   22  N9  UNL     1       2.544 -22.798  -1.125  1.00  0.00    -0.235 N 
ATOM     23  H9  UNL     1       2.495 -23.195  -2.064  1.00  0.00     0.208 HD
ATOM     24  H8  UNL     1       2.805 -20.962  -1.837  1.00  0.00     0.207 HD
BRANCH  22  25
HETATM   25  N10 UNL     1       2.417 -23.662  -0.033  1.00  0.00    -0.330 N 
ATOM     26 2H10 UNL     1       1.486 -23.774   0.368  1.00  0.00     0.178 HD
ATOM     27 1H10 UNL     1       3.200 -24.173   0.371  1.00  0.00     0.178 HD
ENDBRANCH  22  25
ENDBRANCH  16  21
ENDBRANCH   9  10
ENDBRANCH   8   9
BRANCH   1  28
HETATM   28  C4  UNL     1      -1.022 -19.862   7.227  1.00  0.00     0.125 C 
HETATM   29  N2  UNL     1      -0.660 -18.779   7.803  1.00  0.00    -0.308 N 
ATOM     30  H2  UNL     1       0.339 -18.636   7.950  1.00  0.00     0.186 HD
BRANCH  29  31
HETATM   31  N1  UNL     1      -1.513 -17.790   8.238  1.00  0.00    -0.262 N 
HETATM   32  C3  UNL     1      -1.939 -16.763   7.341  1.00  0.00     0.335 C 
HETATM   33  O3  UNL     1      -1.551 -16.736   6.141  1.00  0.00    -0.260 OA
ATOM     34  H1  UNL     1      -1.842 -17.791   9.204  1.00  0.00     0.190 HD
BRANCH  32  35
HETATM   35  C2  UNL     1      -2.837 -15.716   7.785  1.00  0.00     0.352 C 
HETATM   36  O2  UNL     1      -2.552 -14.503   7.495  1.00  0.00    -0.254 OA
BRANCH  35  37
HETATM   37  O1  UNL     1      -3.980 -16.013   8.507  1.00  0.00    -0.319 OA
HETATM   38  C1  UNL     1      -5.015 -15.053   8.541  1.00  0.00     0.213 C 
ENDBRANCH  35  37
ENDBRANCH  32  35
ENDBRANCH  29  31
ENDBRANCH   1  28
TORSDOF 8
ENDMDL
MODEL 5
REMARK VINA RESULT: -8.124340736      1.343      1.687
REMARK  8 active torsions:
REMARK  status: ('A' for Active; 'I' for Inactive)
REMARK    1  A    between atoms: O1_2  and  C2_3 
REMARK    2  A    between atoms: C2_3  and  C3_5 
REMARK       I    between atoms: C3_5  and  N1_7 
REMARK    3  A    between atoms: N1_7  and  N2_9 
REMARK    4  A    between atoms: C4_11  and  C5_12 
REMARK    5  A    between atoms: C7_19  and  S1_20 
REMARK    6  A    between atoms: S1_20  and  C8_21 
REMARK    7  A    between atoms: C10_27  and  N8_28 
REMARK    8  A    between atoms: N9_30  and  N10_32 
ROOT
HETATM    1  C5  UNL     1      -0.535 -20.015   6.843  1.00  0.00     0.058 A 
HETATM    2  C6  UNL     1      -0.917 -20.931   7.815  1.00  0.00     0.145 A 
HETATM    3  N3  UNL     1      -1.824 -20.653   8.874  1.00  0.00    -0.080 NA
HETATM    4  N4  UNL     1      -0.268 -22.076   7.537  1.00  0.00    -0.286 N 
ATOM      5  H4  UNL     1      -0.353 -22.934   8.082  1.00  0.00     0.188 HD
HETATM    6  N5  UNL     1       0.492 -21.942   6.463  1.00  0.00    -0.292 N 
ATOM      7  H5  UNL     1       1.083 -22.662   6.048  1.00  0.00     0.187 HD
HETATM    8  C7  UNL     1       0.345 -20.690   6.021  1.00  0.00     0.103 A 
ENDROOT
BRANCH   8   9
HETATM    9  S1  UNL     1       1.140 -19.934   4.584  1.00  0.00    -0.080 SA
BRANCH   9  10
HETATM   10  C8  UNL     1       2.393 -21.035   3.951  1.00  0.00     0.088 C 
HETATM   11  C9  UNL     1       2.435 -21.418   2.704  1.00  0.00     0.123 A 
HETATM   12  N6  UNL     1       1.449 -20.955   1.780  1.00  0.00    -0.281 N 
HETATM   13  C11 UNL     1       3.471 -22.316   2.224  1.00  0.00     0.288 A 
HETATM   14  N7  UNL     1       1.541 -21.395   0.464  1.00  0.00    -0.130 N 
ATOM     15  H6  UNL     1       0.704 -20.324   2.075  1.00  0.00     0.188 HD
HETATM   16  C10 UNL     1       2.447 -22.191   0.008  1.00  0.00     0.715 A 
ATOM     17  H7  UNL     1       0.835 -21.062  -0.193  1.00  0.00     0.205 HD
HETATM   18  N11 UNL     1       3.462 -22.695   0.861  1.00  0.00    -0.151 N 
ATOM     19  H11 UNL     1       4.177 -23.324   0.496  1.00  0.00     0.188 HD
HETATM   20  O4  UNL     1       4.380 -22.765   2.995  1.00  0.00    -0.265 OA
BRANCH  16  21
HETATM   21  N8  UNL     1       2.418 -22.564  -1.387  1.00  0.00    -0.117 N 
HETATM   22  N9  UNL     1       2.915 -21.773  -2.238  1.00  0.00    -0.235 N 
ATOM     23  H9  UNL     1       2.890 -22.044  -3.221  1.00  0.00     0.208 HD
ATOM     24  H8  UNL     1       2.003 -23.448  -1.679  1.00  0.00     0.207 HD
BRANCH  22  25
HETATM   25  N10 UNL     1       3.496 -20.548  -1.902  1.00  0.00    -0.330 N 
ATOM     26 2H10 UNL     1       4.362 -20.573  -1.362  1.00  0.00     0.178 HD
ATOM     27 1H10 UNL     1       3.100 -19.647  -2.169  1.00  0.00     0.178 HD
ENDBRANCH  22  25
ENDBRANCH  16  21
ENDBRANCH   9  10
ENDBRANCH   8   9
BRANCH   1  28
HETATM   28  C4  UNL     1      -0.973 -18.636   6.722  1.00  0.00     0.125 C 
HETATM   29  N2  UNL     1      -1.163 -17.863   7.723  1.00  0.00    -0.308 N 
ATOM     30  H2  UNL     1      -0.994 -18.247   8.654  1.00  0.00     0.186 HD
BRANCH  29  31
HETATM   31  N1  UNL     1      -1.577 -16.552   7.645  1.00  0.00    -0.262 N 
HETATM   32  C3  UNL     1      -2.953 -16.222   7.846  1.00  0.00     0.335 C 
HETATM   33  O3  UNL     1      -3.813 -17.110   8.099  1.00  0.00    -0.260 OA
ATOM     34  H1  UNL     1      -0.901 -15.816   7.443  1.00  0.00     0.190 HD
BRANCH  32  35
HETATM   35  C2  UNL     1      -3.404 -14.847   7.767  1.00  0.00     0.352 C 
HETATM   36  O2  UNL     1      -4.536 -14.545   8.282  1.00  0.00    -0.254 OA
BRANCH  35  37
HETATM   37  O1  UNL     1      -2.634 -13.876   7.150  1.00  0.00    -0.319 OA
HETATM   38  C1  UNL     1      -2.876 -13.600   5.786  1.00  0.00     0.213 C 
ENDBRANCH  35  37
ENDBRANCH  32  35
ENDBRANCH  29  31
ENDBRANCH   1  28
TORSDOF 8
ENDMDL
