MODEL 1
REMARK VINA RESULT: -9.175098725      0.000      0.000
REMARK  11 active torsions:
REMARK  status: ('A' for Active; 'I' for Inactive)
REMARK    1  A    between atoms: C3_3  and  N1_4 
REMARK    2  A    between atoms: N1_4  and  N2_6 
REMARK    3  A    between atoms: N2_6  and  N3_8 
REMARK    4  A    between atoms: N3_8  and  C4_10 
REMARK    5  A    between atoms: C5_13  and  N5_14 
REMARK    6  A    between atoms: N5_14  and  N6_15 
REMARK    7  A    between atoms: N5_14  and  O1_18 
REMARK    8  A    between atoms: C6_20  and  C7_21 
REMARK    9  A    between atoms: N7_22  and  N8_24 
REMARK   10  A    between atoms: N8_24  and  C8_26 
REMARK   11  A    between atoms: N13_40  and  O4_41 
ROOT
HETATM    1  C4  UNL     1      -1.704 -18.605   8.130  1.00  0.00     0.702 A 
HETATM    2  N4  UNL     1      -1.454 -17.341   7.768  1.00  0.00    -0.170 N 
ATOM      3  H4  UNL     1      -0.523 -17.129   7.409  1.00  0.00     0.186 HD
HETATM    4  C5  UNL     1      -2.342 -16.325   7.840  1.00  0.00     0.183 A 
HETATM    5  C6  UNL     1      -3.603 -16.576   8.317  1.00  0.00     0.098 A 
HETATM    6  C11 UNL     1      -3.844 -17.904   8.690  1.00  0.00     0.275 A 
HETATM    7  O2  UNL     1      -4.978 -18.185   9.129  1.00  0.00    -0.267 OA
HETATM    8  N11 UNL     1      -2.931 -18.873   8.599  1.00  0.00    -0.154 N 
ATOM      9  H11 UNL     1      -3.169 -19.822   8.888  1.00  0.00     0.187 HD
ENDROOT
BRANCH   1  10
HETATM   10  N3  UNL     1      -0.789 -19.532   8.028  1.00  0.00    -0.117 N 
ATOM     11  H3  UNL     1      -0.927 -20.387   8.566  1.00  0.00     0.207 HD
BRANCH  10  12
HETATM   12  N2  UNL     1       0.342 -19.448   7.256  1.00  0.00    -0.227 N 
ATOM     13  H2  UNL     1       1.180 -19.037   7.667  1.00  0.00     0.209 HD
BRANCH  12  14
HETATM   14  N1  UNL     1       0.398 -19.863   6.040  1.00  0.00    -0.267 N 
ATOM     15  H1  UNL     1      -0.040 -20.745   5.771  1.00  0.00     0.190 HD
BRANCH  14  16
HETATM   16  C3  UNL     1       1.079 -19.073   5.081  1.00  0.00     0.170 A 
HETATM   17  C2  UNL     1       2.410 -19.064   4.736  1.00  0.00     0.111 A 
HETATM   18  C1  UNL     1       3.435 -19.939   5.352  1.00  0.00     0.077 C 
HETATM   19  N13 UNL     1       2.542 -18.126   3.766  1.00  0.00    -0.103 N 
HETATM   20  O3  UNL     1       1.376 -17.609   3.544  1.00  0.00    -0.127 OA
HETATM   21  N12 UNL     1       0.472 -18.138   4.301  1.00  0.00    -0.220 N 
ATOM     22  H12 UNL     1      -0.519 -17.898   4.312  1.00  0.00     0.198 HD
BRANCH  19  23
HETATM   23  O4  UNL     1       3.750 -17.840   3.176  1.00  0.00    -0.261 OA
ATOM     24  H4  UNL     1       3.946 -16.989   2.801  1.00  0.00     0.247 HD
ENDBRANCH  19  23
ENDBRANCH  14  16
ENDBRANCH  12  14
ENDBRANCH  10  12
ENDBRANCH   1  10
BRANCH   4  25
HETATM   25  N5  UNL     1      -1.975 -15.017   7.430  1.00  0.00    -0.151 N 
BRANCH  25  26
HETATM   26  N6  UNL     1      -1.177 -14.342   8.177  1.00  0.00    -0.317 N 
ATOM     27  H62 UNL     1      -0.351 -14.829   8.524  1.00  0.00     0.179 HD
ATOM     28  H61 UNL     1      -1.418 -13.375   8.396  1.00  0.00     0.179 HD
ENDBRANCH  25  26
BRANCH  25  29
HETATM   29  O1  UNL     1      -2.390 -14.415   6.272  1.00  0.00    -0.267 OA
ATOM     30  H1  UNL     1      -2.370 -13.480   6.109  1.00  0.00     0.247 HD
ENDBRANCH  25  29
ENDBRANCH   4  25
BRANCH   5  31
HETATM   31  C7  UNL     1      -4.642 -15.578   8.436  1.00  0.00     0.128 C 
HETATM   32  N7  UNL     1      -5.318 -15.452   9.508  1.00  0.00    -0.308 N 
ATOM     33  H7  UNL     1      -5.130 -16.062  10.303  1.00  0.00     0.186 HD
BRANCH  32  34
HETATM   34  N8  UNL     1      -6.312 -14.483   9.595  1.00  0.00    -0.272 N 
ATOM     35  H8  UNL     1      -6.283 -13.666   8.985  1.00  0.00     0.190 HD
BRANCH  34  36
HETATM   36  C8  UNL     1      -7.369 -14.629  10.535  1.00  0.00     0.190 C 
HETATM   37  N9  UNL     1      -7.957 -13.729  11.226  1.00  0.00    -0.360 N 
HETATM   38  C9  UNL     1      -8.992 -14.279  12.077  1.00  0.00     0.142 C 
ATOM     39  H9  UNL     1      -7.724 -12.736  11.184  1.00  0.00     0.162 HD
HETATM   40  C10 UNL     1      -8.756 -15.752  12.003  1.00  0.00     0.142 C 
HETATM   41  N10 UNL     1      -7.936 -15.912  10.834  1.00  0.00    -0.360 N 
ATOM     42  H10 UNL     1      -7.786 -16.777  10.314  1.00  0.00     0.162 HD
ENDBRANCH  34  36
ENDBRANCH  32  34
ENDBRANCH   5  31
TORSDOF 11
ENDMDL
MODEL 2
REMARK VINA RESULT: -9.060703015      0.927      1.528
REMARK  11 active torsions:
REMARK  status: ('A' for Active; 'I' for Inactive)
REMARK    1  A    between atoms: C3_3  and  N1_4 
REMARK    2  A    between atoms: N1_4  and  N2_6 
REMARK    3  A    between atoms: N2_6  and  N3_8 
REMARK    4  A    between atoms: N3_8  and  C4_10 
REMARK    5  A    between atoms: C5_13  and  N5_14 
REMARK    6  A    between atoms: N5_14  and  N6_15 
REMARK    7  A    between atoms: N5_14  and  O1_18 
REMARK    8  A    between atoms: C6_20  and  C7_21 
REMARK    9  A    between atoms: N7_22  and  N8_24 
REMARK   10  A    between atoms: N8_24  and  C8_26 
REMARK   11  A    between atoms: N13_40  and  O4_41 
ROOT
HETATM    1  C4  UNL     1      -1.407 -18.391   8.238  1.00  0.00     0.702 A 
HETATM    2  N4  UNL     1      -1.256 -17.132   7.810  1.00  0.00    -0.170 N 
ATOM      3  H4  UNL     1      -0.340 -16.862   7.452  1.00  0.00     0.186 HD
HETATM    4  C5  UNL     1      -2.227 -16.191   7.816  1.00  0.00     0.183 A 
HETATM    5  C6  UNL     1      -3.470 -16.521   8.289  1.00  0.00     0.098 A 
HETATM    6  C11 UNL     1      -3.607 -17.842   8.731  1.00  0.00     0.275 A 
HETATM    7  O2  UNL     1      -4.722 -18.193   9.171  1.00  0.00    -0.267 OA
HETATM    8  N11 UNL     1      -2.616 -18.735   8.705  1.00  0.00    -0.154 N 
ATOM      9  H11 UNL     1      -2.779 -19.684   9.042  1.00  0.00     0.187 HD
ENDROOT
BRANCH   1  10
HETATM   10  N3  UNL     1      -0.417 -19.242   8.198  1.00  0.00    -0.117 N 
ATOM     11  H3  UNL     1       0.463 -18.957   8.627  1.00  0.00     0.207 HD
BRANCH  10  12
HETATM   12  N2  UNL     1      -0.464 -20.489   7.626  1.00  0.00    -0.227 N 
ATOM     13  H2  UNL     1      -1.182 -21.140   7.943  1.00  0.00     0.209 HD
BRANCH  12  14
HETATM   14  N1  UNL     1       0.352 -20.875   6.711  1.00  0.00    -0.267 N 
ATOM     15  H1  UNL     1       0.517 -21.869   6.547  1.00  0.00     0.190 HD
BRANCH  14  16
HETATM   16  C3  UNL     1       1.018 -19.895   5.934  1.00  0.00     0.170 A 
HETATM   17  C2  UNL     1       0.535 -19.102   4.920  1.00  0.00     0.111 A 
HETATM   18  C1  UNL     1      -0.862 -19.139   4.428  1.00  0.00     0.077 C 
HETATM   19  N13 UNL     1       1.576 -18.336   4.512  1.00  0.00    -0.103 N 
HETATM   20  O3  UNL     1       2.609 -18.646   5.228  1.00  0.00    -0.127 OA
HETATM   21  N12 UNL     1       2.329 -19.568   6.088  1.00  0.00    -0.220 N 
ATOM     22  H12 UNL     1       2.975 -19.978   6.762  1.00  0.00     0.198 HD
BRANCH  19  23
HETATM   23  O4  UNL     1       1.461 -17.412   3.500  1.00  0.00    -0.261 OA
ATOM     24  H4  UNL     1       0.687 -16.872   3.387  1.00  0.00     0.247 HD
ENDBRANCH  19  23
ENDBRANCH  14  16
ENDBRANCH  12  14
ENDBRANCH  10  12
ENDBRANCH   1  10
BRANCH   4  25
HETATM   25  N5  UNL     1      -1.962 -14.880   7.339  1.00  0.00    -0.151 N 
BRANCH  25  26
HETATM   26  N6  UNL     1      -1.258 -14.093   8.071  1.00  0.00    -0.317 N 
ATOM     27  H62 UNL     1      -1.425 -13.093   7.962  1.00  0.00     0.179 HD
ATOM     28  H61 UNL     1      -0.568 -14.504   8.701  1.00  0.00     0.179 HD
ENDBRANCH  25  26
BRANCH  25  29
HETATM   29  O1  UNL     1      -2.383 -14.387   6.133  1.00  0.00    -0.267 OA
ATOM     30  H1  UNL     1      -3.155 -13.849   6.007  1.00  0.00     0.247 HD
ENDBRANCH  25  29
ENDBRANCH   4  25
BRANCH   5  31
HETATM   31  C7  UNL     1      -4.590 -15.608   8.340  1.00  0.00     0.128 C 
HETATM   32  N7  UNL     1      -5.167 -15.330   9.442  1.00  0.00    -0.308 N 
ATOM     33  H7  UNL     1      -4.840 -15.756  10.309  1.00  0.00     0.186 HD
BRANCH  32  34
HETATM   34  N8  UNL     1      -6.243 -14.448   9.462  1.00  0.00    -0.272 N 
ATOM     35  H8  UNL     1      -6.230 -13.616   8.873  1.00  0.00     0.190 HD
BRANCH  34  36
HETATM   36  C8  UNL     1      -7.359 -14.706  10.303  1.00  0.00     0.190 C 
HETATM   37  N9  UNL     1      -7.709 -15.804  10.857  1.00  0.00    -0.360 N 
HETATM   38  C9  UNL     1      -8.916 -15.661  11.646  1.00  0.00     0.142 C 
ATOM     39  H9  UNL     1      -7.198 -16.682  10.755  1.00  0.00     0.162 HD
HETATM   40  C10 UNL     1      -9.429 -14.314  11.255  1.00  0.00     0.142 C 
HETATM   41  N10 UNL     1      -8.293 -13.674  10.651  1.00  0.00    -0.360 N 
ATOM     42  H10 UNL     1      -8.173 -12.672  10.498  1.00  0.00     0.162 HD
ENDBRANCH  34  36
ENDBRANCH  32  34
ENDBRANCH   5  31
TORSDOF 11
ENDMDL
MODEL 3
REMARK VINA RESULT: -8.852729917      0.912      1.462
REMARK  11 active torsions:
REMARK  status: ('A' for Active; 'I' for Inactive)
REMARK    1  A    between atoms: C3_3  and  N1_4 
REMARK    2  A    between atoms: N1_4  and  N2_6 
REMARK    3  A    between atoms: N2_6  and  N3_8 
REMARK    4  A    between atoms: N3_8  and  C4_10 
REMARK    5  A    between atoms: C5_13  and  N5_14 
REMARK    6  A    between atoms: N5_14  and  N6_15 
REMARK    7  A    between atoms: N5_14  and  O1_18 
REMARK    8  A    between atoms: C6_20  and  C7_21 
REMARK    9  A    between atoms: N7_22  and  N8_24 
REMARK   10  A    between atoms: N8_24  and  C8_26 
REMARK   11  A    between atoms: N13_40  and  O4_41 
ROOT
HETATM    1  C4  UNL     1      -1.570 -18.541   7.996  1.00  0.00     0.702 A 
HETATM    2  N4  UNL     1      -1.364 -17.263   7.654  1.00  0.00    -0.170 N 
ATOM      3  H4  UNL     1      -0.445 -17.016   7.288  1.00  0.00     0.186 HD
HETATM    4  C5  UNL     1      -2.282 -16.277   7.757  1.00  0.00     0.183 A 
HETATM    5  C6  UNL     1      -3.528 -16.575   8.244  1.00  0.00     0.098 A 
HETATM    6  C11 UNL     1      -3.723 -17.916   8.595  1.00  0.00     0.275 A 
HETATM    7  O2  UNL     1      -4.843 -18.240   9.044  1.00  0.00    -0.267 OA
HETATM    8  N11 UNL     1      -2.782 -18.855   8.475  1.00  0.00    -0.154 N 
ATOM      9  H11 UNL     1      -2.987 -19.816   8.749  1.00  0.00     0.187 HD
ENDROOT
BRANCH   1  10
HETATM   10  N3  UNL     1      -0.629 -19.437   7.865  1.00  0.00    -0.117 N 
ATOM     11  H3  UNL     1      -0.788 -20.349   8.291  1.00  0.00     0.207 HD
BRANCH  10  12
HETATM   12  N2  UNL     1       0.557 -19.250   7.201  1.00  0.00    -0.227 N 
ATOM     13  H2  UNL     1       1.096 -18.407   7.398  1.00  0.00     0.209 HD
BRANCH  12  14
HETATM   14  N1  UNL     1       1.023 -20.087   6.342  1.00  0.00    -0.267 N 
ATOM     15  H1  UNL     1       0.571 -20.991   6.199  1.00  0.00     0.190 HD
BRANCH  14  16
HETATM   16  C3  UNL     1       2.175 -19.729   5.598  1.00  0.00     0.170 A 
HETATM   17  C2  UNL     1       2.280 -18.979   4.450  1.00  0.00     0.111 A 
HETATM   18  C1  UNL     1       1.128 -18.376   3.741  1.00  0.00     0.077 C 
HETATM   19  N13 UNL     1       3.601 -18.934   4.150  1.00  0.00    -0.103 N 
HETATM   20  O3  UNL     1       4.243 -19.607   5.051  1.00  0.00    -0.127 OA
HETATM   21  N12 UNL     1       3.439 -20.099   5.934  1.00  0.00    -0.220 N 
ATOM     22  H12 UNL     1       3.705 -20.665   6.740  1.00  0.00     0.198 HD
BRANCH  19  23
HETATM   23  O4  UNL     1       4.086 -18.262   3.052  1.00  0.00    -0.261 OA
ATOM     24  H4  UNL     1       4.958 -18.412   2.707  1.00  0.00     0.247 HD
ENDBRANCH  19  23
ENDBRANCH  14  16
ENDBRANCH  12  14
ENDBRANCH  10  12
ENDBRANCH   1  10
BRANCH   4  25
HETATM   25  N5  UNL     1      -1.960 -14.950   7.366  1.00  0.00    -0.151 N 
BRANCH  25  26
HETATM   26  N6  UNL     1      -1.193 -14.257   8.129  1.00  0.00    -0.317 N 
ATOM     27  H62 UNL     1      -1.536 -14.062   9.070  1.00  0.00     0.179 HD
ATOM     28  H61 UNL     1      -0.303 -13.928   7.753  1.00  0.00     0.179 HD
ENDBRANCH  25  26
BRANCH  25  29
HETATM   29  O1  UNL     1      -2.389 -14.349   6.214  1.00  0.00    -0.267 OA
ATOM     30  H1  UNL     1      -2.458 -13.411   6.084  1.00  0.00     0.247 HD
ENDBRANCH  25  29
ENDBRANCH   4  25
BRANCH   5  31
HETATM   31  C7  UNL     1      -4.595 -15.612   8.395  1.00  0.00     0.128 C 
HETATM   32  N7  UNL     1      -5.240 -15.505   9.489  1.00  0.00    -0.308 N 
ATOM     33  H7  UNL     1      -5.006 -16.107  10.278  1.00  0.00     0.186 HD
BRANCH  32  34
HETATM   34  N8  UNL     1      -6.262 -14.569   9.606  1.00  0.00    -0.272 N 
ATOM     35  H8  UNL     1      -6.242 -13.718   9.044  1.00  0.00     0.190 HD
BRANCH  34  36
HETATM   36  C8  UNL     1      -7.336 -14.798  10.510  1.00  0.00     0.190 C 
HETATM   37  N9  UNL     1      -7.876 -15.906  10.849  1.00  0.00    -0.360 N 
HETATM   38  C9  UNL     1      -8.952 -15.723  11.802  1.00  0.00     0.142 C 
ATOM     39  H9  UNL     1      -7.583 -16.815  10.491  1.00  0.00     0.162 HD
HETATM   40  C10 UNL     1      -9.183 -14.248  11.786  1.00  0.00     0.142 C 
HETATM   41  N10 UNL     1      -7.985 -13.717  11.194  1.00  0.00    -0.360 N 
ATOM     42  H10 UNL     1      -7.659 -12.752  11.250  1.00  0.00     0.162 HD
ENDBRANCH  34  36
ENDBRANCH  32  34
ENDBRANCH   5  31
TORSDOF 11
ENDMDL
MODEL 4
REMARK VINA RESULT: -8.705692713      0.903      2.239
REMARK  11 active torsions:
REMARK  status: ('A' for Active; 'I' for Inactive)
REMARK    1  A    between atoms: C3_3  and  N1_4 
REMARK    2  A    between atoms: N1_4  and  N2_6 
REMARK    3  A    between atoms: N2_6  and  N3_8 
REMARK    4  A    between atoms: N3_8  and  C4_10 
REMARK    5  A    between atoms: C5_13  and  N5_14 
REMARK    6  A    between atoms: N5_14  and  N6_15 
REMARK    7  A    between atoms: N5_14  and  O1_18 
REMARK    8  A    between atoms: C6_20  and  C7_21 
REMARK    9  A    between atoms: N7_22  and  N8_24 
REMARK   10  A    between atoms: N8_24  and  C8_26 
REMARK   11  A    between atoms: N13_40  and  O4_41 
ROOT
HETATM    1  C4  UNL     1      -1.422 -18.619   7.951  1.00  0.00     0.702 A 
HETATM    2  N4  UNL     1      -2.606 -18.852   8.531  1.00  0.00    -0.170 N 
ATOM      3  H4  UNL     1      -2.780 -19.791   8.888  1.00  0.00     0.186 HD
HETATM    4  C5  UNL     1      -3.589 -17.935   8.679  1.00  0.00     0.183 A 
HETATM    5  C6  UNL     1      -3.387 -16.662   8.212  1.00  0.00     0.098 A 
HETATM    6  C11 UNL     1      -2.142 -16.440   7.610  1.00  0.00     0.275 A 
HETATM    7  O2  UNL     1      -1.909 -15.296   7.169  1.00  0.00    -0.267 OA
HETATM    8  N11 UNL     1      -1.204 -17.381   7.488  1.00  0.00    -0.154 N 
ATOM      9  H11 UNL     1      -0.316 -17.155   7.038  1.00  0.00     0.187 HD
ENDROOT
BRANCH   1  10
HETATM   10  N3  UNL     1      -0.523 -19.561   7.848  1.00  0.00    -0.117 N 
ATOM     11  H3  UNL     1      -0.669 -20.410   8.395  1.00  0.00     0.207 HD
BRANCH  10  12
HETATM   12  N2  UNL     1       0.601 -19.503   7.063  1.00  0.00    -0.227 N 
ATOM     13  H2  UNL     1       1.466 -19.161   7.479  1.00  0.00     0.209 HD
BRANCH  12  14
HETATM   14  N1  UNL     1       0.616 -19.859   5.827  1.00  0.00    -0.267 N 
ATOM     15  H1  UNL     1       0.143 -20.711   5.525  1.00  0.00     0.190 HD
BRANCH  14  16
HETATM   16  C3  UNL     1       1.301 -19.043   4.892  1.00  0.00     0.170 A 
HETATM   17  C2  UNL     1       2.626 -19.053   4.524  1.00  0.00     0.111 A 
HETATM   18  C1  UNL     1       3.638 -19.980   5.082  1.00  0.00     0.077 C 
HETATM   19  N13 UNL     1       2.766 -18.076   3.595  1.00  0.00    -0.103 N 
HETATM   20  O3  UNL     1       1.611 -17.520   3.417  1.00  0.00    -0.127 OA
HETATM   21  N12 UNL     1       0.706 -18.060   4.165  1.00  0.00    -0.220 N 
ATOM     22  H12 UNL     1      -0.278 -17.796   4.204  1.00  0.00     0.198 HD
BRANCH  19  23
HETATM   23  O4  UNL     1       3.972 -17.794   2.997  1.00  0.00    -0.261 OA
ATOM     24  H4  UNL     1       4.035 -17.325   2.174  1.00  0.00     0.247 HD
ENDBRANCH  19  23
ENDBRANCH  14  16
ENDBRANCH  12  14
ENDBRANCH  10  12
ENDBRANCH   1  10
BRANCH   4  25
HETATM   25  N5  UNL     1      -4.811 -18.286   9.309  1.00  0.00    -0.151 N 
BRANCH  25  26
HETATM   26  N6  UNL     1      -4.764 -18.881  10.447  1.00  0.00    -0.317 N 
ATOM     27  H62 UNL     1      -3.924 -19.425  10.646  1.00  0.00     0.179 HD
ATOM     28  H61 UNL     1      -5.564 -18.793  11.074  1.00  0.00     0.179 HD
ENDBRANCH  25  26
BRANCH  25  29
HETATM   29  O1  UNL     1      -6.056 -18.016   8.806  1.00  0.00    -0.267 OA
ATOM     30  H1  UNL     1      -6.742 -18.661   8.683  1.00  0.00     0.247 HD
ENDBRANCH  25  29
ENDBRANCH   4  25
BRANCH   5  31
HETATM   31  C7  UNL     1      -4.355 -15.594   8.317  1.00  0.00     0.128 C 
HETATM   32  N7  UNL     1      -4.967 -15.361   9.409  1.00  0.00    -0.308 N 
ATOM     33  H7  UNL     1      -4.777 -15.935  10.231  1.00  0.00     0.186 HD
BRANCH  32  34
HETATM   34  N8  UNL     1      -5.894 -14.327   9.482  1.00  0.00    -0.272 N 
ATOM     35  H8  UNL     1      -5.694 -13.430   9.038  1.00  0.00     0.190 HD
BRANCH  34  36
HETATM   36  C8  UNL     1      -7.120 -14.517  10.176  1.00  0.00     0.190 C 
HETATM   37  N9  UNL     1      -7.962 -13.639  10.572  1.00  0.00    -0.360 N 
HETATM   38  C9  UNL     1      -9.097 -14.233  11.247  1.00  0.00     0.142 C 
ATOM     39  H9  UNL     1      -7.847 -12.635  10.429  1.00  0.00     0.162 HD
HETATM   40  C10 UNL     1      -8.675 -15.650  11.457  1.00  0.00     0.142 C 
HETATM   41  N10 UNL     1      -7.584 -15.825  10.537  1.00  0.00    -0.360 N 
ATOM     42  H10 UNL     1      -7.211 -16.714  10.204  1.00  0.00     0.162 HD
ENDBRANCH  34  36
ENDBRANCH  32  34
ENDBRANCH   5  31
TORSDOF 11
ENDMDL
MODEL 5
REMARK VINA RESULT: -8.684768635      1.305      1.493
REMARK  11 active torsions:
REMARK  status: ('A' for Active; 'I' for Inactive)
REMARK    1  A    between atoms: C3_3  and  N1_4 
REMARK    2  A    between atoms: N1_4  and  N2_6 
REMARK    3  A    between atoms: N2_6  and  N3_8 
REMARK    4  A    between atoms: N3_8  and  C4_10 
REMARK    5  A    between atoms: C5_13  and  N5_14 
REMARK    6  A    between atoms: N5_14  and  N6_15 
REMARK    7  A    between atoms: N5_14  and  O1_18 
REMARK    8  A    between atoms: C6_20  and  C7_21 
REMARK    9  A    between atoms: N7_22  and  N8_24 
REMARK   10  A    between atoms: N8_24  and  C8_26 
REMARK   11  A    between atoms: N13_40  and  O4_41 
ROOT
HETATM    1  C4  UNL     1      -1.942 -18.531   7.942  1.00  0.00     0.702 A 
HETATM    2  N4  UNL     1      -1.651 -17.259   7.643  1.00  0.00    -0.170 N 
ATOM      3  H4  UNL     1      -0.721 -17.063   7.273  1.00  0.00     0.186 HD
HETATM    4  C5  UNL     1      -2.497 -16.215   7.792  1.00  0.00     0.183 A 
HETATM    5  C6  UNL     1      -3.756 -16.445   8.284  1.00  0.00     0.098 A 
HETATM    6  C11 UNL     1      -4.040 -17.780   8.591  1.00  0.00     0.275 A 
HETATM    7  O2  UNL     1      -5.175 -18.042   9.042  1.00  0.00    -0.267 OA
HETATM    8  N11 UNL     1      -3.168 -18.777   8.425  1.00  0.00    -0.154 N 
ATOM      9  H11 UNL     1      -3.437 -19.731   8.668  1.00  0.00     0.187 HD
ENDROOT
BRANCH   1  10
HETATM   10  N3  UNL     1      -1.067 -19.484   7.768  1.00  0.00    -0.117 N 
ATOM     11  H3  UNL     1      -0.300 -19.545   8.437  1.00  0.00     0.207 HD
BRANCH  10  12
HETATM   12  N2  UNL     1      -1.094 -20.411   6.756  1.00  0.00    -0.227 N 
ATOM     13  H2  UNL     1      -1.621 -21.273   6.902  1.00  0.00     0.209 HD
BRANCH  12  14
HETATM   14  N1  UNL     1      -0.489 -20.247   5.634  1.00  0.00    -0.267 N 
ATOM     15  H1  UNL     1      -0.989 -20.363   4.751  1.00  0.00     0.190 HD
BRANCH  14  16
HETATM   16  C3  UNL     1       0.886 -19.902   5.645  1.00  0.00     0.170 A 
HETATM   17  C2  UNL     1       1.995 -20.714   5.623  1.00  0.00     0.111 A 
HETATM   18  C1  UNL     1       1.942 -22.194   5.584  1.00  0.00     0.077 C 
HETATM   19  N13 UNL     1       3.068 -19.887   5.647  1.00  0.00    -0.103 N 
HETATM   20  O3  UNL     1       2.636 -18.667   5.681  1.00  0.00    -0.127 OA
HETATM   21  N12 UNL     1       1.345 -18.623   5.681  1.00  0.00    -0.220 N 
ATOM     22  H12 UNL     1       0.772 -17.779   5.704  1.00  0.00     0.198 HD
BRANCH  19  23
HETATM   23  O4  UNL     1       4.361 -20.354   5.635  1.00  0.00    -0.261 OA
ATOM     24  H4  UNL     1       4.959 -20.183   4.918  1.00  0.00     0.247 HD
ENDBRANCH  19  23
ENDBRANCH  14  16
ENDBRANCH  12  14
ENDBRANCH  10  12
ENDBRANCH   1  10
BRANCH   4  25
HETATM   25  N5  UNL     1      -2.088 -14.901   7.444  1.00  0.00    -0.151 N 
BRANCH  25  26
HETATM   26  N6  UNL     1      -1.168 -14.341   8.144  1.00  0.00    -0.317 N 
ATOM     27  H62 UNL     1      -0.497 -14.960   8.600  1.00  0.00     0.179 HD
ATOM     28  H61 UNL     1      -1.167 -13.324   8.220  1.00  0.00     0.179 HD
ENDBRANCH  25  26
BRANCH  25  29
HETATM   29  O1  UNL     1      -2.586 -14.180   6.392  1.00  0.00    -0.267 OA
ATOM     30  H1  UNL     1      -2.127 -13.474   5.953  1.00  0.00     0.247 HD
ENDBRANCH  25  29
ENDBRANCH   4  25
BRANCH   5  31
HETATM   31  C7  UNL     1      -4.752 -15.415   8.483  1.00  0.00     0.128 C 
HETATM   32  N7  UNL     1      -5.373 -15.301   9.589  1.00  0.00    -0.308 N 
ATOM     33  H7  UNL     1      -5.172 -15.944  10.355  1.00  0.00     0.186 HD
BRANCH  32  34
HETATM   34  N8  UNL     1      -6.327 -14.302   9.752  1.00  0.00    -0.272 N 
ATOM     35  H8  UNL     1      -6.170 -13.377   9.353  1.00  0.00     0.190 HD
BRANCH  34  36
HETATM   36  C8  UNL     1      -7.522 -14.569  10.475  1.00  0.00     0.190 C 
HETATM   37  N9  UNL     1      -7.882 -15.649  11.057  1.00  0.00    -0.360 N 
HETATM   38  C9  UNL     1      -9.179 -15.525  11.690  1.00  0.00     0.142 C 
ATOM     39  H9  UNL     1      -7.322 -16.501  11.073  1.00  0.00     0.162 HD
HETATM   40  C10 UNL     1      -9.706 -14.235  11.154  1.00  0.00     0.142 C 
HETATM   41  N10 UNL     1      -8.538 -13.570  10.643  1.00  0.00    -0.360 N 
ATOM     42  H10 UNL     1      -8.449 -12.575  10.438  1.00  0.00     0.162 HD
ENDBRANCH  34  36
ENDBRANCH  32  34
ENDBRANCH   5  31
TORSDOF 11
ENDMDL
