MODEL 1
REMARK VINA RESULT: -7.296611651      0.000      0.000
REMARK  11 active torsions:
REMARK  status: ('A' for Active; 'I' for Inactive)
REMARK    1  A    between atoms: N1_2  and  C2_4 
REMARK    2  A    between atoms: C3_7  and  N3_8 
REMARK    3  A    between atoms: N3_8  and  N4_10 
REMARK    4  A    between atoms: C6_14  and  N6_15 
REMARK    5  A    between atoms: N6_15  and  C7_17 
REMARK    6  A    between atoms: C7_17  and  O1_18 
REMARK    7  A    between atoms: C7_17  and  C8_20 
REMARK    8  A    between atoms: C9_21  and  O2_22 
REMARK    9  A    between atoms: N8_28  and  O4_29 
REMARK   10  A    between atoms: C12_31  and  N9_32 
REMARK   11  A    between atoms: N9_32  and  O5_34 
ROOT
HETATM    1  C7  UNL     1      -1.039 -17.275   7.286  1.00  0.00     0.277 C 
ENDROOT
BRANCH   1   2
HETATM    2  N6  UNL     1      -1.215 -18.191   6.183  1.00  0.00    -0.194 N 
ATOM      3  H6  UNL     1      -1.978 -18.038   5.524  1.00  0.00     0.180 HD
BRANCH   2   4
HETATM    4  C6  UNL     1      -0.416 -19.211   6.012  1.00  0.00     0.709 A 
HETATM    5  N5  UNL     1       0.833 -19.092   5.542  1.00  0.00    -0.020 N 
HETATM    6  C3  UNL     1       1.655 -20.138   5.365  1.00  0.00     0.724 A 
ATOM      7  H5  UNL     1       1.176 -18.161   5.308  1.00  0.00     0.203 HD
HETATM    8  N2  UNL     1       1.216 -21.371   5.669  1.00  0.00    -0.020 N 
HETATM    9  C2  UNL     1      -0.024 -21.533   6.139  1.00  0.00     0.706 A 
ATOM     10  H2  UNL     1       1.825 -22.179   5.542  1.00  0.00     0.203 HD
HETATM   11  N10 UNL     1      -0.812 -20.462   6.302  1.00  0.00    -0.021 N 
ATOM     12  H10 UNL     1      -1.756 -20.602   6.662  1.00  0.00     0.203 HD
BRANCH   6  13
HETATM   13  N3  UNL     1       2.995 -19.950   4.855  1.00  0.00    -0.132 N 
HETATM   14  C4  UNL     1       3.129 -19.567   3.466  1.00  0.00     0.192 C 
BRANCH  13  15
HETATM   15  N4  UNL     1       4.081 -20.133   5.675  1.00  0.00    -0.129 NA
HETATM   16  C5  UNL     1       5.275 -20.549   4.990  1.00  0.00     0.159 C 
ENDBRANCH  13  15
ENDBRANCH   6  13
BRANCH   9  17
HETATM   17  N1  UNL     1      -0.442 -22.715   6.429  1.00  0.00    -0.229 N 
HETATM   18  C1  UNL     1       0.485 -23.805   6.453  1.00  0.00     0.165 C 
ATOM     19  H1  UNL     1      -1.428 -22.874   6.641  1.00  0.00     0.177 HD
ENDBRANCH   9  17
ENDBRANCH   2   4
ENDBRANCH   1   2
BRANCH   1  20
HETATM   20  O1  UNL     1      -0.255 -17.920   8.239  1.00  0.00    -0.372 OA
ATOM     21  H1  UNL     1      -0.808 -18.091   8.992  1.00  0.00     0.212 HD
ENDBRANCH   1  20
BRANCH   1  22
HETATM   22  C8  UNL     1      -2.399 -16.963   7.825  1.00  0.00     0.089 A 
HETATM   23  C9  UNL     1      -3.175 -17.920   8.441  1.00  0.00     0.160 A 
HETATM   24  N7  UNL     1      -4.400 -17.660   8.933  1.00  0.00    -0.282 N 
HETATM   25  C10 UNL     1      -5.196 -18.693   9.577  1.00  0.00     0.163 C 
HETATM   26  C11 UNL     1      -4.861 -16.404   8.803  1.00  0.00     0.356 A 
HETATM   27  O3  UNL     1      -6.020 -16.140   9.262  1.00  0.00    -0.244 OA
HETATM   28  N8  UNL     1      -4.130 -15.446   8.208  1.00  0.00    -0.153 N 
HETATM   29  C12 UNL     1      -2.898 -15.686   7.707  1.00  0.00     0.172 A 
BRANCH  23  30
HETATM   30  O2  UNL     1      -2.696 -19.203   8.570  1.00  0.00    -0.345 OA
ATOM     31  H2  UNL     1      -2.668 -19.609   9.428  1.00  0.00     0.219 HD
ENDBRANCH  23  30
BRANCH  28  32
HETATM   32  O4  UNL     1      -4.616 -14.170   8.084  1.00  0.00    -0.277 OA
ATOM     33  H4  UNL     1      -4.224 -13.452   8.566  1.00  0.00     0.245 HD
ENDBRANCH  28  32
BRANCH  29  34
HETATM   34  N9  UNL     1      -2.200 -14.767   7.138  1.00  0.00    -0.248 N 
ATOM     35  H9  UNL     1      -1.513 -14.256   7.693  1.00  0.00     0.196 HD
BRANCH  34  36
HETATM   36  O5  UNL     1      -2.344 -14.453   5.824  1.00  0.00    -0.284 OA
HETATM   37  C13 UNL     1      -3.042 -13.274   5.416  1.00  0.00     0.237 C 
ENDBRANCH  34  36
ENDBRANCH  29  34
ENDBRANCH   1  22
TORSDOF 11
ENDMDL
MODEL 2
REMARK VINA RESULT: -7.230740435      2.285      2.779
REMARK  11 active torsions:
REMARK  status: ('A' for Active; 'I' for Inactive)
REMARK    1  A    between atoms: N1_2  and  C2_4 
REMARK    2  A    between atoms: C3_7  and  N3_8 
REMARK    3  A    between atoms: N3_8  and  N4_10 
REMARK    4  A    between atoms: C6_14  and  N6_15 
REMARK    5  A    between atoms: N6_15  and  C7_17 
REMARK    6  A    between atoms: C7_17  and  O1_18 
REMARK    7  A    between atoms: C7_17  and  C8_20 
REMARK    8  A    between atoms: C9_21  and  O2_22 
REMARK    9  A    between atoms: N8_28  and  O4_29 
REMARK   10  A    between atoms: C12_31  and  N9_32 
REMARK   11  A    between atoms: N9_32  and  O5_34 
ROOT
HETATM    1  C7  UNL     1      -0.330 -18.683   6.523  1.00  0.00     0.277 C 
ENDROOT
BRANCH   1   2
HETATM    2  N6  UNL     1      -0.657 -19.685   5.536  1.00  0.00    -0.194 N 
ATOM      3  H6  UNL     1      -1.624 -19.786   5.228  1.00  0.00     0.180 HD
BRANCH   2   4
HETATM    4  C6  UNL     1       0.260 -20.467   5.030  1.00  0.00     0.709 A 
HETATM    5  N5  UNL     1       0.756 -20.311   3.795  1.00  0.00    -0.020 N 
HETATM    6  C3  UNL     1       1.697 -21.112   3.274  1.00  0.00     0.724 A 
ATOM      7  H5  UNL     1       0.400 -19.545   3.224  1.00  0.00     0.203 HD
HETATM    8  N2  UNL     1       2.174 -22.126   4.015  1.00  0.00    -0.020 N 
HETATM    9  C2  UNL     1       1.706 -22.317   5.252  1.00  0.00     0.706 A 
ATOM     10  H2  UNL     1       2.890 -22.746   3.637  1.00  0.00     0.203 HD
HETATM   11  N10 UNL     1       0.767 -21.493   5.735  1.00  0.00    -0.021 N 
ATOM     12  H10 UNL     1       0.419 -21.652   6.680  1.00  0.00     0.203 HD
BRANCH   6  13
HETATM   13  N3  UNL     1       2.196 -20.895   1.934  1.00  0.00    -0.132 N 
HETATM   14  C4  UNL     1       3.573 -20.472   1.799  1.00  0.00     0.192 C 
BRANCH  13  15
HETATM   15  N4  UNL     1       1.377 -21.090   0.849  1.00  0.00    -0.129 NA
HETATM   16  C5  UNL     1       1.689 -22.261   0.075  1.00  0.00     0.159 C 
ENDBRANCH  13  15
ENDBRANCH   6  13
BRANCH   9  17
HETATM   17  N1  UNL     1       2.165 -23.289   5.960  1.00  0.00    -0.229 N 
HETATM   18  C1  UNL     1       1.276 -24.029   6.803  1.00  0.00     0.165 C 
ATOM     19  H1  UNL     1       3.155 -23.530   5.921  1.00  0.00     0.177 HD
ENDBRANCH   9  17
ENDBRANCH   2   4
ENDBRANCH   1   2
BRANCH   1  20
HETATM   20  O1  UNL     1       0.912 -19.017   7.057  1.00  0.00    -0.372 OA
ATOM     21  H1  UNL     1       1.284 -18.225   7.426  1.00  0.00     0.212 HD
ENDBRANCH   1  20
BRANCH   1  22
HETATM   22  C8  UNL     1      -1.398 -18.722   7.568  1.00  0.00     0.089 A 
HETATM   23  C9  UNL     1      -1.565 -19.809   8.397  1.00  0.00     0.160 A 
HETATM   24  N7  UNL     1      -2.520 -19.865   9.344  1.00  0.00    -0.282 N 
HETATM   25  C10 UNL     1      -2.671 -21.028  10.204  1.00  0.00     0.163 C 
HETATM   26  C11 UNL     1      -3.331 -18.800   9.463  1.00  0.00     0.356 A 
HETATM   27  O3  UNL     1      -4.241 -18.835  10.354  1.00  0.00    -0.244 OA
HETATM   28  N8  UNL     1      -3.195 -17.723   8.671  1.00  0.00    -0.153 N 
HETATM   29  C12 UNL     1      -2.244 -17.646   7.714  1.00  0.00     0.172 A 
BRANCH  23  30
HETATM   30  O2  UNL     1      -0.731 -20.896   8.269  1.00  0.00    -0.345 OA
ATOM     31  H2  UNL     1      -1.048 -21.761   8.501  1.00  0.00     0.219 HD
ENDBRANCH  23  30
BRANCH  28  32
HETATM   32  O4  UNL     1      -4.031 -16.645   8.806  1.00  0.00    -0.277 OA
ATOM     33  H4  UNL     1      -4.353 -16.384   9.660  1.00  0.00     0.245 HD
ENDBRANCH  28  32
BRANCH  29  34
HETATM   34  N9  UNL     1      -2.116 -16.614   6.957  1.00  0.00    -0.248 N 
ATOM     35  H9  UNL     1      -2.376 -16.690   5.974  1.00  0.00     0.196 HD
BRANCH  34  36
HETATM   36  O5  UNL     1      -1.645 -15.426   7.420  1.00  0.00    -0.284 OA
HETATM   37  C13 UNL     1      -2.345 -14.205   7.171  1.00  0.00     0.237 C 
ENDBRANCH  34  36
ENDBRANCH  29  34
ENDBRANCH   1  22
TORSDOF 11
ENDMDL
MODEL 3
REMARK VINA RESULT: -7.229301326      2.844      7.918
REMARK  11 active torsions:
REMARK  status: ('A' for Active; 'I' for Inactive)
REMARK    1  A    between atoms: N1_2  and  C2_4 
REMARK    2  A    between atoms: C3_7  and  N3_8 
REMARK    3  A    between atoms: N3_8  and  N4_10 
REMARK    4  A    between atoms: C6_14  and  N6_15 
REMARK    5  A    between atoms: N6_15  and  C7_17 
REMARK    6  A    between atoms: C7_17  and  O1_18 
REMARK    7  A    between atoms: C7_17  and  C8_20 
REMARK    8  A    between atoms: C9_21  and  O2_22 
REMARK    9  A    between atoms: N8_28  and  O4_29 
REMARK   10  A    between atoms: C12_31  and  N9_32 
REMARK   11  A    between atoms: N9_32  and  O5_34 
ROOT
HETATM    1  C7  UNL     1       0.013 -18.608   4.876  1.00  0.00     0.277 C 
ENDROOT
BRANCH   1   2
HETATM    2  N6  UNL     1       0.164 -18.306   6.280  1.00  0.00    -0.194 N 
ATOM      3  H6  UNL     1       1.089 -18.075   6.645  1.00  0.00     0.180 HD
BRANCH   2   4
HETATM    4  C6  UNL     1      -0.858 -18.322   7.094  1.00  0.00     0.709 A 
HETATM    5  N5  UNL     1      -1.710 -17.296   7.220  1.00  0.00    -0.020 N 
HETATM    6  C3  UNL     1      -2.760 -17.310   8.055  1.00  0.00     0.724 A 
ATOM      7  H5  UNL     1      -1.552 -16.463   6.654  1.00  0.00     0.203 HD
HETATM    8  N2  UNL     1      -2.980 -18.401   8.808  1.00  0.00    -0.020 N 
HETATM    9  C2  UNL     1      -2.153 -19.446   8.713  1.00  0.00     0.706 A 
ATOM     10  H2  UNL     1      -3.773 -18.432   9.449  1.00  0.00     0.203 HD
HETATM   11  N10 UNL     1      -1.117 -19.391   7.866  1.00  0.00    -0.021 N 
ATOM     12  H10 UNL     1      -0.494 -20.197   7.805  1.00  0.00     0.203 HD
BRANCH   6  13
HETATM   13  N3  UNL     1      -3.648 -16.173   8.149  1.00  0.00    -0.132 N 
HETATM   14  C4  UNL     1      -3.230 -14.949   7.501  1.00  0.00     0.192 C 
BRANCH  13  15
HETATM   15  N4  UNL     1      -4.835 -16.274   8.833  1.00  0.00    -0.129 NA
HETATM   16  C5  UNL     1      -5.507 -15.020   9.041  1.00  0.00     0.159 C 
ENDBRANCH  13  15
ENDBRANCH   6  13
BRANCH   9  17
HETATM   17  N1  UNL     1      -2.365 -20.490   9.436  1.00  0.00    -0.229 N 
HETATM   18  C1  UNL     1      -3.176 -20.382  10.611  1.00  0.00     0.165 C 
ATOM     19  H1  UNL     1      -1.959 -21.388   9.174  1.00  0.00     0.177 HD
ENDBRANCH   9  17
ENDBRANCH   2   4
ENDBRANCH   1   2
BRANCH   1  20
HETATM   20  O1  UNL     1      -1.139 -19.378   4.740  1.00  0.00    -0.372 OA
ATOM     21  H1  UNL     1      -0.899 -20.279   4.920  1.00  0.00     0.212 HD
ENDBRANCH   1  20
BRANCH   1  22
HETATM   22  C8  UNL     1       1.228 -19.370   4.452  1.00  0.00     0.089 A 
HETATM   23  C9  UNL     1       2.316 -18.745   3.884  1.00  0.00     0.160 A 
HETATM   24  N7  UNL     1       3.419 -19.412   3.496  1.00  0.00    -0.282 N 
HETATM   25  C10 UNL     1       4.553 -18.724   2.899  1.00  0.00     0.163 C 
HETATM   26  C11 UNL     1       3.432 -20.743   3.683  1.00  0.00     0.356 A 
HETATM   27  O3  UNL     1       4.467 -21.391   3.321  1.00  0.00    -0.244 OA
HETATM   28  N8  UNL     1       2.387 -21.383   4.234  1.00  0.00    -0.153 N 
HETATM   29  C12 UNL     1       1.269 -20.734   4.631  1.00  0.00     0.172 A 
BRANCH  23  30
HETATM   30  O2  UNL     1       2.297 -17.383   3.697  1.00  0.00    -0.345 OA
ATOM     31  H2  UNL     1       2.739 -16.817   4.319  1.00  0.00     0.219 HD
ENDBRANCH  23  30
BRANCH  28  32
HETATM   32  O4  UNL     1       2.415 -22.742   4.417  1.00  0.00    -0.277 OA
ATOM     33  H4  UNL     1       3.240 -23.212   4.439  1.00  0.00     0.245 HD
ENDBRANCH  28  32
BRANCH  29  34
HETATM   34  N9  UNL     1       0.271 -21.349   5.159  1.00  0.00    -0.248 N 
ATOM     35  H9  UNL     1      -0.495 -21.651   4.557  1.00  0.00     0.196 HD
BRANCH  34  36
HETATM   36  O5  UNL     1       0.199 -21.610   6.490  1.00  0.00    -0.284 OA
HETATM   37  C13 UNL     1      -0.279 -22.868   6.973  1.00  0.00     0.237 C 
ENDBRANCH  34  36
ENDBRANCH  29  34
ENDBRANCH   1  22
TORSDOF 11
ENDMDL
MODEL 4
REMARK VINA RESULT: -7.159571193      2.101      2.519
REMARK  11 active torsions:
REMARK  status: ('A' for Active; 'I' for Inactive)
REMARK    1  A    between atoms: N1_2  and  C2_4 
REMARK    2  A    between atoms: C3_7  and  N3_8 
REMARK    3  A    between atoms: N3_8  and  N4_10 
REMARK    4  A    between atoms: C6_14  and  N6_15 
REMARK    5  A    between atoms: N6_15  and  C7_17 
REMARK    6  A    between atoms: C7_17  and  O1_18 
REMARK    7  A    between atoms: C7_17  and  C8_20 
REMARK    8  A    between atoms: C9_21  and  O2_22 
REMARK    9  A    between atoms: N8_28  and  O4_29 
REMARK   10  A    between atoms: C12_31  and  N9_32 
REMARK   11  A    between atoms: N9_32  and  O5_34 
ROOT
HETATM    1  C7  UNL     1      -0.334 -18.747   6.510  1.00  0.00     0.277 C 
ENDROOT
BRANCH   1   2
HETATM    2  N6  UNL     1      -0.617 -19.808   5.572  1.00  0.00    -0.194 N 
ATOM      3  H6  UNL     1      -1.582 -19.981   5.290  1.00  0.00     0.180 HD
BRANCH   2   4
HETATM    4  C6  UNL     1       0.337 -20.551   5.077  1.00  0.00     0.709 A 
HETATM    5  N5  UNL     1       0.910 -20.313   3.890  1.00  0.00    -0.020 N 
HETATM    6  C3  UNL     1       1.890 -21.074   3.380  1.00  0.00     0.724 A 
ATOM      7  H5  UNL     1       0.586 -19.513   3.347  1.00  0.00     0.203 HD
HETATM    8  N2  UNL     1       2.327 -22.133   4.084  1.00  0.00    -0.020 N 
HETATM    9  C2  UNL     1       1.781 -22.406   5.273  1.00  0.00     0.706 A 
ATOM     10  H2  UNL     1       3.071 -22.724   3.714  1.00  0.00     0.203 HD
HETATM   11  N10 UNL     1       0.806 -21.619   5.745  1.00  0.00    -0.021 N 
ATOM     12  H10 UNL     1       0.399 -21.840   6.654  1.00  0.00     0.203 HD
BRANCH   6  13
HETATM   13  N3  UNL     1       2.473 -20.769   2.092  1.00  0.00    -0.132 N 
HETATM   14  C4  UNL     1       1.583 -20.732   0.953  1.00  0.00     0.192 C 
BRANCH  13  15
HETATM   15  N4  UNL     1       3.820 -20.527   1.981  1.00  0.00    -0.129 NA
HETATM   16  C5  UNL     1       4.263 -19.331   2.646  1.00  0.00     0.159 C 
ENDBRANCH  13  15
ENDBRANCH   6  13
BRANCH   9  17
HETATM   17  N1  UNL     1       2.201 -23.420   5.945  1.00  0.00    -0.229 N 
HETATM   18  C1  UNL     1       1.264 -24.228   6.664  1.00  0.00     0.165 C 
ATOM     19  H1  UNL     1       3.196 -23.646   5.965  1.00  0.00     0.177 HD
ENDBRANCH   9  17
ENDBRANCH   2   4
ENDBRANCH   1   2
BRANCH   1  20
HETATM   20  O1  UNL     1       0.926 -18.995   7.048  1.00  0.00    -0.372 OA
ATOM     21  H1  UNL     1       1.385 -18.165   7.087  1.00  0.00     0.212 HD
ENDBRANCH   1  20
BRANCH   1  22
HETATM   22  C8  UNL     1      -1.393 -18.792   7.565  1.00  0.00     0.089 A 
HETATM   23  C9  UNL     1      -1.547 -19.882   8.394  1.00  0.00     0.160 A 
HETATM   24  N7  UNL     1      -2.493 -19.943   9.350  1.00  0.00    -0.282 N 
HETATM   25  C10 UNL     1      -2.631 -21.108  10.209  1.00  0.00     0.163 C 
HETATM   26  C11 UNL     1      -3.307 -18.882   9.479  1.00  0.00     0.356 A 
HETATM   27  O3  UNL     1      -4.209 -18.922  10.378  1.00  0.00    -0.244 OA
HETATM   28  N8  UNL     1      -3.184 -17.802   8.687  1.00  0.00    -0.153 N 
HETATM   29  C12 UNL     1      -2.242 -17.720   7.721  1.00  0.00     0.172 A 
BRANCH  23  30
HETATM   30  O2  UNL     1      -0.710 -20.965   8.257  1.00  0.00    -0.345 OA
ATOM     31  H2  UNL     1      -0.941 -21.791   8.664  1.00  0.00     0.219 HD
ENDBRANCH  23  30
BRANCH  28  32
HETATM   32  O4  UNL     1      -4.023 -16.728   8.831  1.00  0.00    -0.277 OA
ATOM     33  H4  UNL     1      -3.790 -15.879   8.476  1.00  0.00     0.245 HD
ENDBRANCH  28  32
BRANCH  29  34
HETATM   34  N9  UNL     1      -2.125 -16.687   6.964  1.00  0.00    -0.248 N 
ATOM     35  H9  UNL     1      -2.408 -16.758   5.987  1.00  0.00     0.196 HD
BRANCH  34  36
HETATM   36  O5  UNL     1      -1.638 -15.503   7.420  1.00  0.00    -0.284 OA
HETATM   37  C13 UNL     1      -2.307 -14.270   7.143  1.00  0.00     0.237 C 
ENDBRANCH  34  36
ENDBRANCH  29  34
ENDBRANCH   1  22
TORSDOF 11
ENDMDL
MODEL 5
REMARK VINA RESULT: -7.137203294      2.631      7.707
REMARK  11 active torsions:
REMARK  status: ('A' for Active; 'I' for Inactive)
REMARK    1  A    between atoms: N1_2  and  C2_4 
REMARK    2  A    between atoms: C3_7  and  N3_8 
REMARK    3  A    between atoms: N3_8  and  N4_10 
REMARK    4  A    between atoms: C6_14  and  N6_15 
REMARK    5  A    between atoms: N6_15  and  C7_17 
REMARK    6  A    between atoms: C7_17  and  O1_18 
REMARK    7  A    between atoms: C7_17  and  C8_20 
REMARK    8  A    between atoms: C9_21  and  O2_22 
REMARK    9  A    between atoms: N8_28  and  O4_29 
REMARK   10  A    between atoms: C12_31  and  N9_32 
REMARK   11  A    between atoms: N9_32  and  O5_34 
ROOT
HETATM    1  C7  UNL     1      -0.123 -20.201   7.421  1.00  0.00     0.277 C 
ENDROOT
BRANCH   1   2
HETATM    2  N6  UNL     1      -1.494 -19.882   7.100  1.00  0.00    -0.194 N 
ATOM      3  H6  UNL     1      -1.935 -20.327   6.294  1.00  0.00     0.180 HD
BRANCH   2   4
HETATM    4  C6  UNL     1      -2.183 -19.036   7.819  1.00  0.00     0.709 A 
HETATM    5  N5  UNL     1      -2.382 -17.761   7.459  1.00  0.00    -0.020 N 
HETATM    6  C3  UNL     1      -3.088 -16.890   8.195  1.00  0.00     0.724 A 
ATOM      7  H5  UNL     1      -1.976 -17.436   6.581  1.00  0.00     0.203 HD
HETATM    8  N2  UNL     1      -3.628 -17.304   9.355  1.00  0.00    -0.020 N 
HETATM    9  C2  UNL     1      -3.452 -18.568   9.751  1.00  0.00     0.706 A 
ATOM     10  H2  UNL     1      -4.168 -16.657   9.929  1.00  0.00     0.203 HD
HETATM   11  N10 UNL     1      -2.740 -19.404   8.985  1.00  0.00    -0.021 N 
ATOM     12  H10 UNL     1      -2.615 -20.366   9.301  1.00  0.00     0.203 HD
BRANCH   6  13
HETATM   13  N3  UNL     1      -3.271 -15.524   7.756  1.00  0.00    -0.132 N 
HETATM   14  C4  UNL     1      -4.538 -14.895   8.058  1.00  0.00     0.192 C 
BRANCH  13  15
HETATM   15  N4  UNL     1      -2.269 -14.872   7.083  1.00  0.00    -0.129 NA
HETATM   16  C5  UNL     1      -2.725 -13.815   6.222  1.00  0.00     0.159 C 
ENDBRANCH  13  15
ENDBRANCH   6  13
BRANCH   9  17
HETATM   17  N1  UNL     1      -3.969 -18.961  10.862  1.00  0.00    -0.229 N 
HETATM   18  C1  UNL     1      -3.765 -20.309  11.297  1.00  0.00     0.165 C 
ATOM     19  H1  UNL     1      -4.521 -18.317  11.428  1.00  0.00     0.177 HD
ENDBRANCH   9  17
ENDBRANCH   2   4
ENDBRANCH   1   2
BRANCH   1  20
HETATM   20  O1  UNL     1       0.354 -19.188   8.250  1.00  0.00    -0.372 OA
ATOM     21  H1  UNL     1      -0.159 -18.410   8.070  1.00  0.00     0.212 HD
ENDBRANCH   1  20
BRANCH   1  22
HETATM   22  C8  UNL     1       0.636 -20.249   6.134  1.00  0.00     0.089 A 
HETATM   23  C9  UNL     1       0.930 -19.108   5.420  1.00  0.00     0.160 A 
HETATM   24  N7  UNL     1       1.612 -19.129   4.259  1.00  0.00    -0.282 N 
HETATM   25  C10 UNL     1       1.907 -17.907   3.528  1.00  0.00     0.163 C 
HETATM   26  C11 UNL     1       2.010 -20.328   3.802  1.00  0.00     0.356 A 
HETATM   27  O3  UNL     1       2.657 -20.368   2.704  1.00  0.00    -0.244 OA
HETATM   28  N8  UNL     1       1.741 -21.461   4.473  1.00  0.00    -0.153 N 
HETATM   29  C12 UNL     1       1.057 -21.463   5.640  1.00  0.00     0.172 A 
BRANCH  23  30
HETATM   30  O2  UNL     1       0.520 -17.884   5.894  1.00  0.00    -0.345 OA
ATOM     31  H2  UNL     1       0.209 -17.225   5.285  1.00  0.00     0.219 HD
ENDBRANCH  23  30
BRANCH  28  32
HETATM   32  O4  UNL     1       2.153 -22.676   3.992  1.00  0.00    -0.277 OA
ATOM     33  H4  UNL     1       3.006 -23.025   4.222  1.00  0.00     0.245 HD
ENDBRANCH  28  32
BRANCH  29  34
HETATM   34  N9  UNL     1       0.800 -22.547   6.281  1.00  0.00    -0.248 N 
ATOM     35  H9  UNL     1      -0.162 -22.736   6.563  1.00  0.00     0.196 HD
BRANCH  34  36
HETATM   36  O5  UNL     1       1.764 -23.451   6.598  1.00  0.00    -0.284 OA
HETATM   37  C13 UNL     1       1.450 -24.652   7.306  1.00  0.00     0.237 C 
ENDBRANCH  34  36
ENDBRANCH  29  34
ENDBRANCH   1  22
TORSDOF 11
ENDMDL
