MODEL 1
REMARK VINA RESULT: -9.083333293      0.000      0.000
REMARK  10 active torsions:
REMARK  status: ('A' for Active; 'I' for Inactive)
REMARK    1  A    between atoms: C2_2  and  C11_28 
REMARK    2  A    between atoms: N1_3  and  O1_5 
REMARK    3  A    between atoms: O1_5  and  C3_6 
REMARK    4  A    between atoms: C3_6  and  C4_8 
REMARK    5  A    between atoms: N2_9  and  N3_11 
REMARK    6  A    between atoms: N3_11  and  C5_13 
REMARK    7  A    between atoms: C5_13  and  O3_14 
REMARK    8  A    between atoms: C5_13  and  C6_16 
REMARK    9  A    between atoms: C7_17  and  O4_18 
REMARK   10  A    between atoms: C13_34  and  O9_35 
ROOT
HETATM    1  C4  UNL     1      -0.979 -19.004   5.715  1.00  0.00     0.190 C 
HETATM    2  N2  UNL     1      -0.469 -19.042   4.539  1.00  0.00    -0.308 N 
ATOM      3  H2  UNL     1      -1.001 -19.521   3.814  1.00  0.00     0.185 HD
ENDROOT
BRANCH   2   4
HETATM    4  N3  UNL     1       0.750 -18.483   4.173  1.00  0.00    -0.303 N 
ATOM      5  H3  UNL     1       1.061 -17.590   4.555  1.00  0.00     0.183 HD
BRANCH   4   6
HETATM    6  C5  UNL     1       1.568 -19.228   3.218  1.00  0.00     0.277 C 
BRANCH   6   7
HETATM    7  O3  UNL     1       0.811 -20.274   2.744  1.00  0.00    -0.371 OA
ATOM      8  H3  UNL     1       1.328 -21.067   2.828  1.00  0.00     0.212 HD
ENDBRANCH   6   7
BRANCH   6   9
HETATM    9  C6  UNL     1       2.811 -19.725   3.901  1.00  0.00     0.110 A 
HETATM   10  C7  UNL     1       3.994 -19.093   3.575  1.00  0.00     0.162 A 
HETATM   11  N4  UNL     1       5.134 -19.513   4.170  1.00  0.00    -0.284 N 
HETATM   12  C8  UNL     1       6.387 -18.859   3.839  1.00  0.00     0.163 C 
HETATM   13  C9  UNL     1       5.088 -20.514   5.046  1.00  0.00     0.331 A 
HETATM   14  O5  UNL     1       6.156 -20.900   5.598  1.00  0.00    -0.246 OA
HETATM   15  N5  UNL     1       3.948 -21.146   5.380  1.00  0.00    -0.275 N 
HETATM   16  C10 UNL     1       2.795 -20.752   4.805  1.00  0.00     0.264 A 
ATOM     17  H5  UNL     1       3.957 -21.909   6.056  1.00  0.00     0.173 HD
HETATM   18  O6  UNL     1       1.705 -21.314   5.087  1.00  0.00    -0.267 OA
BRANCH  10  19
HETATM   19  O4  UNL     1       4.038 -18.056   2.667  1.00  0.00    -0.345 OA
ATOM     20  H4  UNL     1       4.858 -17.745   2.301  1.00  0.00     0.219 HD
ENDBRANCH  10  19
ENDBRANCH   6   9
ENDBRANCH   4   6
ENDBRANCH   2   4
BRANCH   1  21
HETATM   21  C3  UNL     1      -0.314 -18.354   6.830  1.00  0.00     0.321 C 
HETATM   22  O2  UNL     1       0.621 -18.959   7.407  1.00  0.00    -0.257 OA
BRANCH  21  23
HETATM   23  O1  UNL     1      -0.714 -17.088   7.237  1.00  0.00    -0.194 OA
BRANCH  23  24
HETATM   24  N1  UNL     1      -1.938 -16.931   7.806  1.00  0.00    -0.260 N 
HETATM   25  C2  UNL     1      -2.634 -15.852   7.727  1.00  0.00     0.060 C 
HETATM   26  C1  UNL     1      -2.169 -14.650   7.001  1.00  0.00     0.072 C 
ATOM     27  H1  UNL     1      -2.329 -17.716   8.326  1.00  0.00     0.194 HD
BRANCH  25  28
HETATM   28  C11 UNL     1      -3.932 -15.826   8.388  1.00  0.00     0.120 A 
HETATM   29  N6  UNL     1      -4.628 -14.754   8.798  1.00  0.00    -0.296 N 
HETATM   30  C12 UNL     1      -5.784 -15.139   9.364  1.00  0.00     0.372 A 
ATOM     31  H6  UNL     1      -4.323 -13.786   8.694  1.00  0.00     0.171 HD
HETATM   32  O7  UNL     1      -6.681 -14.374   9.860  1.00  0.00    -0.238 OA
HETATM   33  O8  UNL     1      -5.812 -16.449   9.310  1.00  0.00    -0.235 OA
HETATM   34  C13 UNL     1      -4.730 -16.916   8.736  1.00  0.00     0.217 A 
BRANCH  34  35
HETATM   35  O9  UNL     1      -4.375 -18.230   8.487  1.00  0.00    -0.339 OA
ATOM     36  H9  UNL     1      -4.637 -18.955   9.041  1.00  0.00     0.220 HD
ENDBRANCH  34  35
ENDBRANCH  25  28
ENDBRANCH  23  24
ENDBRANCH  21  23
ENDBRANCH   1  21
TORSDOF 10
ENDMDL
MODEL 2
REMARK VINA RESULT: -9.022727301      1.593      2.573
REMARK  10 active torsions:
REMARK  status: ('A' for Active; 'I' for Inactive)
REMARK    1  A    between atoms: C2_2  and  C11_28 
REMARK    2  A    between atoms: N1_3  and  O1_5 
REMARK    3  A    between atoms: O1_5  and  C3_6 
REMARK    4  A    between atoms: C3_6  and  C4_8 
REMARK    5  A    between atoms: N2_9  and  N3_11 
REMARK    6  A    between atoms: N3_11  and  C5_13 
REMARK    7  A    between atoms: C5_13  and  O3_14 
REMARK    8  A    between atoms: C5_13  and  C6_16 
REMARK    9  A    between atoms: C7_17  and  O4_18 
REMARK   10  A    between atoms: C13_34  and  O9_35 
ROOT
HETATM    1  C4  UNL     1      -0.812 -18.539   5.780  1.00  0.00     0.190 C 
HETATM    2  N2  UNL     1       0.013 -18.685   4.810  1.00  0.00    -0.308 N 
ATOM      3  H2  UNL     1      -0.361 -19.018   3.922  1.00  0.00     0.185 HD
ENDROOT
BRANCH   2   4
HETATM    4  N3  UNL     1       1.378 -18.426   4.870  1.00  0.00    -0.303 N 
ATOM      5  H3  UNL     1       1.740 -17.474   4.831  1.00  0.00     0.183 HD
BRANCH   4   6
HETATM    6  C5  UNL     1       2.273 -19.576   4.991  1.00  0.00     0.277 C 
BRANCH   6   7
HETATM    7  O3  UNL     1       3.230 -19.266   5.928  1.00  0.00    -0.371 OA
ATOM      8  H3  UNL     1       2.952 -19.634   6.759  1.00  0.00     0.212 HD
ENDBRANCH   6   7
BRANCH   6   9
HETATM    9  C6  UNL     1       2.896 -19.869   3.656  1.00  0.00     0.110 A 
HETATM   10  C7  UNL     1       2.082 -20.449   2.704  1.00  0.00     0.162 A 
HETATM   11  N4  UNL     1       2.609 -20.728   1.490  1.00  0.00    -0.284 N 
HETATM   12  C8  UNL     1       1.767 -21.338   0.476  1.00  0.00     0.163 C 
HETATM   13  C9  UNL     1       3.885 -20.440   1.244  1.00  0.00     0.331 A 
HETATM   14  O5  UNL     1       4.369 -20.703   0.109  1.00  0.00    -0.246 OA
HETATM   15  N5  UNL     1       4.699 -19.876   2.155  1.00  0.00    -0.275 N 
HETATM   16  C10 UNL     1       4.205 -19.585   3.375  1.00  0.00     0.264 A 
ATOM     17  H5  UNL     1       5.671 -19.671   1.926  1.00  0.00     0.173 HD
HETATM   18  O6  UNL     1       4.929 -19.057   4.258  1.00  0.00    -0.267 OA
BRANCH  10  19
HETATM   19  O4  UNL     1       0.760 -20.747   2.961  1.00  0.00    -0.345 OA
ATOM     20  H4  UNL     1       0.290 -21.407   2.466  1.00  0.00     0.219 HD
ENDBRANCH  10  19
ENDBRANCH   6   9
ENDBRANCH   4   6
ENDBRANCH   2   4
BRANCH   1  21
HETATM   21  C3  UNL     1      -0.397 -18.075   7.091  1.00  0.00     0.321 C 
HETATM   22  O2  UNL     1       0.327 -18.823   7.791  1.00  0.00    -0.257 OA
BRANCH  21  23
HETATM   23  O1  UNL     1      -0.799 -16.827   7.547  1.00  0.00    -0.194 OA
BRANCH  23  24
HETATM   24  N1  UNL     1      -2.039 -16.685   8.083  1.00  0.00    -0.260 N 
HETATM   25  C2  UNL     1      -2.836 -15.714   7.805  1.00  0.00     0.060 C 
HETATM   26  C1  UNL     1      -2.480 -14.631   6.860  1.00  0.00     0.072 C 
ATOM     27  H1  UNL     1      -2.359 -17.392   8.745  1.00  0.00     0.194 HD
BRANCH  25  28
HETATM   28  C11 UNL     1      -4.139 -15.690   8.456  1.00  0.00     0.120 A 
HETATM   29  N6  UNL     1      -4.813 -14.623   8.913  1.00  0.00    -0.296 N 
HETATM   30  C12 UNL     1      -5.983 -15.009   9.451  1.00  0.00     0.372 A 
ATOM     31  H6  UNL     1      -4.485 -13.659   8.860  1.00  0.00     0.171 HD
HETATM   32  O7  UNL     1      -6.866 -14.248   9.978  1.00  0.00    -0.238 OA
HETATM   33  O8  UNL     1      -6.041 -16.313   9.332  1.00  0.00    -0.235 OA
HETATM   34  C13 UNL     1      -4.965 -16.776   8.743  1.00  0.00     0.217 A 
BRANCH  34  35
HETATM   35  O9  UNL     1      -4.638 -18.084   8.432  1.00  0.00    -0.339 OA
ATOM     36  H9  UNL     1      -5.275 -18.787   8.396  1.00  0.00     0.220 HD
ENDBRANCH  34  35
ENDBRANCH  25  28
ENDBRANCH  23  24
ENDBRANCH  21  23
ENDBRANCH   1  21
TORSDOF 10
ENDMDL
MODEL 3
REMARK VINA RESULT: -9.019092494      1.353      1.743
REMARK  10 active torsions:
REMARK  status: ('A' for Active; 'I' for Inactive)
REMARK    1  A    between atoms: C2_2  and  C11_28 
REMARK    2  A    between atoms: N1_3  and  O1_5 
REMARK    3  A    between atoms: O1_5  and  C3_6 
REMARK    4  A    between atoms: C3_6  and  C4_8 
REMARK    5  A    between atoms: N2_9  and  N3_11 
REMARK    6  A    between atoms: N3_11  and  C5_13 
REMARK    7  A    between atoms: C5_13  and  O3_14 
REMARK    8  A    between atoms: C5_13  and  C6_16 
REMARK    9  A    between atoms: C7_17  and  O4_18 
REMARK   10  A    between atoms: C13_34  and  O9_35 
ROOT
HETATM    1  C4  UNL     1      -0.239 -19.612   5.233  1.00  0.00     0.190 C 
HETATM    2  N2  UNL     1       0.112 -19.789   4.013  1.00  0.00    -0.308 N 
ATOM      3  H2  UNL     1      -0.374 -20.515   3.486  1.00  0.00     0.185 HD
ENDROOT
BRANCH   2   4
HETATM    4  N3  UNL     1       1.101 -19.072   3.348  1.00  0.00    -0.303 N 
ATOM      5  H3  UNL     1       1.125 -18.053   3.372  1.00  0.00     0.183 HD
BRANCH   4   6
HETATM    6  C5  UNL     1       2.105 -19.840   2.614  1.00  0.00     0.277 C 
BRANCH   6   7
HETATM    7  O3  UNL     1       1.532 -21.035   2.245  1.00  0.00    -0.371 OA
ATOM      8  H3  UNL     1       1.602 -21.630   2.983  1.00  0.00     0.212 HD
ENDBRANCH   6   7
BRANCH   6   9
HETATM    9  C6  UNL     1       3.305 -20.063   3.490  1.00  0.00     0.110 A 
HETATM   10  C7  UNL     1       4.392 -19.239   3.276  1.00  0.00     0.162 A 
HETATM   11  N4  UNL     1       5.491 -19.410   4.046  1.00  0.00    -0.284 N 
HETATM   12  C8  UNL     1       6.644 -18.552   3.834  1.00  0.00     0.163 C 
HETATM   13  C9  UNL     1       5.499 -20.357   4.981  1.00  0.00     0.331 A 
HETATM   14  O5  UNL     1       6.528 -20.510   5.696  1.00  0.00    -0.246 OA
HETATM   15  N5  UNL     1       4.453 -21.172   5.209  1.00  0.00    -0.275 N 
HETATM   16  C10 UNL     1       3.343 -21.029   4.459  1.00  0.00     0.264 A 
ATOM     17  H5  UNL     1       4.501 -21.886   5.936  1.00  0.00     0.173 HD
HETATM   18  O6  UNL     1       2.341 -21.769   4.637  1.00  0.00    -0.267 OA
BRANCH  10  19
HETATM   19  O4  UNL     1       4.381 -18.258   2.306  1.00  0.00    -0.345 OA
ATOM     20  H4  UNL     1       5.129 -17.690   2.161  1.00  0.00     0.219 HD
ENDBRANCH  10  19
ENDBRANCH   6   9
ENDBRANCH   4   6
ENDBRANCH   2   4
BRANCH   1  21
HETATM   21  C3  UNL     1       0.381 -18.612   6.083  1.00  0.00     0.321 C 
HETATM   22  O2  UNL     1       1.370 -17.979   5.641  1.00  0.00    -0.257 OA
BRANCH  21  23
HETATM   23  O1  UNL     1      -0.120 -18.371   7.355  1.00  0.00    -0.194 OA
BRANCH  23  24
HETATM   24  N1  UNL     1      -1.072 -17.415   7.521  1.00  0.00    -0.260 N 
HETATM   25  C2  UNL     1      -2.263 -17.653   7.945  1.00  0.00     0.060 C 
HETATM   26  C1  UNL     1      -2.731 -19.012   8.300  1.00  0.00     0.072 C 
ATOM     27  H1  UNL     1      -0.827 -16.451   7.296  1.00  0.00     0.194 HD
BRANCH  25  28
HETATM   28  C11 UNL     1      -3.181 -16.529   8.074  1.00  0.00     0.120 A 
HETATM   29  N6  UNL     1      -4.332 -16.479   8.762  1.00  0.00    -0.296 N 
HETATM   30  C12 UNL     1      -4.894 -15.264   8.639  1.00  0.00     0.372 A 
ATOM     31  H6  UNL     1      -4.725 -17.251   9.300  1.00  0.00     0.171 HD
HETATM   32  O7  UNL     1      -5.994 -14.877   9.164  1.00  0.00    -0.238 OA
HETATM   33  O8  UNL     1      -4.097 -14.556   7.876  1.00  0.00    -0.235 OA
HETATM   34  C13 UNL     1      -3.055 -15.261   7.508  1.00  0.00     0.217 A 
BRANCH  34  35
HETATM   35  O9  UNL     1      -1.989 -14.886   6.709  1.00  0.00    -0.339 OA
ATOM     36  H9  UNL     1      -1.809 -13.985   6.467  1.00  0.00     0.220 HD
ENDBRANCH  34  35
ENDBRANCH  25  28
ENDBRANCH  23  24
ENDBRANCH  21  23
ENDBRANCH   1  21
TORSDOF 10
ENDMDL
MODEL 4
REMARK VINA RESULT: -8.845051890      1.723      9.364
REMARK  10 active torsions:
REMARK  status: ('A' for Active; 'I' for Inactive)
REMARK    1  A    between atoms: C2_2  and  C11_28 
REMARK    2  A    between atoms: N1_3  and  O1_5 
REMARK    3  A    between atoms: O1_5  and  C3_6 
REMARK    4  A    between atoms: C3_6  and  C4_8 
REMARK    5  A    between atoms: N2_9  and  N3_11 
REMARK    6  A    between atoms: N3_11  and  C5_13 
REMARK    7  A    between atoms: C5_13  and  O3_14 
REMARK    8  A    between atoms: C5_13  and  C6_16 
REMARK    9  A    between atoms: C7_17  and  O4_18 
REMARK   10  A    between atoms: C13_34  and  O9_35 
ROOT
HETATM    1  C4  UNL     1      -0.135 -20.082   6.283  1.00  0.00     0.190 C 
HETATM    2  N2  UNL     1      -0.626 -19.189   7.061  1.00  0.00    -0.308 N 
ATOM      3  H2  UNL     1      -0.193 -19.076   7.977  1.00  0.00     0.185 HD
ENDROOT
BRANCH   2   4
HETATM    4  N3  UNL     1      -1.702 -18.362   6.757  1.00  0.00    -0.303 N 
ATOM      5  H3  UNL     1      -2.569 -18.737   6.375  1.00  0.00     0.183 HD
BRANCH   4   6
HETATM    6  C5  UNL     1      -1.537 -16.931   7.009  1.00  0.00     0.277 C 
BRANCH   6   7
HETATM    7  O3  UNL     1      -0.452 -16.773   7.838  1.00  0.00    -0.371 OA
ATOM      8  H3  UNL     1      -0.619 -16.020   8.394  1.00  0.00     0.212 HD
ENDBRANCH   6   7
BRANCH   6   9
HETATM    9  C6  UNL     1      -2.786 -16.387   7.642  1.00  0.00     0.110 A 
HETATM   10  C7  UNL     1      -3.660 -17.307   8.185  1.00  0.00     0.162 A 
HETATM   11  N4  UNL     1      -4.796 -16.854   8.763  1.00  0.00    -0.284 N 
HETATM   12  C8  UNL     1      -5.726 -17.808   9.340  1.00  0.00     0.163 C 
HETATM   13  C9  UNL     1      -5.042 -15.546   8.795  1.00  0.00     0.331 A 
HETATM   14  O5  UNL     1      -6.103 -15.130   9.336  1.00  0.00    -0.246 OA
HETATM   15  N5  UNL     1      -4.207 -14.629   8.272  1.00  0.00    -0.275 N 
HETATM   16  C10 UNL     1      -3.067 -15.048   7.688  1.00  0.00     0.264 A 
ATOM     17  H5  UNL     1      -4.433 -13.636   8.317  1.00  0.00     0.173 HD
HETATM   18  O6  UNL     1      -2.256 -14.226   7.187  1.00  0.00    -0.267 OA
BRANCH  10  19
HETATM   19  O4  UNL     1      -3.403 -18.662   8.151  1.00  0.00    -0.345 OA
ATOM     20  H4  UNL     1      -4.051 -19.287   7.847  1.00  0.00     0.219 HD
ENDBRANCH  10  19
ENDBRANCH   6   9
ENDBRANCH   4   6
ENDBRANCH   2   4
BRANCH   1  21
HETATM   21  C3  UNL     1      -0.668 -20.336   4.957  1.00  0.00     0.321 C 
HETATM   22  O2  UNL     1      -1.856 -20.725   4.853  1.00  0.00    -0.257 OA
BRANCH  21  23
HETATM   23  O1  UNL     1       0.130 -20.148   3.837  1.00  0.00    -0.194 OA
BRANCH  23  24
HETATM   24  N1  UNL     1       1.437 -19.814   4.004  1.00  0.00    -0.260 N 
HETATM   25  C2  UNL     1       2.333 -19.939   3.089  1.00  0.00     0.060 C 
HETATM   26  C1  UNL     1       2.032 -20.466   1.739  1.00  0.00     0.072 C 
ATOM     27  H1  UNL     1       1.725 -19.442   4.909  1.00  0.00     0.194 HD
BRANCH  25  28
HETATM   28  C11 UNL     1       3.698 -19.540   3.409  1.00  0.00     0.120 A 
HETATM   29  N6  UNL     1       4.496 -18.707   2.724  1.00  0.00    -0.296 N 
HETATM   30  C12 UNL     1       5.685 -18.591   3.340  1.00  0.00     0.372 A 
ATOM     31  H6  UNL     1       4.237 -18.230   1.860  1.00  0.00     0.171 HD
HETATM   32  O7  UNL     1       6.675 -17.878   2.956  1.00  0.00    -0.238 OA
HETATM   33  O8  UNL     1       5.631 -19.350   4.408  1.00  0.00    -0.235 OA
HETATM   34  C13 UNL     1       4.465 -19.943   4.501  1.00  0.00     0.217 A 
BRANCH  34  35
HETATM   35  O9  UNL     1       4.010 -20.818   5.472  1.00  0.00    -0.339 OA
ATOM     36  H9  UNL     1       4.063 -20.639   6.403  1.00  0.00     0.220 HD
ENDBRANCH  34  35
ENDBRANCH  25  28
ENDBRANCH  23  24
ENDBRANCH  21  23
ENDBRANCH   1  21
TORSDOF 10
ENDMDL
MODEL 5
REMARK VINA RESULT: -8.800528118      1.691      8.952
REMARK  10 active torsions:
REMARK  status: ('A' for Active; 'I' for Inactive)
REMARK    1  A    between atoms: C2_2  and  C11_28 
REMARK    2  A    between atoms: N1_3  and  O1_5 
REMARK    3  A    between atoms: O1_5  and  C3_6 
REMARK    4  A    between atoms: C3_6  and  C4_8 
REMARK    5  A    between atoms: N2_9  and  N3_11 
REMARK    6  A    between atoms: N3_11  and  C5_13 
REMARK    7  A    between atoms: C5_13  and  O3_14 
REMARK    8  A    between atoms: C5_13  and  C6_16 
REMARK    9  A    between atoms: C7_17  and  O4_18 
REMARK   10  A    between atoms: C13_34  and  O9_35 
ROOT
HETATM    1  C4  UNL     1      -1.547 -20.574   5.489  1.00  0.00     0.190 C 
HETATM    2  N2  UNL     1      -1.794 -19.378   5.878  1.00  0.00    -0.308 N 
ATOM      3  H2  UNL     1      -2.766 -19.141   6.076  1.00  0.00     0.185 HD
ENDROOT
BRANCH   2   4
HETATM    4  N3  UNL     1      -0.845 -18.376   6.051  1.00  0.00    -0.303 N 
ATOM      5  H3  UNL     1      -0.219 -18.102   5.294  1.00  0.00     0.183 HD
BRANCH   4   6
HETATM    6  C5  UNL     1      -0.782 -17.734   7.363  1.00  0.00     0.277 C 
BRANCH   6   7
HETATM    7  O3  UNL     1      -0.111 -18.581   8.213  1.00  0.00    -0.371 OA
ATOM      8  H3  UNL     1       0.331 -18.049   8.864  1.00  0.00     0.212 HD
ENDBRANCH   6   7
BRANCH   6   9
HETATM    9  C6  UNL     1      -2.175 -17.463   7.856  1.00  0.00     0.110 A 
HETATM   10  C7  UNL     1      -2.690 -16.208   7.605  1.00  0.00     0.162 A 
HETATM   11  N4  UNL     1      -3.942 -15.927   8.034  1.00  0.00    -0.284 N 
HETATM   12  C8  UNL     1      -4.500 -14.611   7.778  1.00  0.00     0.163 C 
HETATM   13  C9  UNL     1      -4.640 -16.858   8.681  1.00  0.00     0.331 A 
HETATM   14  O5  UNL     1      -5.807 -16.589   9.078  1.00  0.00    -0.246 OA
HETATM   15  N5  UNL     1      -4.160 -18.088   8.939  1.00  0.00    -0.275 N 
HETATM   16  C10 UNL     1      -2.916 -18.400   8.525  1.00  0.00     0.264 A 
ATOM     17  H5  UNL     1      -4.728 -18.773   9.438  1.00  0.00     0.173 HD
HETATM   18  O6  UNL     1      -2.427 -19.539   8.743  1.00  0.00    -0.267 OA
BRANCH  10  19
HETATM   19  O4  UNL     1      -1.965 -15.245   6.934  1.00  0.00    -0.345 OA
ATOM     20  H4  UNL     1      -1.787 -14.394   7.318  1.00  0.00     0.219 HD
ENDBRANCH  10  19
ENDBRANCH   6   9
ENDBRANCH   4   6
ENDBRANCH   2   4
BRANCH   1  21
HETATM   21  C3  UNL     1      -0.205 -21.028   5.175  1.00  0.00     0.321 C 
HETATM   22  O2  UNL     1       0.337 -21.869   5.933  1.00  0.00    -0.257 OA
BRANCH  21  23
HETATM   23  O1  UNL     1       0.454 -20.535   4.057  1.00  0.00    -0.194 OA
BRANCH  23  24
HETATM   24  N1  UNL     1       1.740 -20.115   4.177  1.00  0.00    -0.260 N 
HETATM   25  C2  UNL     1       2.571 -20.052   3.196  1.00  0.00     0.060 C 
HETATM   26  C1  UNL     1       2.208 -20.437   1.814  1.00  0.00     0.072 C 
ATOM     27  H1  UNL     1       2.068 -19.833   5.101  1.00  0.00     0.194 HD
BRANCH  25  28
HETATM   28  C11 UNL     1       3.922 -19.582   3.474  1.00  0.00     0.120 A 
HETATM   29  N6  UNL     1       4.631 -18.667   2.795  1.00  0.00    -0.296 N 
HETATM   30  C12 UNL     1       5.840 -18.504   3.361  1.00  0.00     0.372 A 
ATOM     31  H6  UNL     1       4.302 -18.168   1.969  1.00  0.00     0.171 HD
HETATM   32  O7  UNL     1       6.763 -17.711   2.968  1.00  0.00    -0.238 OA
HETATM   33  O8  UNL     1       5.886 -19.315   4.390  1.00  0.00    -0.235 OA
HETATM   34  C13 UNL     1       4.766 -19.986   4.507  1.00  0.00     0.217 A 
BRANCH  34  35
HETATM   35  O9  UNL     1       4.414 -20.933   5.452  1.00  0.00    -0.339 OA
ATOM     36  H9  UNL     1       4.110 -21.804   5.231  1.00  0.00     0.220 HD
ENDBRANCH  34  35
ENDBRANCH  25  28
ENDBRANCH  23  24
ENDBRANCH  21  23
ENDBRANCH   1  21
TORSDOF 10
ENDMDL
