MODEL 1
REMARK VINA RESULT: -6.206921202      0.000      0.000
REMARK  5 active torsions:
REMARK  status: ('A' for Active; 'I' for Inactive)
REMARK    1  A    between atoms: C2_2  and  N1_3 
REMARK    2  A    between atoms: C2_2  and  C3_6 
REMARK    3  A    between atoms: N1_3  and  O1_4 
REMARK    4  A    between atoms: C3_6  and  N2_7 
REMARK    5  A    between atoms: C3_6  and  C4_11 
ROOT
HETATM    1  C4  UNL     1      84.371 -15.398  64.532  1.00  0.00     0.174 A 
HETATM    2  N3  UNL     1      83.137 -15.862  64.795  1.00  0.00    -0.278 N 
ATOM      3  H3  UNL     1      82.573 -15.598  65.603  1.00  0.00     0.189 HD
HETATM    4  N4  UNL     1      82.758 -16.714  63.851  1.00  0.00    -0.263 N 
ATOM      5  H4  UNL     1      81.871 -17.215  63.798  1.00  0.00     0.190 HD
HETATM    6  C5  UNL     1      83.768 -16.784  62.986  1.00  0.00     0.238 A 
HETATM    7  N5  UNL     1      83.747 -17.530  61.925  1.00  0.00    -0.364 N 
ATOM      8  H51 UNL     1      84.520 -17.583  61.262  1.00  0.00     0.159 HD
ATOM      9  H52 UNL     1      82.995 -18.142  61.608  1.00  0.00     0.159 HD
HETATM   10  O2  UNL     1      84.743 -15.989  63.398  1.00  0.00    -0.262 OA
ENDROOT
BRANCH   1  11
HETATM   11  C3  UNL     1      85.179 -14.433  65.315  1.00  0.00     0.280 C 
BRANCH  11  12
HETATM   12  C2  UNL     1      84.331 -13.361  65.964  1.00  0.00     0.140 C 
HETATM   13  C1  UNL     1      84.924 -13.065  67.311  1.00  0.00     0.033 C 
BRANCH  12  14
HETATM   14  N1  UNL     1      84.223 -12.177  65.145  1.00  0.00    -0.097 NA
BRANCH  14  15
HETATM   15  O1  UNL     1      84.922 -11.198  65.775  1.00  0.00    -0.296 OA
ATOM     16  H1  UNL     1      85.457 -10.774  65.115  1.00  0.00     0.238 HD
ENDBRANCH  14  15
ENDBRANCH  12  14
ENDBRANCH  11  12
BRANCH  11  17
HETATM   17  N2  UNL     1      85.889 -15.090  66.407  1.00  0.00    -0.066 N 
ATOM     18  H23 UNL     1      85.905 -14.546  67.269  1.00  0.00     0.275 HD
ATOM     19  H22 UNL     1      85.399 -15.901  66.784  1.00  0.00     0.275 HD
ATOM     20  H21 UNL     1      86.817 -15.305  66.043  1.00  0.00     0.275 HD
ENDBRANCH  11  17
ENDBRANCH   1  11
TORSDOF 5
ENDMDL
MODEL 2
REMARK VINA RESULT: -6.120720119      1.349      1.492
REMARK  5 active torsions:
REMARK  status: ('A' for Active; 'I' for Inactive)
REMARK    1  A    between atoms: C2_2  and  N1_3 
REMARK    2  A    between atoms: C2_2  and  C3_6 
REMARK    3  A    between atoms: N1_3  and  O1_4 
REMARK    4  A    between atoms: C3_6  and  N2_7 
REMARK    5  A    between atoms: C3_6  and  C4_11 
ROOT
HETATM    1  C4  UNL     1      83.553 -15.127  64.347  1.00  0.00     0.174 A 
HETATM    2  N3  UNL     1      83.090 -16.367  64.582  1.00  0.00    -0.278 N 
ATOM      3  H3  UNL     1      83.488 -17.022  65.256  1.00  0.00     0.189 HD
HETATM    4  N4  UNL     1      82.040 -16.615  63.811  1.00  0.00    -0.263 N 
ATOM      5  H4  UNL     1      81.492 -17.476  63.780  1.00  0.00     0.190 HD
HETATM    6  C5  UNL     1      81.842 -15.517  63.084  1.00  0.00     0.238 A 
HETATM    7  N5  UNL     1      80.890 -15.402  62.212  1.00  0.00    -0.364 N 
ATOM      8  H51 UNL     1      80.739 -14.560  61.655  1.00  0.00     0.159 HD
ATOM      9  H52 UNL     1      80.185 -16.095  61.962  1.00  0.00     0.159 HD
HETATM   10  O2  UNL     1      82.757 -14.618  63.409  1.00  0.00    -0.262 OA
ENDROOT
BRANCH   1  11
HETATM   11  C3  UNL     1      84.703 -14.437  64.980  1.00  0.00     0.280 C 
BRANCH  11  12
HETATM   12  C2  UNL     1      84.271 -13.304  65.885  1.00  0.00     0.140 C 
HETATM   13  C1  UNL     1      85.189 -13.296  67.073  1.00  0.00     0.033 C 
BRANCH  12  14
HETATM   14  N1  UNL     1      84.254 -12.032  65.203  1.00  0.00    -0.097 NA
BRANCH  14  15
HETATM   15  O1  UNL     1      85.036 -11.188  65.923  1.00  0.00    -0.296 OA
ATOM     16  H1  UNL     1      85.812 -11.020  65.402  1.00  0.00     0.238 HD
ENDBRANCH  14  15
ENDBRANCH  12  14
ENDBRANCH  11  12
BRANCH  11  17
HETATM   17  N2  UNL     1      85.474 -15.344  65.823  1.00  0.00    -0.066 N 
ATOM     18  H23 UNL     1      86.055 -14.867  66.512  1.00  0.00     0.275 HD
ATOM     19  H22 UNL     1      84.904 -15.869  66.487  1.00  0.00     0.275 HD
ATOM     20  H21 UNL     1      86.003 -15.934  65.181  1.00  0.00     0.275 HD
ENDBRANCH  11  17
ENDBRANCH   1  11
TORSDOF 5
ENDMDL
MODEL 3
REMARK VINA RESULT: -6.008873195      1.073      1.300
REMARK  5 active torsions:
REMARK  status: ('A' for Active; 'I' for Inactive)
REMARK    1  A    between atoms: C2_2  and  N1_3 
REMARK    2  A    between atoms: C2_2  and  C3_6 
REMARK    3  A    between atoms: N1_3  and  O1_4 
REMARK    4  A    between atoms: C3_6  and  N2_7 
REMARK    5  A    between atoms: C3_6  and  C4_11 
ROOT
HETATM    1  C4  UNL     1      84.510 -15.542  64.456  1.00  0.00     0.174 A 
HETATM    2  N3  UNL     1      84.858 -16.157  63.312  1.00  0.00    -0.278 N 
ATOM      3  H3  UNL     1      85.728 -15.996  62.803  1.00  0.00     0.189 HD
HETATM    4  N4  UNL     1      83.907 -17.004  62.942  1.00  0.00    -0.263 N 
ATOM      5  H4  UNL     1      83.907 -17.602  62.116  1.00  0.00     0.190 HD
HETATM    6  C5  UNL     1      82.951 -16.919  63.866  1.00  0.00     0.238 A 
HETATM    7  N5  UNL     1      81.858 -17.614  63.826  1.00  0.00    -0.364 N 
ATOM      8  H51 UNL     1      81.126 -17.548  64.534  1.00  0.00     0.159 HD
ATOM      9  H52 UNL     1      81.577 -18.296  63.121  1.00  0.00     0.159 HD
HETATM   10  O2  UNL     1      83.316 -16.034  64.780  1.00  0.00    -0.262 OA
ENDROOT
BRANCH   1  11
HETATM   11  C3  UNL     1      85.269 -14.525  65.223  1.00  0.00     0.280 C 
BRANCH  11  12
HETATM   12  C2  UNL     1      84.367 -13.486  65.856  1.00  0.00     0.140 C 
HETATM   13  C1  UNL     1      84.929 -13.162  67.209  1.00  0.00     0.033 C 
BRANCH  12  14
HETATM   14  N1  UNL     1      84.222 -12.311  65.031  1.00  0.00    -0.097 NA
BRANCH  14  15
HETATM   15  O1  UNL     1      84.812 -11.286  65.699  1.00  0.00    -0.296 OA
ATOM     16  H1  UNL     1      84.223 -11.042  66.404  1.00  0.00     0.238 HD
ENDBRANCH  14  15
ENDBRANCH  12  14
ENDBRANCH  11  12
BRANCH  11  17
HETATM   17  N2  UNL     1      86.010 -15.128  66.325  1.00  0.00    -0.066 N 
ATOM     18  H23 UNL     1      85.616 -14.923  67.243  1.00  0.00     0.275 HD
ATOM     19  H22 UNL     1      85.915 -16.142  66.375  1.00  0.00     0.275 HD
ATOM     20  H21 UNL     1      86.974 -14.812  66.214  1.00  0.00     0.275 HD
ENDBRANCH  11  17
ENDBRANCH   1  11
TORSDOF 5
ENDMDL
MODEL 4
REMARK VINA RESULT: -6.007316486      1.606      4.673
REMARK  5 active torsions:
REMARK  status: ('A' for Active; 'I' for Inactive)
REMARK    1  A    between atoms: C2_2  and  N1_3 
REMARK    2  A    between atoms: C2_2  and  C3_6 
REMARK    3  A    between atoms: N1_3  and  O1_4 
REMARK    4  A    between atoms: C3_6  and  N2_7 
REMARK    5  A    between atoms: C3_6  and  C4_11 
ROOT
HETATM    1  C4  UNL     1      84.237 -14.283  65.089  1.00  0.00     0.174 A 
HETATM    2  N3  UNL     1      84.882 -14.643  66.213  1.00  0.00    -0.278 N 
ATOM      3  H3  UNL     1      85.030 -15.605  66.519  1.00  0.00     0.189 HD
HETATM    4  N4  UNL     1      85.295 -13.565  66.867  1.00  0.00    -0.263 N 
ATOM      5  H4  UNL     1      85.809 -13.543  67.748  1.00  0.00     0.190 HD
HETATM    6  C5  UNL     1      84.906 -12.517  66.143  1.00  0.00     0.238 A 
HETATM    7  N5  UNL     1      85.142 -11.289  66.483  1.00  0.00    -0.364 N 
ATOM      8  H51 UNL     1      84.844 -10.486  65.928  1.00  0.00     0.159 HD
ATOM      9  H52 UNL     1      85.635 -10.954  67.311  1.00  0.00     0.159 HD
HETATM   10  O2  UNL     1      84.266 -12.952  65.069  1.00  0.00    -0.262 OA
ENDROOT
BRANCH   1  11
HETATM   11  C3  UNL     1      83.614 -15.155  64.064  1.00  0.00     0.280 C 
BRANCH  11  12
HETATM   12  C2  UNL     1      84.540 -16.260  63.605  1.00  0.00     0.140 C 
HETATM   13  C1  UNL     1      83.936 -16.876  62.376  1.00  0.00     0.033 C 
BRANCH  12  14
HETATM   14  N1  UNL     1      85.884 -15.788  63.372  1.00  0.00    -0.097 NA
BRANCH  14  15
HETATM   15  O1  UNL     1      86.672 -16.364  64.315  1.00  0.00    -0.296 OA
ATOM     16  H1  UNL     1      87.559 -16.358  63.975  1.00  0.00     0.238 HD
ENDBRANCH  14  15
ENDBRANCH  12  14
ENDBRANCH  11  12
BRANCH  11  17
HETATM   17  N2  UNL     1      82.426 -15.825  64.582  1.00  0.00    -0.066 N 
ATOM     18  H23 UNL     1      82.629 -16.699  65.067  1.00  0.00     0.275 HD
ATOM     19  H22 UNL     1      81.997 -15.343  65.372  1.00  0.00     0.275 HD
ATOM     20  H21 UNL     1      81.802 -15.936  63.783  1.00  0.00     0.275 HD
ENDBRANCH  11  17
ENDBRANCH   1  11
TORSDOF 5
ENDMDL
MODEL 5
REMARK VINA RESULT: -5.903317060      1.486      1.524
REMARK  5 active torsions:
REMARK  status: ('A' for Active; 'I' for Inactive)
REMARK    1  A    between atoms: C2_2  and  N1_3 
REMARK    2  A    between atoms: C2_2  and  C3_6 
REMARK    3  A    between atoms: N1_3  and  O1_4 
REMARK    4  A    between atoms: C3_6  and  N2_7 
REMARK    5  A    between atoms: C3_6  and  C4_11 
ROOT
HETATM    1  C4  UNL     1      83.438 -15.530  63.983  1.00  0.00     0.174 A 
HETATM    2  N3  UNL     1      82.201 -15.204  63.567  1.00  0.00    -0.278 N 
ATOM      3  H3  UNL     1      81.881 -14.254  63.376  1.00  0.00     0.189 HD
HETATM    4  N4  UNL     1      81.459 -16.296  63.441  1.00  0.00    -0.263 N 
ATOM      5  H4  UNL     1      80.485 -16.343  63.143  1.00  0.00     0.190 HD
HETATM    6  C5  UNL     1      82.240 -17.319  63.782  1.00  0.00     0.238 A 
HETATM    7  N5  UNL     1      81.842 -18.553  63.777  1.00  0.00    -0.364 N 
ATOM      8  H51 UNL     1      82.440 -19.337  64.038  1.00  0.00     0.159 HD
ATOM      9  H52 UNL     1      80.920 -18.910  63.524  1.00  0.00     0.159 HD
HETATM   10  O2  UNL     1      83.436 -16.856  64.110  1.00  0.00    -0.262 OA
ENDROOT
BRANCH   1  11
HETATM   11  C3  UNL     1      84.586 -14.632  64.254  1.00  0.00     0.280 C 
BRANCH  11  12
HETATM   12  C2  UNL     1      84.341 -13.720  65.437  1.00  0.00     0.140 C 
HETATM   13  C1  UNL     1      85.560 -13.773  66.311  1.00  0.00     0.033 C 
BRANCH  12  14
HETATM   14  N1  UNL     1      84.018 -12.373  65.034  1.00  0.00    -0.097 NA
BRANCH  14  15
HETATM   15  O1  UNL     1      84.796 -11.543  65.775  1.00  0.00    -0.296 OA
ATOM     16  H1  UNL     1      84.315 -11.352  66.571  1.00  0.00     0.238 HD
ENDBRANCH  14  15
ENDBRANCH  12  14
ENDBRANCH  11  12
BRANCH  11  17
HETATM   17  N2  UNL     1      85.791 -15.387  64.580  1.00  0.00    -0.066 N 
ATOM     18  H23 UNL     1      86.114 -15.248  65.537  1.00  0.00     0.275 HD
ATOM     19  H22 UNL     1      85.638 -16.393  64.648  1.00  0.00     0.275 HD
ATOM     20  H21 UNL     1      86.480 -15.124  63.875  1.00  0.00     0.275 HD
ENDBRANCH  11  17
ENDBRANCH   1  11
TORSDOF 5
ENDMDL
