MODEL 1
REMARK VINA RESULT: -5.788475045      0.000      0.000
REMARK  4 active torsions:
REMARK  status: ('A' for Active; 'I' for Inactive)
REMARK    1  A    between atoms: N1_1  and  C1_4 
REMARK    2  A    between atoms: C2_9  and  S1_10 
REMARK    3  A    between atoms: S1_10  and  N4_12 
REMARK    4  A    between atoms: N4_12  and  N5_14 
ROOT
HETATM    1  C1  UNL     1      84.115 -16.595  63.482  1.00  0.00     0.692 A 
HETATM    2  N2  UNL     1      82.998 -16.505  64.219  1.00  0.00    -0.130 N 
ATOM      3  H2  UNL     1      82.219 -17.164  64.197  1.00  0.00     0.205 HD
HETATM    4  N3  UNL     1      83.068 -15.413  64.988  1.00  0.00    -0.262 N 
ATOM      5  H3  UNL     1      82.357 -15.098  65.648  1.00  0.00     0.189 HD
HETATM    6  C2  UNL     1      84.234 -14.803  64.741  1.00  0.00     0.227 A 
HETATM    7  N6  UNL     1      84.874 -15.535  63.813  1.00  0.00    -0.164 N 
ATOM      8  H6  UNL     1      85.791 -15.320  63.422  1.00  0.00     0.186 HD
ENDROOT
BRANCH   6   9
HETATM    9  S1  UNL     1      84.736 -13.335  65.529  1.00  0.00     0.201 S 
HETATM   10  O1  UNL     1      83.847 -12.009  65.047  1.00  0.00    -0.226 OA
BRANCH   9  11
HETATM   11  N4  UNL     1      84.838 -13.502  67.229  1.00  0.00    -0.249 N 
ATOM     12  H4  UNL     1      84.179 -13.123  67.909  1.00  0.00     0.197 HD
BRANCH  11  13
HETATM   13  N5  UNL     1      85.997 -14.257  67.525  1.00  0.00    -0.337 N 
ATOM     14  H52 UNL     1      86.309 -15.083  67.014  1.00  0.00     0.177 HD
ATOM     15  H51 UNL     1      86.455 -13.828  68.330  1.00  0.00     0.177 HD
ENDBRANCH  11  13
ENDBRANCH   9  11
ENDBRANCH   6   9
BRANCH   1  16
HETATM   16  N1  UNL     1      84.383 -17.518  62.634  1.00  0.00    -0.233 N 
ATOM     17  H12 UNL     1      83.790 -18.298  62.351  1.00  0.00     0.174 HD
ATOM     18  H11 UNL     1      85.252 -17.611  62.106  1.00  0.00     0.174 HD
ENDBRANCH   1  16
TORSDOF 4
ENDMDL
MODEL 2
REMARK VINA RESULT: -5.660455092      0.696      1.393
REMARK  4 active torsions:
REMARK  status: ('A' for Active; 'I' for Inactive)
REMARK    1  A    between atoms: N1_1  and  C1_4 
REMARK    2  A    between atoms: C2_9  and  S1_10 
REMARK    3  A    between atoms: S1_10  and  N4_12 
REMARK    4  A    between atoms: N4_12  and  N5_14 
ROOT
HETATM    1  C1  UNL     1      83.087 -16.534  64.083  1.00  0.00     0.692 A 
HETATM    2  N2  UNL     1      84.332 -16.597  63.586  1.00  0.00    -0.130 N 
ATOM      3  H2  UNL     1      84.691 -17.336  62.981  1.00  0.00     0.205 HD
HETATM    4  N3  UNL     1      85.027 -15.536  64.010  1.00  0.00    -0.262 N 
ATOM      5  H3  UNL     1      86.000 -15.329  63.786  1.00  0.00     0.189 HD
HETATM    6  C2  UNL     1      84.225 -14.792  64.781  1.00  0.00     0.227 A 
HETATM    7  N6  UNL     1      83.032 -15.411  64.822  1.00  0.00    -0.164 N 
ATOM      8  H6  UNL     1      82.213 -15.081  65.334  1.00  0.00     0.186 HD
ENDROOT
BRANCH   6   9
HETATM    9  S1  UNL     1      84.727 -13.312  65.544  1.00  0.00     0.201 S 
HETATM   10  O1  UNL     1      83.840 -11.994  65.038  1.00  0.00    -0.226 OA
BRANCH   9  11
HETATM   11  N4  UNL     1      84.826 -13.449  67.246  1.00  0.00    -0.249 N 
ATOM     12  H4  UNL     1      84.177 -13.042  67.920  1.00  0.00     0.197 HD
BRANCH  11  13
HETATM   13  N5  UNL     1      85.968 -14.226  67.556  1.00  0.00    -0.337 N 
ATOM     14  H52 UNL     1      86.431 -14.873  66.917  1.00  0.00     0.177 HD
ATOM     15  H51 UNL     1      86.235 -14.023  68.519  1.00  0.00     0.177 HD
ENDBRANCH  11  13
ENDBRANCH   9  11
ENDBRANCH   6   9
BRANCH   1  16
HETATM   16  N1  UNL     1      82.153 -17.387  63.880  1.00  0.00    -0.233 N 
ATOM     17  H12 UNL     1      82.073 -18.056  63.114  1.00  0.00     0.174 HD
ATOM     18  H11 UNL     1      81.331 -17.525  64.469  1.00  0.00     0.174 HD
ENDBRANCH   1  16
TORSDOF 4
ENDMDL
MODEL 3
REMARK VINA RESULT: -5.424650645      2.389      4.491
REMARK  4 active torsions:
REMARK  status: ('A' for Active; 'I' for Inactive)
REMARK    1  A    between atoms: N1_1  and  C1_4 
REMARK    2  A    between atoms: C2_9  and  S1_10 
REMARK    3  A    between atoms: S1_10  and  N4_12 
REMARK    4  A    between atoms: N4_12  and  N5_14 
ROOT
HETATM    1  C1  UNL     1      85.056 -12.747  66.170  1.00  0.00     0.692 A 
HETATM    2  N2  UNL     1      85.415 -13.867  66.815  1.00  0.00    -0.130 N 
ATOM      3  H2  UNL     1      85.896 -13.904  67.714  1.00  0.00     0.205 HD
HETATM    4  N3  UNL     1      85.043 -14.928  66.090  1.00  0.00    -0.262 N 
ATOM      5  H3  UNL     1      85.190 -15.905  66.340  1.00  0.00     0.189 HD
HETATM    6  C2  UNL     1      84.444 -14.485  64.978  1.00  0.00     0.227 A 
HETATM    7  N6  UNL     1      84.455 -13.142  65.033  1.00  0.00    -0.164 N 
ATOM      8  H6  UNL     1      84.068 -12.519  64.323  1.00  0.00     0.186 HD
ENDROOT
BRANCH   6   9
HETATM    9  S1  UNL     1      83.803 -15.534  63.748  1.00  0.00     0.201 S 
HETATM   10  O1  UNL     1      84.975 -16.483  63.037  1.00  0.00    -0.226 OA
BRANCH   9  11
HETATM   11  N4  UNL     1      82.444 -16.424  64.284  1.00  0.00    -0.249 N 
ATOM     12  H4  UNL     1      81.653 -16.052  64.810  1.00  0.00     0.197 HD
BRANCH  11  13
HETATM   13  N5  UNL     1      82.610 -17.768  63.871  1.00  0.00    -0.337 N 
ATOM     14  H52 UNL     1      83.072 -18.066  63.011  1.00  0.00     0.177 HD
ATOM     15  H51 UNL     1      82.191 -18.369  64.579  1.00  0.00     0.177 HD
ENDBRANCH  11  13
ENDBRANCH   9  11
ENDBRANCH   6   9
BRANCH   1  16
HETATM   16  N1  UNL     1      85.257 -11.549  66.577  1.00  0.00    -0.233 N 
ATOM     17  H12 UNL     1      86.120 -11.152  66.951  1.00  0.00     0.174 HD
ATOM     18  H11 UNL     1      84.567 -10.797  66.588  1.00  0.00     0.174 HD
ENDBRANCH   1  16
TORSDOF 4
ENDMDL
MODEL 4
REMARK VINA RESULT: -5.415262779      2.152      4.484
REMARK  4 active torsions:
REMARK  status: ('A' for Active; 'I' for Inactive)
REMARK    1  A    between atoms: N1_1  and  C1_4 
REMARK    2  A    between atoms: C2_9  and  S1_10 
REMARK    3  A    between atoms: S1_10  and  N4_12 
REMARK    4  A    between atoms: N4_12  and  N5_14 
ROOT
HETATM    1  C1  UNL     1      85.058 -12.943  66.211  1.00  0.00     0.692 A 
HETATM    2  N2  UNL     1      85.589 -14.035  66.781  1.00  0.00    -0.130 N 
ATOM      3  H2  UNL     1      86.226 -14.037  67.577  1.00  0.00     0.205 HD
HETATM    4  N3  UNL     1      85.150 -15.122  66.136  1.00  0.00    -0.262 N 
ATOM      5  H3  UNL     1      85.393 -16.087  66.356  1.00  0.00     0.189 HD
HETATM    6  C2  UNL     1      84.336 -14.723  65.152  1.00  0.00     0.227 A 
HETATM    7  N6  UNL     1      84.283 -13.381  65.203  1.00  0.00    -0.164 N 
ATOM      8  H6  UNL     1      83.740 -12.788  64.575  1.00  0.00     0.186 HD
ENDROOT
BRANCH   6   9
HETATM    9  S1  UNL     1      83.539 -15.819  64.060  1.00  0.00     0.201 S 
HETATM   10  O1  UNL     1      82.162 -15.166  63.384  1.00  0.00    -0.226 OA
BRANCH   9  11
HETATM   11  N4  UNL     1      84.608 -16.491  62.905  1.00  0.00    -0.249 N 
ATOM     12  H4  UNL     1      85.624 -16.402  62.905  1.00  0.00     0.197 HD
BRANCH  11  13
HETATM   13  N5  UNL     1      83.834 -17.193  61.950  1.00  0.00    -0.337 N 
ATOM     14  H52 UNL     1      83.325 -16.765  61.176  1.00  0.00     0.177 HD
ATOM     15  H51 UNL     1      83.881 -18.187  62.176  1.00  0.00     0.177 HD
ENDBRANCH  11  13
ENDBRANCH   9  11
ENDBRANCH   6   9
BRANCH   1  16
HETATM   16  N1  UNL     1      85.264 -11.731  66.573  1.00  0.00    -0.233 N 
ATOM     17  H12 UNL     1      84.975 -11.281  67.442  1.00  0.00     0.174 HD
ATOM     18  H11 UNL     1      85.758 -11.021  66.032  1.00  0.00     0.174 HD
ENDBRANCH   1  16
TORSDOF 4
ENDMDL
MODEL 5
REMARK VINA RESULT: -5.399294529      1.500      1.784
REMARK  4 active torsions:
REMARK  status: ('A' for Active; 'I' for Inactive)
REMARK    1  A    between atoms: N1_1  and  C1_4 
REMARK    2  A    between atoms: C2_9  and  S1_10 
REMARK    3  A    between atoms: S1_10  and  N4_12 
REMARK    4  A    between atoms: N4_12  and  N5_14 
ROOT
HETATM    1  C1  UNL     1      81.854 -15.748  63.091  1.00  0.00     0.692 A 
HETATM    2  N2  UNL     1      82.143 -16.571  64.110  1.00  0.00    -0.130 N 
ATOM      3  H2  UNL     1      81.710 -17.479  64.279  1.00  0.00     0.205 HD
HETATM    4  N3  UNL     1      83.091 -16.010  64.869  1.00  0.00    -0.262 N 
ATOM      5  H3  UNL     1      83.501 -16.415  65.710  1.00  0.00     0.189 HD
HETATM    6  C2  UNL     1      83.408 -14.825  64.334  1.00  0.00     0.227 A 
HETATM    7  N6  UNL     1      82.643 -14.669  63.240  1.00  0.00    -0.164 N 
ATOM      8  H6  UNL     1      82.659 -13.859  62.619  1.00  0.00     0.186 HD
ENDROOT
BRANCH   6   9
HETATM    9  S1  UNL     1      84.605 -13.756  65.006  1.00  0.00     0.201 S 
HETATM   10  O1  UNL     1      84.061 -12.185  65.140  1.00  0.00    -0.226 OA
BRANCH   9  11
HETATM   11  N4  UNL     1      85.291 -14.361  66.452  1.00  0.00    -0.249 N 
ATOM     12  H4  UNL     1      85.772 -15.255  66.559  1.00  0.00     0.197 HD
BRANCH  11  13
HETATM   13  N5  UNL     1      85.075 -13.405  67.472  1.00  0.00    -0.337 N 
ATOM     14  H52 UNL     1      85.169 -13.580  68.473  1.00  0.00     0.177 HD
ATOM     15  H51 UNL     1      84.814 -12.524  67.028  1.00  0.00     0.177 HD
ENDBRANCH  11  13
ENDBRANCH   9  11
ENDBRANCH   6   9
BRANCH   1  16
HETATM   16  N1  UNL     1      80.990 -15.967  62.170  1.00  0.00    -0.233 N 
ATOM     17  H12 UNL     1      81.111 -16.516  61.318  1.00  0.00     0.174 HD
ATOM     18  H11 UNL     1      80.032 -15.617  62.153  1.00  0.00     0.174 HD
ENDBRANCH   1  16
TORSDOF 4
ENDMDL
