MODEL 1
REMARK VINA RESULT: -5.791459723      0.000      0.000
REMARK  4 active torsions:
REMARK  status: ('A' for Active; 'I' for Inactive)
REMARK    1  A    between atoms: C4_6  and  N2_7 
REMARK    2  A    between atoms: N2_7  and  N3_9 
REMARK    3  A    between atoms: N3_9  and  N4_10 
REMARK    4  A    between atoms: N5_14  and  O1_15 
ROOT
HETATM    1  C1  UNL     1      84.147 -16.618  62.596  1.00  0.00     0.091 C 
HETATM    2  C2  UNL     1      84.488 -15.801  63.813  1.00  0.00     0.105 A 
HETATM    3  N1  UNL     1      85.761 -15.770  64.243  1.00  0.00    -0.352 N 
ATOM      4  H1  UNL     1      86.486 -16.291  63.751  1.00  0.00     0.166 HD
HETATM    5  C3  UNL     1      86.063 -15.044  65.327  1.00  0.00     0.121 A 
HETATM    6  C4  UNL     1      85.115 -14.314  66.035  1.00  0.00     0.079 A 
HETATM    7  C5  UNL     1      83.820 -14.371  65.562  1.00  0.00     0.156 A 
HETATM    8  N5  UNL     1      83.541 -15.111  64.467  1.00  0.00    -0.222 N 
ENDROOT
BRANCH   6   9
HETATM    9  N2  UNL     1      85.459 -13.551  67.181  1.00  0.00    -0.282 N 
ATOM     10  H2  UNL     1      86.141 -13.900  67.854  1.00  0.00     0.184 HD
BRANCH   9  11
HETATM   11  N3  UNL     1      84.847 -12.320  67.366  1.00  0.00    -0.029 NA
BRANCH  11  12
HETATM   12  N4  UNL     1      85.173 -11.385  66.386  1.00  0.00    -0.329 N 
ATOM     13  H42 UNL     1      85.183 -10.381  66.571  1.00  0.00     0.174 HD
ATOM     14  H41 UNL     1      85.396 -11.802  65.483  1.00  0.00     0.174 HD
ENDBRANCH  11  12
ENDBRANCH   9  11
ENDBRANCH   6   9
BRANCH   8  15
HETATM   15  O1  UNL     1      82.261 -15.177  63.988  1.00  0.00    -0.282 OA
ATOM     16  H1  UNL     1      81.661 -15.780  64.411  1.00  0.00     0.245 HD
ENDBRANCH   8  15
TORSDOF 4
ENDMDL
MODEL 2
REMARK VINA RESULT: -5.601311901      1.512      2.063
REMARK  4 active torsions:
REMARK  status: ('A' for Active; 'I' for Inactive)
REMARK    1  A    between atoms: C4_6  and  N2_7 
REMARK    2  A    between atoms: N2_7  and  N3_9 
REMARK    3  A    between atoms: N3_9  and  N4_10 
REMARK    4  A    between atoms: N5_14  and  O1_15 
ROOT
HETATM    1  C1  UNL     1      84.547 -16.538  62.888  1.00  0.00     0.091 C 
HETATM    2  C2  UNL     1      84.752 -15.682  64.109  1.00  0.00     0.105 A 
HETATM    3  N1  UNL     1      83.713 -14.984  64.600  1.00  0.00    -0.352 N 
ATOM      4  H1  UNL     1      82.798 -15.034  64.152  1.00  0.00     0.166 HD
HETATM    5  C3  UNL     1      83.897 -14.222  65.685  1.00  0.00     0.121 A 
HETATM    6  C4  UNL     1      85.122 -14.117  66.335  1.00  0.00     0.079 A 
HETATM    7  C5  UNL     1      86.163 -14.848  65.801  1.00  0.00     0.156 A 
HETATM    8  N5  UNL     1      85.952 -15.609  64.705  1.00  0.00    -0.222 N 
ENDROOT
BRANCH   6   9
HETATM    9  N2  UNL     1      85.293 -13.302  67.484  1.00  0.00    -0.282 N 
ATOM     10  H2  UNL     1      85.705 -13.683  68.336  1.00  0.00     0.184 HD
BRANCH   9  11
HETATM   11  N3  UNL     1      84.887 -11.977  67.425  1.00  0.00    -0.029 NA
BRANCH  11  12
HETATM   12  N4  UNL     1      85.212 -11.350  66.224  1.00  0.00    -0.329 N 
ATOM     13  H42 UNL     1      85.981 -11.666  65.634  1.00  0.00     0.174 HD
ATOM     14  H41 UNL     1      84.610 -10.557  66.004  1.00  0.00     0.174 HD
ENDBRANCH  11  12
ENDBRANCH   9  11
ENDBRANCH   6   9
BRANCH   8  15
HETATM   15  O1  UNL     1      86.975 -16.339  64.166  1.00  0.00    -0.282 OA
ATOM     16  H1  UNL     1      86.753 -17.009  63.530  1.00  0.00     0.245 HD
ENDBRANCH   8  15
TORSDOF 4
ENDMDL
MODEL 3
REMARK VINA RESULT: -5.585588765      1.294      1.639
REMARK  4 active torsions:
REMARK  status: ('A' for Active; 'I' for Inactive)
REMARK    1  A    between atoms: C4_6  and  N2_7 
REMARK    2  A    between atoms: N2_7  and  N3_9 
REMARK    3  A    between atoms: N3_9  and  N4_10 
REMARK    4  A    between atoms: N5_14  and  O1_15 
ROOT
HETATM    1  C1  UNL     1      82.629 -16.714  61.495  1.00  0.00     0.091 C 
HETATM    2  C2  UNL     1      83.395 -16.201  62.686  1.00  0.00     0.105 A 
HETATM    3  N1  UNL     1      84.692 -16.531  62.820  1.00  0.00    -0.352 N 
ATOM      4  H1  UNL     1      85.150 -17.120  62.125  1.00  0.00     0.166 HD
HETATM    5  C3  UNL     1      85.371 -16.075  63.879  1.00  0.00     0.121 A 
HETATM    6  C4  UNL     1      84.796 -15.270  64.856  1.00  0.00     0.079 A 
HETATM    7  C5  UNL     1      83.464 -14.952  64.682  1.00  0.00     0.156 A 
HETATM    8  N5  UNL     1      82.801 -15.425  63.605  1.00  0.00    -0.222 N 
ENDROOT
BRANCH   6   9
HETATM    9  N2  UNL     1      85.537 -14.798  65.970  1.00  0.00    -0.282 N 
ATOM     10  H2  UNL     1      86.030 -15.448  66.582  1.00  0.00     0.184 HD
BRANCH   9  11
HETATM   11  N3  UNL     1      85.577 -13.432  66.210  1.00  0.00    -0.029 NA
BRANCH  11  12
HETATM   12  N4  UNL     1      84.983 -13.062  67.414  1.00  0.00    -0.329 N 
ATOM     13  H42 UNL     1      84.151 -12.471  67.454  1.00  0.00     0.174 HD
ATOM     14  H41 UNL     1      85.458 -13.437  68.235  1.00  0.00     0.174 HD
ENDBRANCH  11  12
ENDBRANCH   9  11
ENDBRANCH   6   9
BRANCH   8  15
HETATM   15  O1  UNL     1      81.480 -15.119  63.421  1.00  0.00    -0.282 OA
ATOM     16  H1  UNL     1      81.206 -14.225  63.590  1.00  0.00     0.245 HD
ENDBRANCH   8  15
TORSDOF 4
ENDMDL
MODEL 4
REMARK VINA RESULT: -5.531347974      1.211      1.245
REMARK  4 active torsions:
REMARK  status: ('A' for Active; 'I' for Inactive)
REMARK    1  A    between atoms: C4_6  and  N2_7 
REMARK    2  A    between atoms: N2_7  and  N3_9 
REMARK    3  A    between atoms: N3_9  and  N4_10 
REMARK    4  A    between atoms: N5_14  and  O1_15 
ROOT
HETATM    1  C1  UNL     1      83.518 -17.524  62.166  1.00  0.00     0.091 C 
HETATM    2  C2  UNL     1      83.963 -16.620  63.284  1.00  0.00     0.105 A 
HETATM    3  N1  UNL     1      85.227 -16.164  63.292  1.00  0.00    -0.352 N 
ATOM      4  H1  UNL     1      85.876 -16.425  62.549  1.00  0.00     0.166 HD
HETATM    5  C3  UNL     1      85.622 -15.361  64.287  1.00  0.00     0.121 A 
HETATM    6  C4  UNL     1      84.781 -14.973  65.323  1.00  0.00     0.079 A 
HETATM    7  C5  UNL     1      83.490 -15.461  65.280  1.00  0.00     0.156 A 
HETATM    8  N5  UNL     1      83.116 -16.270  64.265  1.00  0.00    -0.222 N 
ENDROOT
BRANCH   6   9
HETATM    9  N2  UNL     1      85.222 -14.120  66.368  1.00  0.00    -0.282 N 
ATOM     10  H2  UNL     1      85.265 -14.454  67.331  1.00  0.00     0.184 HD
BRANCH   9  11
HETATM   11  N3  UNL     1      85.592 -12.820  66.052  1.00  0.00    -0.029 NA
BRANCH  11  12
HETATM   12  N4  UNL     1      84.530 -12.029  65.622  1.00  0.00    -0.329 N 
ATOM     13  H42 UNL     1      84.610 -11.393  64.828  1.00  0.00     0.174 HD
ATOM     14  H41 UNL     1      83.682 -12.151  66.173  1.00  0.00     0.174 HD
ENDBRANCH  11  12
ENDBRANCH   9  11
ENDBRANCH   6   9
BRANCH   8  15
HETATM   15  O1  UNL     1      81.841 -16.761  64.210  1.00  0.00    -0.282 OA
ATOM     16  H1  UNL     1      81.313 -16.708  64.998  1.00  0.00     0.245 HD
ENDBRANCH   8  15
TORSDOF 4
ENDMDL
MODEL 5
REMARK VINA RESULT: -5.500034328      1.928      2.613
REMARK  4 active torsions:
REMARK  status: ('A' for Active; 'I' for Inactive)
REMARK    1  A    between atoms: C4_6  and  N2_7 
REMARK    2  A    between atoms: N2_7  and  N3_9 
REMARK    3  A    between atoms: N3_9  and  N4_10 
REMARK    4  A    between atoms: N5_14  and  O1_15 
ROOT
HETATM    1  C1  UNL     1      82.291 -18.023  63.218  1.00  0.00     0.091 C 
HETATM    2  C2  UNL     1      83.154 -16.916  63.760  1.00  0.00     0.105 A 
HETATM    3  N1  UNL     1      82.608 -16.006  64.586  1.00  0.00    -0.352 N 
ATOM      4  H1  UNL     1      81.623 -16.066  64.843  1.00  0.00     0.166 HD
HETATM    5  C3  UNL     1      83.377 -15.021  65.067  1.00  0.00     0.121 A 
HETATM    6  C4  UNL     1      84.725 -14.893  64.750  1.00  0.00     0.079 A 
HETATM    7  C5  UNL     1      85.249 -15.846  63.901  1.00  0.00     0.156 A 
HETATM    8  N5  UNL     1      84.452 -16.830  63.429  1.00  0.00    -0.222 N 
ENDROOT
BRANCH   6   9
HETATM    9  N2  UNL     1      85.520 -13.840  65.273  1.00  0.00    -0.282 N 
ATOM     10  H2  UNL     1      85.477 -12.904  64.869  1.00  0.00     0.184 HD
BRANCH   9  11
HETATM   11  N3  UNL     1      86.359 -14.111  66.344  1.00  0.00    -0.029 NA
BRANCH  11  12
HETATM   12  N4  UNL     1      85.728 -14.011  67.582  1.00  0.00    -0.329 N 
ATOM     13  H42 UNL     1      86.137 -14.393  68.436  1.00  0.00     0.174 HD
ATOM     14  H41 UNL     1      84.832 -13.526  67.545  1.00  0.00     0.174 HD
ENDBRANCH  11  12
ENDBRANCH   9  11
ENDBRANCH   6   9
BRANCH   8  15
HETATM   15  O1  UNL     1      84.958 -17.780  62.586  1.00  0.00    -0.282 OA
ATOM     16  H1  UNL     1      85.890 -17.759  62.404  1.00  0.00     0.245 HD
ENDBRANCH   8  15
TORSDOF 4
ENDMDL
