MODEL 1
REMARK VINA RESULT: -5.747768976      0.000      0.000
REMARK  5 active torsions:
REMARK  status: ('A' for Active; 'I' for Inactive)
REMARK    1  A    between atoms: C3_3  and  N1_4 
REMARK    2  A    between atoms: C3_3  and  N2_8 
REMARK    3  A    between atoms: N2_8  and  C4_11 
REMARK    4  A    between atoms: C4_11  and  N3_12 
REMARK    5  A    between atoms: C6_16  and  N5_17 
ROOT
HETATM    1  C1  UNL     1      81.464 -18.940  63.787  1.00  0.00     0.016 C 
HETATM    2  C2  UNL     1      82.187 -18.068  63.371  1.00  0.00    -0.056 C 
HETATM    3  C3  UNL     1      83.049 -17.000  62.861  1.00  0.00     0.460 C 
ENDROOT
BRANCH   3   4
HETATM    4  N1  UNL     1      84.265 -17.637  62.358  1.00  0.00    -0.039 N 
ATOM      5  H13 UNL     1      84.093 -18.267  61.575  1.00  0.00     0.277 HD
ATOM      6  H12 UNL     1      84.885 -16.989  61.870  1.00  0.00     0.277 HD
ATOM      7  H11 UNL     1      84.712 -18.097  63.152  1.00  0.00     0.277 HD
ENDBRANCH   3   4
BRANCH   3   8
HETATM    8  N2  UNL     1      83.420 -16.053  63.877  1.00  0.00    -0.018 N 
ATOM      9  H22 UNL     1      82.843 -15.214  63.816  1.00  0.00     0.282 HD
ATOM     10  H21 UNL     1      83.140 -16.385  64.799  1.00  0.00     0.282 HD
BRANCH   8  11
HETATM   11  C4  UNL     1      84.814 -15.712  63.860  1.00  0.00     0.385 C 
BRANCH  11  12
HETATM   12  N3  UNL     1      85.195 -14.959  65.046  1.00  0.00    -0.247 N 
HETATM   13  C5  UNL     1      86.200 -15.201  65.866  1.00  0.00     0.220 A 
HETATM   14  N4  UNL     1      86.192 -14.259  66.841  1.00  0.00    -0.185 N 
HETATM   15  C6  UNL     1      85.165 -13.436  66.606  1.00  0.00     0.691 A 
ATOM     16  H4  UNL     1      86.852 -14.191  67.617  1.00  0.00     0.185 HD
HETATM   17  N6  UNL     1      84.562 -13.885  65.494  1.00  0.00    -0.128 N 
ATOM     18  H6  UNL     1      83.741 -13.463  65.060  1.00  0.00     0.206 HD
BRANCH  15  19
HETATM   19  N5  UNL     1      84.804 -12.393  67.313  1.00  0.00    -0.233 N 
ATOM     20  H52 UNL     1      85.272 -11.487  67.331  1.00  0.00     0.174 HD
ATOM     21  H51 UNL     1      84.008 -12.322  67.947  1.00  0.00     0.174 HD
ENDBRANCH  15  19
ENDBRANCH  11  12
ENDBRANCH   8  11
ENDBRANCH   3   8
TORSDOF 5
ENDMDL
MODEL 2
REMARK VINA RESULT: -5.631748548      1.308      5.139
REMARK  5 active torsions:
REMARK  status: ('A' for Active; 'I' for Inactive)
REMARK    1  A    between atoms: C3_3  and  N1_4 
REMARK    2  A    between atoms: C3_3  and  N2_8 
REMARK    3  A    between atoms: N2_8  and  C4_11 
REMARK    4  A    between atoms: C4_11  and  N3_12 
REMARK    5  A    between atoms: C6_16  and  N5_17 
ROOT
HETATM    1  C1  UNL     1      87.370 -15.824  65.330  1.00  0.00     0.016 C 
HETATM    2  C2  UNL     1      86.549 -15.022  65.705  1.00  0.00    -0.056 C 
HETATM    3  C3  UNL     1      85.555 -14.040  66.143  1.00  0.00     0.460 C 
ENDROOT
BRANCH   3   4
HETATM    4  N1  UNL     1      85.663 -13.944  67.598  1.00  0.00    -0.039 N 
ATOM      5  H13 UNL     1      85.758 -14.852  68.053  1.00  0.00     0.277 HD
ATOM      6  H12 UNL     1      86.551 -13.548  67.909  1.00  0.00     0.277 HD
ATOM      7  H11 UNL     1      84.853 -13.416  67.923  1.00  0.00     0.277 HD
ENDBRANCH   3   4
BRANCH   3   8
HETATM    8  N2  UNL     1      84.211 -14.425  65.812  1.00  0.00    -0.018 N 
ATOM      9  H22 UNL     1      83.983 -15.331  66.221  1.00  0.00     0.282 HD
ATOM     10  H21 UNL     1      83.536 -13.842  66.307  1.00  0.00     0.282 HD
BRANCH   8  11
HETATM   11  C4  UNL     1      83.945 -14.424  64.401  1.00  0.00     0.385 C 
BRANCH  11  12
HETATM   12  N3  UNL     1      83.611 -15.755  63.918  1.00  0.00    -0.247 N 
HETATM   13  C5  UNL     1      84.275 -16.484  63.040  1.00  0.00     0.220 A 
HETATM   14  N4  UNL     1      83.616 -17.656  62.872  1.00  0.00    -0.185 N 
HETATM   15  C6  UNL     1      82.537 -17.634  63.661  1.00  0.00     0.691 A 
ATOM     16  H4  UNL     1      83.893 -18.419  62.254  1.00  0.00     0.185 HD
HETATM   17  N6  UNL     1      82.552 -16.452  64.298  1.00  0.00    -0.128 N 
ATOM     18  H6  UNL     1      81.853 -16.139  64.971  1.00  0.00     0.206 HD
BRANCH  15  19
HETATM   19  N5  UNL     1      81.631 -18.573  63.796  1.00  0.00    -0.233 N 
ATOM     20  H52 UNL     1      81.660 -19.344  64.463  1.00  0.00     0.174 HD
ATOM     21  H51 UNL     1      80.766 -18.678  63.266  1.00  0.00     0.174 HD
ENDBRANCH  15  19
ENDBRANCH  11  12
ENDBRANCH   8  11
ENDBRANCH   3   8
TORSDOF 5
ENDMDL
MODEL 3
REMARK VINA RESULT: -5.611366724      1.079      1.497
REMARK  5 active torsions:
REMARK  status: ('A' for Active; 'I' for Inactive)
REMARK    1  A    between atoms: C3_3  and  N1_4 
REMARK    2  A    between atoms: C3_3  and  N2_8 
REMARK    3  A    between atoms: N2_8  and  C4_11 
REMARK    4  A    between atoms: C4_11  and  N3_12 
REMARK    5  A    between atoms: C6_16  and  N5_17 
ROOT
HETATM    1  C1  UNL     1      82.664 -16.901  60.776  1.00  0.00     0.016 C 
HETATM    2  C2  UNL     1      82.863 -17.225  61.921  1.00  0.00    -0.056 C 
HETATM    3  C3  UNL     1      83.125 -17.621  63.306  1.00  0.00     0.460 C 
ENDROOT
BRANCH   3   4
HETATM    4  N1  UNL     1      81.942 -18.341  63.775  1.00  0.00    -0.039 N 
ATOM      5  H13 UNL     1      81.200 -18.391  63.076  1.00  0.00     0.277 HD
ATOM      6  H12 UNL     1      82.096 -19.344  63.874  1.00  0.00     0.277 HD
ATOM      7  H11 UNL     1      81.644 -17.893  64.642  1.00  0.00     0.277 HD
ENDBRANCH   3   4
BRANCH   3   8
HETATM    8  N2  UNL     1      83.344 -16.495  64.173  1.00  0.00    -0.018 N 
ATOM      9  H22 UNL     1      82.536 -15.874  64.169  1.00  0.00     0.282 HD
ATOM     10  H21 UNL     1      83.331 -16.785  65.151  1.00  0.00     0.282 HD
BRANCH   8  11
HETATM   11  C4  UNL     1      84.545 -15.768  63.874  1.00  0.00     0.385 C 
BRANCH  11  12
HETATM   12  N3  UNL     1      85.016 -15.016  65.028  1.00  0.00    -0.247 N 
HETATM   13  C5  UNL     1      86.071 -15.270  65.779  1.00  0.00     0.220 A 
HETATM   14  N4  UNL     1      86.143 -14.324  66.748  1.00  0.00    -0.185 N 
HETATM   15  C6  UNL     1      85.115 -13.486  66.577  1.00  0.00     0.691 A 
ATOM     16  H4  UNL     1      86.854 -14.262  67.476  1.00  0.00     0.185 HD
HETATM   17  N6  UNL     1      84.431 -13.931  65.511  1.00  0.00    -0.128 N 
ATOM     18  H6  UNL     1      83.589 -13.498  65.132  1.00  0.00     0.206 HD
BRANCH  15  19
HETATM   19  N5  UNL     1      84.817 -12.435  67.302  1.00  0.00    -0.233 N 
ATOM     20  H52 UNL     1      85.144 -12.247  68.250  1.00  0.00     0.174 HD
ATOM     21  H51 UNL     1      84.224 -11.649  67.037  1.00  0.00     0.174 HD
ENDBRANCH  15  19
ENDBRANCH  11  12
ENDBRANCH   8  11
ENDBRANCH   3   8
TORSDOF 5
ENDMDL
MODEL 4
REMARK VINA RESULT: -5.480338418      1.014      1.410
REMARK  5 active torsions:
REMARK  status: ('A' for Active; 'I' for Inactive)
REMARK    1  A    between atoms: C3_3  and  N1_4 
REMARK    2  A    between atoms: C3_3  and  N2_8 
REMARK    3  A    between atoms: N2_8  and  C4_11 
REMARK    4  A    between atoms: C4_11  and  N3_12 
REMARK    5  A    between atoms: C6_16  and  N5_17 
ROOT
HETATM    1  C1  UNL     1      81.278 -19.329  63.863  1.00  0.00     0.016 C 
HETATM    2  C2  UNL     1      81.948 -18.362  63.591  1.00  0.00    -0.056 C 
HETATM    3  C3  UNL     1      82.745 -17.180  63.258  1.00  0.00     0.460 C 
ENDROOT
BRANCH   3   4
HETATM    4  N1  UNL     1      83.988 -17.659  62.655  1.00  0.00    -0.039 N 
ATOM      5  H13 UNL     1      84.351 -18.502  63.101  1.00  0.00     0.277 HD
ATOM      6  H12 UNL     1      83.856 -18.052  61.722  1.00  0.00     0.277 HD
ATOM      7  H11 UNL     1      84.647 -16.881  62.673  1.00  0.00     0.277 HD
ENDBRANCH   3   4
BRANCH   3   8
HETATM    8  N2  UNL     1      83.075 -16.390  64.412  1.00  0.00    -0.018 N 
ATOM      9  H22 UNL     1      82.370 -15.670  64.570  1.00  0.00     0.282 HD
ATOM     10  H21 UNL     1      82.958 -16.933  65.267  1.00  0.00     0.282 HD
BRANCH   8  11
HETATM   11  C4  UNL     1      84.387 -15.811  64.353  1.00  0.00     0.385 C 
BRANCH  11  12
HETATM   12  N3  UNL     1      84.415 -14.485  64.953  1.00  0.00    -0.247 N 
HETATM   13  C5  UNL     1      84.071 -13.341  64.394  1.00  0.00     0.220 A 
HETATM   14  N4  UNL     1      84.254 -12.350  65.301  1.00  0.00    -0.185 N 
HETATM   15  C6  UNL     1      84.716 -12.906  66.425  1.00  0.00     0.691 A 
ATOM     16  H4  UNL     1      84.071 -11.357  65.152  1.00  0.00     0.185 HD
HETATM   17  N6  UNL     1      84.810 -14.224  66.189  1.00  0.00    -0.128 N 
ATOM     18  H6  UNL     1      85.135 -14.919  66.861  1.00  0.00     0.206 HD
BRANCH  15  19
HETATM   19  N5  UNL     1      85.026 -12.298  67.544  1.00  0.00    -0.233 N 
ATOM     20  H52 UNL     1      84.412 -11.692  68.088  1.00  0.00     0.174 HD
ATOM     21  H51 UNL     1      85.915 -12.334  68.043  1.00  0.00     0.174 HD
ENDBRANCH  15  19
ENDBRANCH  11  12
ENDBRANCH   8  11
ENDBRANCH   3   8
TORSDOF 5
ENDMDL
MODEL 5
REMARK VINA RESULT: -5.421950580      1.296      2.081
REMARK  5 active torsions:
REMARK  status: ('A' for Active; 'I' for Inactive)
REMARK    1  A    between atoms: C3_3  and  N1_4 
REMARK    2  A    between atoms: C3_3  and  N2_8 
REMARK    3  A    between atoms: N2_8  and  C4_11 
REMARK    4  A    between atoms: C4_11  and  N3_12 
REMARK    5  A    between atoms: C6_16  and  N5_17 
ROOT
HETATM    1  C1  UNL     1      81.487 -18.978  63.777  1.00  0.00     0.016 C 
HETATM    2  C2  UNL     1      81.778 -17.824  63.573  1.00  0.00    -0.056 C 
HETATM    3  C3  UNL     1      82.113 -16.420  63.330  1.00  0.00     0.460 C 
ENDROOT
BRANCH   3   4
HETATM    4  N1  UNL     1      83.122 -16.399  62.272  1.00  0.00    -0.039 N 
ATOM      5  H13 UNL     1      83.881 -15.742  62.456  1.00  0.00     0.277 HD
ATOM      6  H12 UNL     1      83.688 -17.247  62.241  1.00  0.00     0.277 HD
ATOM      7  H11 UNL     1      82.633 -16.210  61.397  1.00  0.00     0.277 HD
ENDBRANCH   3   4
BRANCH   3   8
HETATM    8  N2  UNL     1      82.659 -15.771  64.491  1.00  0.00    -0.018 N 
ATOM      9  H22 UNL     1      81.918 -15.516  65.144  1.00  0.00     0.282 HD
ATOM     10  H21 UNL     1      83.172 -16.436  65.069  1.00  0.00     0.282 HD
BRANCH   8  11
HETATM   11  C4  UNL     1      83.475 -14.632  64.179  1.00  0.00     0.385 C 
BRANCH  11  12
HETATM   12  N3  UNL     1      84.768 -14.702  64.845  1.00  0.00    -0.247 N 
HETATM   13  C5  UNL     1      85.241 -13.893  65.774  1.00  0.00     0.220 A 
HETATM   14  N4  UNL     1      86.483 -14.314  66.115  1.00  0.00    -0.185 N 
HETATM   15  C6  UNL     1      86.764 -15.394  65.379  1.00  0.00     0.691 A 
ATOM     16  H4  UNL     1      87.094 -13.883  66.809  1.00  0.00     0.185 HD
HETATM   17  N6  UNL     1      85.693 -15.617  64.601  1.00  0.00    -0.128 N 
ATOM     18  H6  UNL     1      85.606 -16.376  63.926  1.00  0.00     0.206 HD
BRANCH  15  19
HETATM   19  N5  UNL     1      87.865 -16.106  65.400  1.00  0.00    -0.233 N 
ATOM     20  H52 UNL     1      88.550 -16.131  66.155  1.00  0.00     0.174 HD
ATOM     21  H51 UNL     1      88.207 -16.738  64.676  1.00  0.00     0.174 HD
ENDBRANCH  15  19
ENDBRANCH  11  12
ENDBRANCH   8  11
ENDBRANCH   3   8
TORSDOF 5
ENDMDL
