MODEL 1
REMARK VINA RESULT: -5.326997008      0.000      0.000
REMARK  4 active torsions:
REMARK  status: ('A' for Active; 'I' for Inactive)
REMARK    1  A    between atoms: N1_1  and  C1_5 
REMARK    2  A    between atoms: C1_5  and  C2_6 
REMARK    3  A    between atoms: C2_6  and  C3_8 
REMARK    4  A    between atoms: C3_8  and  N2_9 
ROOT
HETATM    1  C2  UNL     1      83.414 -14.977  64.152  1.00  0.00     0.103 C 
HETATM    2  S1  UNL     1      84.680 -16.146  63.499  1.00  0.00    -0.089 SA
ENDROOT
BRANCH   1   3
HETATM    3  C1  UNL     1      82.239 -15.105  63.220  1.00  0.00     0.247 C 
BRANCH   3   4
HETATM    4  N1  UNL     1      81.577 -16.393  63.497  1.00  0.00    -0.078 N 
ATOM      5  H13 UNL     1      81.337 -16.510  64.482  1.00  0.00     0.274 HD
ATOM      6  H12 UNL     1      80.630 -16.440  63.121  1.00  0.00     0.274 HD
ATOM      7  H11 UNL     1      82.179 -17.138  63.146  1.00  0.00     0.274 HD
ENDBRANCH   3   4
ENDBRANCH   1   3
BRANCH   1   8
HETATM    8  C3  UNL     1      84.061 -13.644  64.192  1.00  0.00     0.164 C 
BRANCH   8   9
HETATM    9  N2  UNL     1      84.651 -13.235  65.420  1.00  0.00    -0.271 N 
HETATM   10  C4  UNL     1      85.233 -14.051  66.424  1.00  0.00     0.212 C 
HETATM   11  N3  UNL     1      85.299 -13.345  67.527  1.00  0.00    -0.281 N 
HETATM   12  N4  UNL     1      84.778 -12.077  67.295  1.00  0.00    -0.008 NA
ATOM     13  H3  UNL     1      85.674 -13.675  68.417  1.00  0.00     0.184 HD
HETATM   14  N5  UNL     1      84.797 -11.906  65.911  1.00  0.00    -0.005 NA
ENDBRANCH   8   9
ENDBRANCH   1   8
TORSDOF 4
ENDMDL
MODEL 2
REMARK VINA RESULT: -5.325941474      1.288      1.313
REMARK  4 active torsions:
REMARK  status: ('A' for Active; 'I' for Inactive)
REMARK    1  A    between atoms: N1_1  and  C1_5 
REMARK    2  A    between atoms: C1_5  and  C2_6 
REMARK    3  A    between atoms: C2_6  and  C3_8 
REMARK    4  A    between atoms: C3_8  and  N2_9 
ROOT
HETATM    1  C2  UNL     1      82.881 -15.565  64.124  1.00  0.00     0.103 C 
HETATM    2  S1  UNL     1      82.685 -17.368  63.799  1.00  0.00    -0.089 SA
ENDROOT
BRANCH   1   3
HETATM    3  C1  UNL     1      82.348 -14.881  62.894  1.00  0.00     0.247 C 
BRANCH   3   4
HETATM    4  N1  UNL     1      81.085 -15.542  62.517  1.00  0.00    -0.078 N 
ATOM      5  H13 UNL     1      81.208 -16.528  62.290  1.00  0.00     0.274 HD
ATOM      6  H12 UNL     1      80.451 -15.662  63.307  1.00  0.00     0.274 HD
ATOM      7  H11 UNL     1      80.668 -15.010  61.753  1.00  0.00     0.274 HD
ENDBRANCH   3   4
ENDBRANCH   1   3
BRANCH   1   8
HETATM    8  C3  UNL     1      84.320 -15.348  64.409  1.00  0.00     0.164 C 
BRANCH   8   9
HETATM    9  N2  UNL     1      84.656 -14.398  65.412  1.00  0.00    -0.271 N 
HETATM   10  C4  UNL     1      85.809 -14.371  66.239  1.00  0.00     0.212 C 
HETATM   11  N3  UNL     1      85.554 -13.588  67.258  1.00  0.00    -0.281 N 
HETATM   12  N4  UNL     1      84.263 -13.085  67.143  1.00  0.00    -0.008 NA
ATOM     13  H3  UNL     1      86.202 -13.379  68.018  1.00  0.00     0.184 HD
HETATM   14  N5  UNL     1      83.910 -13.250  65.804  1.00  0.00    -0.005 NA
ENDBRANCH   8   9
ENDBRANCH   1   8
TORSDOF 4
ENDMDL
MODEL 3
REMARK VINA RESULT: -5.297426497      1.782      1.963
REMARK  4 active torsions:
REMARK  status: ('A' for Active; 'I' for Inactive)
REMARK    1  A    between atoms: N1_1  and  C1_5 
REMARK    2  A    between atoms: C1_5  and  C2_6 
REMARK    3  A    between atoms: C2_6  and  C3_8 
REMARK    4  A    between atoms: C3_8  and  N2_9 
ROOT
HETATM    1  C2  UNL     1      83.618 -15.631  63.384  1.00  0.00     0.103 C 
HETATM    2  S1  UNL     1      81.946 -15.371  62.655  1.00  0.00    -0.089 SA
ENDROOT
BRANCH   1   3
HETATM    3  C1  UNL     1      84.074 -16.968  62.864  1.00  0.00     0.247 C 
BRANCH   3   4
HETATM    4  N1  UNL     1      83.642 -17.080  61.459  1.00  0.00    -0.078 N 
ATOM      5  H13 UNL     1      82.880 -16.443  61.227  1.00  0.00     0.274 HD
ATOM      6  H12 UNL     1      84.331 -16.711  60.803  1.00  0.00     0.274 HD
ATOM      7  H11 UNL     1      83.409 -18.056  61.278  1.00  0.00     0.274 HD
ENDBRANCH   3   4
ENDBRANCH   1   3
BRANCH   1   8
HETATM    8  C3  UNL     1      83.449 -15.537  64.855  1.00  0.00     0.164 C 
BRANCH   8   9
HETATM    9  N2  UNL     1      84.275 -14.614  65.554  1.00  0.00    -0.271 N 
HETATM   10  C4  UNL     1      85.656 -14.733  65.857  1.00  0.00     0.212 C 
HETATM   11  N3  UNL     1      85.930 -13.885  66.819  1.00  0.00    -0.281 N 
HETATM   12  N4  UNL     1      84.775 -13.199  67.173  1.00  0.00    -0.008 NA
ATOM     13  H3  UNL     1      86.849 -13.750  67.241  1.00  0.00     0.184 HD
HETATM   14  N5  UNL     1      83.897 -13.354  66.100  1.00  0.00    -0.005 NA
ENDBRANCH   8   9
ENDBRANCH   1   8
TORSDOF 4
ENDMDL
MODEL 4
REMARK VINA RESULT: -5.287561355      1.663      1.916
REMARK  4 active torsions:
REMARK  status: ('A' for Active; 'I' for Inactive)
REMARK    1  A    between atoms: N1_1  and  C1_5 
REMARK    2  A    between atoms: C1_5  and  C2_6 
REMARK    3  A    between atoms: C2_6  and  C3_8 
REMARK    4  A    between atoms: C3_8  and  N2_9 
ROOT
HETATM    1  C2  UNL     1      83.716 -15.575  63.394  1.00  0.00     0.103 C 
HETATM    2  S1  UNL     1      81.966 -15.356  62.862  1.00  0.00    -0.089 SA
ENDROOT
BRANCH   1   3
HETATM    3  C1  UNL     1      84.058 -17.002  63.055  1.00  0.00     0.247 C 
BRANCH   3   4
HETATM    4  N1  UNL     1      83.715 -17.227  61.639  1.00  0.00    -0.078 N 
ATOM      5  H13 UNL     1      83.598 -16.359  61.118  1.00  0.00     0.274 HD
ATOM      6  H12 UNL     1      84.493 -17.606  61.100  1.00  0.00     0.274 HD
ATOM      7  H11 UNL     1      82.886 -17.821  61.608  1.00  0.00     0.274 HD
ENDBRANCH   3   4
ENDBRANCH   1   3
BRANCH   1   8
HETATM    8  C3  UNL     1      83.759 -15.228  64.835  1.00  0.00     0.164 C 
BRANCH   8   9
HETATM    9  N2  UNL     1      84.358 -13.990  65.196  1.00  0.00    -0.271 N 
HETATM   10  C4  UNL     1      85.275 -13.736  66.249  1.00  0.00     0.212 C 
HETATM   11  N3  UNL     1      85.275 -12.446  66.480  1.00  0.00    -0.281 N 
HETATM   12  N4  UNL     1      84.385 -11.822  65.614  1.00  0.00    -0.008 NA
ATOM     13  H3  UNL     1      85.840 -11.973  67.186  1.00  0.00     0.184 HD
HETATM   14  N5  UNL     1      84.176 -12.723  64.570  1.00  0.00    -0.005 NA
ENDBRANCH   8   9
ENDBRANCH   1   8
TORSDOF 4
ENDMDL
MODEL 5
REMARK VINA RESULT: -5.135058054      2.148      2.984
REMARK  4 active torsions:
REMARK  status: ('A' for Active; 'I' for Inactive)
REMARK    1  A    between atoms: N1_1  and  C1_5 
REMARK    2  A    between atoms: C1_5  and  C2_6 
REMARK    3  A    between atoms: C2_6  and  C3_8 
REMARK    4  A    between atoms: C3_8  and  N2_9 
ROOT
HETATM    1  C2  UNL     1      85.478 -15.173  64.406  1.00  0.00     0.103 C 
HETATM    2  S1  UNL     1      84.450 -16.340  63.418  1.00  0.00    -0.089 SA
ENDROOT
BRANCH   1   3
HETATM    3  C1  UNL     1      86.797 -15.872  64.598  1.00  0.00     0.247 C 
BRANCH   3   4
HETATM    4  N1  UNL     1      87.529 -15.175  65.671  1.00  0.00    -0.078 N 
ATOM      5  H13 UNL     1      88.535 -15.336  65.633  1.00  0.00     0.274 HD
ATOM      6  H12 UNL     1      87.549 -14.163  65.543  1.00  0.00     0.274 HD
ATOM      7  H11 UNL     1      87.118 -15.452  66.563  1.00  0.00     0.274 HD
ENDBRANCH   3   4
ENDBRANCH   1   3
BRANCH   1   8
HETATM    8  C3  UNL     1      84.713 -14.892  65.645  1.00  0.00     0.164 C 
BRANCH   8   9
HETATM    9  N2  UNL     1      84.618 -13.537  66.066  1.00  0.00    -0.271 N 
HETATM   10  C4  UNL     1      84.509 -12.375  65.258  1.00  0.00     0.212 C 
HETATM   11  N3  UNL     1      84.834 -11.341  65.996  1.00  0.00    -0.281 N 
HETATM   12  N4  UNL     1      85.158 -11.771  67.277  1.00  0.00    -0.008 NA
ATOM     13  H3  UNL     1      84.846 -10.371  65.678  1.00  0.00     0.184 HD
HETATM   14  N5  UNL     1      84.601 -13.043  67.403  1.00  0.00    -0.005 NA
ENDBRANCH   8   9
ENDBRANCH   1   8
TORSDOF 4
ENDMDL
