MODEL 1
REMARK VINA RESULT: -8.138394719      0.000      0.000
REMARK  10 active torsions:
REMARK  status: ('A' for Active; 'I' for Inactive)
REMARK    1  A    between atoms: C2_2  and  C3_3 
REMARK    2  A    between atoms: C3_3  and  C5_5 
REMARK    3  A    between atoms: C7_10  and  C8_11 
REMARK    4  A    between atoms: C8_11  and  C9_12 
REMARK    5  A    between atoms: C12_15  and  O2_16 
REMARK    6  A    between atoms: C16_22  and  O3_23 
REMARK    7  A    between atoms: C17_25  and  C18_26 
REMARK    8  A    between atoms: C18_26  and  C19_27 
REMARK    9  A    between atoms: C26_37  and  C27_38 
REMARK   10  A    between atoms: C27_38  and  C28_39 
ROOT
HETATM    1  C5  UNL     1      10.949 -17.742  12.376  1.00  0.00     0.180 C 
HETATM    2  N1  UNL     1      12.316 -17.820  11.919  1.00  0.00    -0.346 N 
ATOM      3  H1  UNL     1      12.451 -17.949  10.916  1.00  0.00     0.163 HD
HETATM    4  C6  UNL     1      13.491 -17.739  12.705  1.00  0.00     0.241 C 
HETATM    5  O1  UNL     1      14.418 -18.567  12.491  1.00  0.00    -0.271 OA
HETATM    6  C7  UNL     1      13.711 -16.721  13.788  1.00  0.00     0.179 C 
HETATM    7  N2  UNL     1      13.049 -15.486  13.478  1.00  0.00    -0.359 N 
ATOM      8  H2  UNL     1      12.551 -15.521  12.589  1.00  0.00     0.162 HD
HETATM    9  C16 UNL     1      12.930 -14.265  14.103  1.00  0.00     0.142 C 
HETATM   10  C17 UNL     1      12.347 -13.879  15.410  1.00  0.00     0.206 C 
HETATM   11  O4  UNL     1      11.077 -13.430  15.388  1.00  0.00    -0.307 OA
HETATM   12  C22 UNL     1       9.983 -13.033  14.819  1.00  0.00     0.270 C 
HETATM   13  O5  UNL     1       9.916 -11.883  14.239  1.00  0.00    -0.264 OA
HETATM   14  C23 UNL     1       8.727 -13.812  14.769  1.00  0.00     0.153 C 
HETATM   15  C24 UNL     1       8.487 -14.503  16.134  1.00  0.00     0.029 C 
HETATM   16  C25 UNL     1       8.543 -14.778  13.713  1.00  0.00     0.162 C 
HETATM   17  O6  UNL     1       7.748 -15.712  13.961  1.00  0.00    -0.295 OA
HETATM   18  C26 UNL     1       9.149 -14.845  12.364  1.00  0.00     0.155 C 
HETATM   19  N3  UNL     1       9.014 -16.136  11.767  1.00  0.00    -0.348 N 
ATOM     20  H3  UNL     1       8.057 -16.427  11.564  1.00  0.00     0.163 HD
HETATM   21  C31 UNL     1      10.023 -17.070  11.417  1.00  0.00     0.241 C 
HETATM   22  O7  UNL     1      10.147 -17.361  10.201  1.00  0.00    -0.271 OA
ENDROOT
BRANCH   6  23
HETATM   23  C8  UNL     1      13.409 -17.275  15.156  1.00  0.00     0.073 C 
BRANCH  23  24
HETATM   24  C9  UNL     1      14.611 -17.245  16.010  1.00  0.00    -0.056 A 
HETATM   25  C10 UNL     1      14.600 -17.306  17.380  1.00  0.00     0.010 A 
HETATM   26  C11 UNL     1      15.764 -17.260  18.129  1.00  0.00     0.037 A 
HETATM   27  C12 UNL     1      16.987 -17.149  17.511  1.00  0.00     0.068 A 
HETATM   28  C14 UNL     1      17.042 -17.084  16.123  1.00  0.00     0.037 A 
HETATM   29  C15 UNL     1      15.867 -17.133  15.419  1.00  0.00     0.010 A 
BRANCH  27  30
HETATM   30  O2  UNL     1      18.130 -17.105  18.297  1.00  0.00    -0.356 OA
HETATM   31  C13 UNL     1      18.042 -17.616  19.621  1.00  0.00     0.210 C 
ENDBRANCH  27  30
ENDBRANCH  23  24
ENDBRANCH   6  23
BRANCH   9  32
HETATM   32  O3  UNL     1      13.403 -13.237  13.461  1.00  0.00    -0.348 OA
ATOM     33  H3  UNL     1      13.140 -12.381  13.780  1.00  0.00     0.219 HD
ENDBRANCH   9  32
BRANCH   1  34
HETATM   34  C3  UNL     1      10.504 -19.198  12.592  1.00  0.00     0.013 C 
HETATM   35  C4  UNL     1      11.360 -20.139  11.745  1.00  0.00     0.012 C 
BRANCH  34  36
HETATM   36  C2  UNL     1      10.587 -19.654  14.007  1.00  0.00     0.002 C 
HETATM   37  C1  UNL     1       9.952 -18.603  14.935  1.00  0.00     0.005 C 
ENDBRANCH  34  36
ENDBRANCH   1  34
BRANCH  10  38
HETATM   38  C18 UNL     1      13.217 -12.707  15.924  1.00  0.00     0.044 C 
BRANCH  38  39
HETATM   39  C19 UNL     1      14.066 -13.060  17.085  1.00  0.00    -0.020 C 
HETATM   40  C20 UNL     1      15.329 -13.728  16.512  1.00  0.00     0.009 C 
HETATM   41  C21 UNL     1      13.470 -14.000  18.081  1.00  0.00     0.009 C 
ENDBRANCH  38  39
ENDBRANCH  10  38
BRANCH  18  42
HETATM   42  C27 UNL     1       8.794 -13.748  11.453  1.00  0.00     0.037 C 
BRANCH  42  43
HETATM   43  C28 UNL     1       7.813 -13.960  10.368  1.00  0.00    -0.020 C 
HETATM   44  C29 UNL     1       7.847 -13.040   9.192  1.00  0.00     0.009 C 
HETATM   45  C30 UNL     1       6.409 -13.871  10.987  1.00  0.00     0.009 C 
ENDBRANCH  42  43
ENDBRANCH  18  42
TORSDOF 10
ENDMDL
MODEL 2
REMARK VINA RESULT: -7.728636376      2.346      4.808
REMARK  10 active torsions:
REMARK  status: ('A' for Active; 'I' for Inactive)
REMARK    1  A    between atoms: C2_2  and  C3_3 
REMARK    2  A    between atoms: C3_3  and  C5_5 
REMARK    3  A    between atoms: C7_10  and  C8_11 
REMARK    4  A    between atoms: C8_11  and  C9_12 
REMARK    5  A    between atoms: C12_15  and  O2_16 
REMARK    6  A    between atoms: C16_22  and  O3_23 
REMARK    7  A    between atoms: C17_25  and  C18_26 
REMARK    8  A    between atoms: C18_26  and  C19_27 
REMARK    9  A    between atoms: C26_37  and  C27_38 
REMARK   10  A    between atoms: C27_38  and  C28_39 
ROOT
HETATM    1  C5  UNL     1      14.278 -18.276  14.481  1.00  0.00     0.180 C 
HETATM    2  N1  UNL     1      15.373 -17.337  14.548  1.00  0.00    -0.346 N 
ATOM      3  H1  UNL     1      16.166 -17.523  13.935  1.00  0.00     0.163 HD
HETATM    4  C6  UNL     1      15.471 -16.188  15.371  1.00  0.00     0.241 C 
HETATM    5  O1  UNL     1      16.554 -15.973  15.979  1.00  0.00    -0.271 OA
HETATM    6  C7  UNL     1      14.359 -15.198  15.568  1.00  0.00     0.179 C 
HETATM    7  N2  UNL     1      13.551 -15.085  14.387  1.00  0.00    -0.359 N 
ATOM      8  H2  UNL     1      13.871 -15.694  13.634  1.00  0.00     0.162 HD
HETATM    9  C16 UNL     1      12.444 -14.347  14.035  1.00  0.00     0.142 C 
HETATM   10  C17 UNL     1      11.071 -14.303  14.592  1.00  0.00     0.206 C 
HETATM   11  O4  UNL     1      10.148 -15.057  13.964  1.00  0.00    -0.307 OA
HETATM   12  C22 UNL     1       9.705 -15.822  13.017  1.00  0.00     0.270 C 
HETATM   13  O5  UNL     1       9.447 -15.347  11.846  1.00  0.00    -0.264 OA
HETATM   14  C23 UNL     1       9.447 -17.272  13.154  1.00  0.00     0.153 C 
HETATM   15  C24 UNL     1       8.786 -17.557  14.525  1.00  0.00     0.029 C 
HETATM   16  C25 UNL     1      10.534 -18.199  12.951  1.00  0.00     0.162 C 
HETATM   17  O6  UNL     1      10.419 -19.307  13.522  1.00  0.00    -0.295 OA
HETATM   18  C26 UNL     1      11.781 -18.053  12.168  1.00  0.00     0.155 C 
HETATM   19  N3  UNL     1      12.766 -19.026  12.520  1.00  0.00    -0.348 N 
ATOM     20  H3  UNL     1      12.520 -19.994  12.312  1.00  0.00     0.163 HD
HETATM   21  C31 UNL     1      14.038 -18.836  13.118  1.00  0.00     0.241 C 
HETATM   22  O7  UNL     1      15.049 -19.169  12.450  1.00  0.00    -0.271 OA
ENDROOT
BRANCH   6  23
HETATM   23  C8  UNL     1      13.592 -15.453  16.838  1.00  0.00     0.073 C 
BRANCH  23  24
HETATM   24  C9  UNL     1      13.493 -14.223  17.648  1.00  0.00    -0.056 A 
HETATM   25  C10 UNL     1      12.820 -14.121  18.837  1.00  0.00     0.010 A 
HETATM   26  C11 UNL     1      12.752 -12.933  19.546  1.00  0.00     0.037 A 
HETATM   27  C12 UNL     1      13.369 -11.800  19.069  1.00  0.00     0.068 A 
HETATM   28  C14 UNL     1      14.064 -11.862  17.865  1.00  0.00     0.037 A 
HETATM   29  C15 UNL     1      14.106 -13.057  17.195  1.00  0.00     0.010 A 
BRANCH  27  30
HETATM   30  O2  UNL     1      13.278 -10.629  19.808  1.00  0.00    -0.356 OA
HETATM   31  C13 UNL     1      12.362 -10.602  20.895  1.00  0.00     0.210 C 
ENDBRANCH  27  30
ENDBRANCH  23  24
ENDBRANCH   6  23
BRANCH   9  32
HETATM   32  O3  UNL     1      12.588 -13.527  13.036  1.00  0.00    -0.348 OA
ATOM     33  H3  UNL     1      12.442 -12.606  13.218  1.00  0.00     0.219 HD
ENDBRANCH   9  32
BRANCH   1  34
HETATM   34  C3  UNL     1      14.649 -19.410  15.450  1.00  0.00     0.013 C 
HETATM   35  C4  UNL     1      16.162 -19.446  15.662  1.00  0.00     0.012 C 
BRANCH  34  36
HETATM   36  C2  UNL     1      14.004 -19.301  16.787  1.00  0.00     0.002 C 
HETATM   37  C1  UNL     1      12.508 -18.976  16.623  1.00  0.00     0.005 C 
ENDBRANCH  34  36
ENDBRANCH   1  34
BRANCH  10  38
HETATM   38  C18 UNL     1      10.609 -12.834  14.444  1.00  0.00     0.044 C 
BRANCH  38  39
HETATM   39  C19 UNL     1       9.719 -12.376  15.535  1.00  0.00    -0.020 C 
HETATM   40  C20 UNL     1      10.121 -13.175  16.788  1.00  0.00     0.009 C 
HETATM   41  C21 UNL     1       8.254 -12.575  15.324  1.00  0.00     0.009 C 
ENDBRANCH  38  39
ENDBRANCH  10  38
BRANCH  18  42
HETATM   42  C27 UNL     1      11.605 -17.908  10.717  1.00  0.00     0.037 C 
BRANCH  42  43
HETATM   43  C28 UNL     1      11.085 -19.030   9.907  1.00  0.00    -0.020 C 
HETATM   44  C29 UNL     1      12.058 -19.849   9.123  1.00  0.00     0.009 C 
HETATM   45  C30 UNL     1      10.060 -18.452   8.918  1.00  0.00     0.009 C 
ENDBRANCH  42  43
ENDBRANCH  18  42
TORSDOF 10
ENDMDL
MODEL 3
REMARK VINA RESULT: -7.643976466      1.200      1.429
REMARK  10 active torsions:
REMARK  status: ('A' for Active; 'I' for Inactive)
REMARK    1  A    between atoms: C2_2  and  C3_3 
REMARK    2  A    between atoms: C3_3  and  C5_5 
REMARK    3  A    between atoms: C7_10  and  C8_11 
REMARK    4  A    between atoms: C8_11  and  C9_12 
REMARK    5  A    between atoms: C12_15  and  O2_16 
REMARK    6  A    between atoms: C16_22  and  O3_23 
REMARK    7  A    between atoms: C17_25  and  C18_26 
REMARK    8  A    between atoms: C18_26  and  C19_27 
REMARK    9  A    between atoms: C26_37  and  C27_38 
REMARK   10  A    between atoms: C27_38  and  C28_39 
ROOT
HETATM    1  C5  UNL     1      10.961 -17.633  12.733  1.00  0.00     0.180 C 
HETATM    2  N1  UNL     1      12.303 -17.754  12.216  1.00  0.00    -0.346 N 
ATOM      3  H1  UNL     1      12.388 -17.930  11.215  1.00  0.00     0.163 HD
HETATM    4  C6  UNL     1      13.516 -17.655  12.941  1.00  0.00     0.241 C 
HETATM    5  O1  UNL     1      14.420 -18.506  12.722  1.00  0.00    -0.271 OA
HETATM    6  C7  UNL     1      13.801 -16.592  13.963  1.00  0.00     0.179 C 
HETATM    7  N2  UNL     1      13.141 -15.362  13.627  1.00  0.00    -0.359 N 
ATOM      8  H2  UNL     1      12.601 -15.430  12.765  1.00  0.00     0.162 HD
HETATM    9  C16 UNL     1      13.069 -14.112  14.199  1.00  0.00     0.142 C 
HETATM   10  C17 UNL     1      12.555 -13.657  15.513  1.00  0.00     0.206 C 
HETATM   11  O4  UNL     1      11.292 -13.190  15.530  1.00  0.00    -0.307 OA
HETATM   12  C22 UNL     1      10.177 -12.802  14.996  1.00  0.00     0.270 C 
HETATM   13  O5  UNL     1      10.098 -11.679  14.366  1.00  0.00    -0.264 OA
HETATM   14  C23 UNL     1       8.910 -13.563  15.043  1.00  0.00     0.153 C 
HETATM   15  C24 UNL     1       8.727 -14.186  16.448  1.00  0.00     0.029 C 
HETATM   16  C25 UNL     1       8.662 -14.573  14.042  1.00  0.00     0.162 C 
HETATM   17  O6  UNL     1       7.867 -15.482  14.371  1.00  0.00    -0.295 OA
HETATM   18  C26 UNL     1       9.201 -14.712  12.671  1.00  0.00     0.155 C 
HETATM   19  N3  UNL     1       9.020 -16.027  12.142  1.00  0.00    -0.348 N 
ATOM     20  H3  UNL     1       8.052 -16.312  11.999  1.00  0.00     0.163 HD
HETATM   21  C31 UNL     1       9.999 -16.992  11.789  1.00  0.00     0.241 C 
HETATM   22  O7  UNL     1      10.061 -17.340  10.583  1.00  0.00    -0.271 OA
ENDROOT
BRANCH   6  23
HETATM   23  C8  UNL     1      13.558 -17.078  15.368  1.00  0.00     0.073 C 
BRANCH  23  24
HETATM   24  C9  UNL     1      14.718 -17.842  15.866  1.00  0.00    -0.056 A 
HETATM   25  C10 UNL     1      16.024 -17.439  15.761  1.00  0.00     0.010 A 
HETATM   26  C11 UNL     1      17.073 -18.208  16.238  1.00  0.00     0.037 A 
HETATM   27  C12 UNL     1      16.831 -19.419  16.841  1.00  0.00     0.068 A 
HETATM   28  C14 UNL     1      15.519 -19.864  16.968  1.00  0.00     0.037 A 
HETATM   29  C15 UNL     1      14.511 -19.073  16.483  1.00  0.00     0.010 A 
BRANCH  27  30
HETATM   30  O2  UNL     1      17.909 -20.161  17.306  1.00  0.00    -0.356 OA
HETATM   31  C13 UNL     1      18.328 -21.276  16.529  1.00  0.00     0.210 C 
ENDBRANCH  27  30
ENDBRANCH  23  24
ENDBRANCH   6  23
BRANCH   9  32
HETATM   32  O3  UNL     1      13.524 -13.122  13.489  1.00  0.00    -0.348 OA
ATOM     33  H3  UNL     1      13.618 -12.288  13.934  1.00  0.00     0.219 HD
ENDBRANCH   9  32
BRANCH   1  34
HETATM   34  C3  UNL     1      10.508 -19.071  13.038  1.00  0.00     0.013 C 
HETATM   35  C4  UNL     1      11.239 -20.056  12.127  1.00  0.00     0.012 C 
BRANCH  34  36
HETATM   36  C2  UNL     1      10.738 -19.493  14.446  1.00  0.00     0.002 C 
HETATM   37  C1  UNL     1      11.789 -20.617  14.491  1.00  0.00     0.005 C 
ENDBRANCH  34  36
ENDBRANCH   1  34
BRANCH  10  38
HETATM   38  C18 UNL     1      13.464 -12.477  15.930  1.00  0.00     0.044 C 
BRANCH  38  39
HETATM   39  C19 UNL     1      14.155 -12.684  17.223  1.00  0.00    -0.020 C 
HETATM   40  C20 UNL     1      14.462 -14.189  17.316  1.00  0.00     0.009 C 
HETATM   41  C21 UNL     1      13.393 -12.303  18.450  1.00  0.00     0.009 C 
ENDBRANCH  38  39
ENDBRANCH  10  38
BRANCH  18  42
HETATM   42  C27 UNL     1       8.818 -13.653  11.728  1.00  0.00     0.037 C 
BRANCH  42  43
HETATM   43  C28 UNL     1       7.882 -13.937  10.619  1.00  0.00    -0.020 C 
HETATM   44  C29 UNL     1       7.909 -13.043   9.422  1.00  0.00     0.009 C 
HETATM   45  C30 UNL     1       6.457 -13.901  11.194  1.00  0.00     0.009 C 
ENDBRANCH  42  43
ENDBRANCH  18  42
TORSDOF 10
ENDMDL
MODEL 4
REMARK VINA RESULT: -7.638990249      2.186      7.303
REMARK  10 active torsions:
REMARK  status: ('A' for Active; 'I' for Inactive)
REMARK    1  A    between atoms: C2_2  and  C3_3 
REMARK    2  A    between atoms: C3_3  and  C5_5 
REMARK    3  A    between atoms: C7_10  and  C8_11 
REMARK    4  A    between atoms: C8_11  and  C9_12 
REMARK    5  A    between atoms: C12_15  and  O2_16 
REMARK    6  A    between atoms: C16_22  and  O3_23 
REMARK    7  A    between atoms: C17_25  and  C18_26 
REMARK    8  A    between atoms: C18_26  and  C19_27 
REMARK    9  A    between atoms: C26_37  and  C27_38 
REMARK   10  A    between atoms: C27_38  and  C28_39 
ROOT
HETATM    1  C5  UNL     1      14.119 -16.933  16.589  1.00  0.00     0.180 C 
HETATM    2  N1  UNL     1      13.014 -17.851  16.730  1.00  0.00    -0.346 N 
ATOM      3  H1  UNL     1      12.874 -18.251  17.658  1.00  0.00     0.163 HD
HETATM    4  C6  UNL     1      12.102 -18.259  15.726  1.00  0.00     0.241 C 
HETATM    5  O1  UNL     1      11.814 -19.484  15.635  1.00  0.00    -0.271 OA
HETATM    6  C7  UNL     1      11.447 -17.322  14.752  1.00  0.00     0.179 C 
HETATM    7  N2  UNL     1      11.228 -16.032  15.344  1.00  0.00    -0.359 N 
ATOM      8  H2  UNL     1      11.556 -15.983  16.308  1.00  0.00     0.162 HD
HETATM    9  C16 UNL     1      10.680 -14.847  14.911  1.00  0.00     0.142 C 
HETATM   10  C17 UNL     1      11.063 -13.925  13.814  1.00  0.00     0.206 C 
HETATM   11  O4  UNL     1      11.823 -12.869  14.162  1.00  0.00    -0.307 OA
HETATM   12  C22 UNL     1      12.414 -12.072  14.995  1.00  0.00     0.270 C 
HETATM   13  O5  UNL     1      11.737 -11.239  15.711  1.00  0.00    -0.264 OA
HETATM   14  C23 UNL     1      13.875 -12.016  15.218  1.00  0.00     0.153 C 
HETATM   15  C24 UNL     1      14.614 -12.137  13.863  1.00  0.00     0.029 C 
HETATM   16  C25 UNL     1      14.474 -12.926  16.165  1.00  0.00     0.162 C 
HETATM   17  O6  UNL     1      15.685 -13.183  15.982  1.00  0.00    -0.295 OA
HETATM   18  C26 UNL     1      13.882 -13.613  17.335  1.00  0.00     0.155 C 
HETATM   19  N3  UNL     1      14.680 -14.709  17.786  1.00  0.00    -0.348 N 
ATOM     20  H3  UNL     1      15.599 -14.461  18.153  1.00  0.00     0.163 HD
HETATM   21  C31 UNL     1      14.374 -16.094  17.797  1.00  0.00     0.241 C 
HETATM   22  O7  UNL     1      14.314 -16.666  18.915  1.00  0.00    -0.271 OA
ENDROOT
BRANCH   6  23
HETATM   23  C8  UNL     1      12.157 -17.298  13.424  1.00  0.00     0.073 C 
BRANCH  23  24
HETATM   24  C9  UNL     1      11.189 -17.345  12.312  1.00  0.00    -0.056 A 
HETATM   25  C10 UNL     1      11.430 -16.883  11.044  1.00  0.00     0.010 A 
HETATM   26  C11 UNL     1      10.475 -16.943  10.043  1.00  0.00     0.037 A 
HETATM   27  C12 UNL     1       9.233 -17.477  10.295  1.00  0.00     0.068 A 
HETATM   28  C14 UNL     1       8.948 -17.958  11.570  1.00  0.00     0.037 A 
HETATM   29  C15 UNL     1       9.921 -17.880  12.531  1.00  0.00     0.010 A 
BRANCH  27  30
HETATM   30  O2  UNL     1       8.303 -17.519   9.266  1.00  0.00    -0.356 OA
HETATM   31  C13 UNL     1       7.093 -16.792   9.438  1.00  0.00     0.210 C 
ENDBRANCH  27  30
ENDBRANCH  23  24
ENDBRANCH   6  23
BRANCH   9  32
HETATM   32  O3  UNL     1       9.632 -14.423  15.555  1.00  0.00    -0.348 OA
ATOM     33  H3  UNL     1       9.003 -13.917  15.055  1.00  0.00     0.219 HD
ENDBRANCH   9  32
BRANCH   1  34
HETATM   34  C3  UNL     1      15.348 -17.810  16.298  1.00  0.00     0.013 C 
HETATM   35  C4  UNL     1      15.056 -19.263  16.675  1.00  0.00     0.012 C 
BRANCH  34  36
HETATM   36  C2  UNL     1      15.787 -17.787  14.877  1.00  0.00     0.002 C 
HETATM   37  C1  UNL     1      15.668 -16.360  14.314  1.00  0.00     0.005 C 
ENDBRANCH  34  36
ENDBRANCH   1  34
BRANCH  10  38
HETATM   38  C18 UNL     1       9.734 -13.348  13.272  1.00  0.00     0.044 C 
BRANCH  38  39
HETATM   39  C19 UNL     1       9.007 -14.273  12.372  1.00  0.00    -0.020 C 
HETATM   40  C20 UNL     1       9.092 -13.663  10.961  1.00  0.00     0.009 C 
HETATM   41  C21 UNL     1       7.563 -14.499  12.679  1.00  0.00     0.009 C 
ENDBRANCH  38  39
ENDBRANCH  10  38
BRANCH  18  42
HETATM   42  C27 UNL     1      13.434 -12.737  18.426  1.00  0.00     0.037 C 
BRANCH  42  43
HETATM   43  C28 UNL     1      12.141 -12.978  19.100  1.00  0.00    -0.020 C 
HETATM   44  C29 UNL     1      11.156 -11.856  19.165  1.00  0.00     0.009 C 
HETATM   45  C30 UNL     1      12.444 -13.416  20.542  1.00  0.00     0.009 C 
ENDBRANCH  42  43
ENDBRANCH  18  42
TORSDOF 10
ENDMDL
MODEL 5
REMARK VINA RESULT: -7.542681366      2.365      7.018
REMARK  10 active torsions:
REMARK  status: ('A' for Active; 'I' for Inactive)
REMARK    1  A    between atoms: C2_2  and  C3_3 
REMARK    2  A    between atoms: C3_3  and  C5_5 
REMARK    3  A    between atoms: C7_10  and  C8_11 
REMARK    4  A    between atoms: C8_11  and  C9_12 
REMARK    5  A    between atoms: C12_15  and  O2_16 
REMARK    6  A    between atoms: C16_22  and  O3_23 
REMARK    7  A    between atoms: C17_25  and  C18_26 
REMARK    8  A    between atoms: C18_26  and  C19_27 
REMARK    9  A    between atoms: C26_37  and  C27_38 
REMARK   10  A    between atoms: C27_38  and  C28_39 
ROOT
HETATM    1  C5  UNL     1      14.146 -16.623  16.602  1.00  0.00     0.180 C 
HETATM    2  N1  UNL     1      13.351 -17.819  16.450  1.00  0.00    -0.346 N 
ATOM      3  H1  UNL     1      13.150 -18.340  17.303  1.00  0.00     0.163 HD
HETATM    4  C6  UNL     1      12.818 -18.348  15.249  1.00  0.00     0.241 C 
HETATM    5  O1  UNL     1      12.923 -19.588  15.038  1.00  0.00    -0.271 OA
HETATM    6  C7  UNL     1      12.128 -17.526  14.199  1.00  0.00     0.179 C 
HETATM    7  N2  UNL     1      11.430 -16.417  14.787  1.00  0.00    -0.359 N 
ATOM      8  H2  UNL     1      11.528 -16.386  15.801  1.00  0.00     0.162 HD
HETATM    9  C16 UNL     1      10.658 -15.388  14.299  1.00  0.00     0.142 C 
HETATM   10  C17 UNL     1      10.968 -14.282  13.361  1.00  0.00     0.206 C 
HETATM   11  O4  UNL     1      11.302 -13.102  13.919  1.00  0.00    -0.307 OA
HETATM   12  C22 UNL     1      11.456 -12.270  14.900  1.00  0.00     0.270 C 
HETATM   13  O5  UNL     1      10.438 -11.738  15.485  1.00  0.00    -0.264 OA
HETATM   14  C23 UNL     1      12.763 -11.842  15.446  1.00  0.00     0.153 C 
HETATM   15  C24 UNL     1      13.761 -11.607  14.286  1.00  0.00     0.029 C 
HETATM   16  C25 UNL     1      13.397 -12.650  16.459  1.00  0.00     0.162 C 
HETATM   17  O6  UNL     1      14.642 -12.545  16.539  1.00  0.00    -0.295 OA
HETATM   18  C26 UNL     1      12.809 -13.597  17.433  1.00  0.00     0.155 C 
HETATM   19  N3  UNL     1      13.784 -14.476  17.999  1.00  0.00    -0.348 N 
ATOM     20  H3  UNL     1      14.498 -14.027  18.573  1.00  0.00     0.163 HD
HETATM   21  C31 UNL     1      13.898 -15.884  17.876  1.00  0.00     0.241 C 
HETATM   22  O7  UNL     1      13.784 -16.569  18.923  1.00  0.00    -0.271 OA
ENDROOT
BRANCH   6  23
HETATM   23  C8  UNL     1      13.051 -17.163  13.066  1.00  0.00     0.073 C 
BRANCH  23  24
HETATM   24  C9  UNL     1      12.847 -18.064  11.915  1.00  0.00    -0.056 A 
HETATM   25  C10 UNL     1      13.706 -19.064  11.541  1.00  0.00     0.010 A 
HETATM   26  C11 UNL     1      13.466 -19.870  10.441  1.00  0.00     0.037 A 
HETATM   27  C12 UNL     1      12.338 -19.687   9.676  1.00  0.00     0.068 A 
HETATM   28  C14 UNL     1      11.439 -18.683  10.022  1.00  0.00     0.037 A 
HETATM   29  C15 UNL     1      11.715 -17.908  11.119  1.00  0.00     0.010 A 
BRANCH  27  30
HETATM   30  O2  UNL     1      12.133 -20.515   8.581  1.00  0.00    -0.356 OA
HETATM   31  C13 UNL     1      13.278 -20.971   7.873  1.00  0.00     0.210 C 
ENDBRANCH  27  30
ENDBRANCH  23  24
ENDBRANCH   6  23
BRANCH   9  32
HETATM   32  O3  UNL     1       9.426 -15.340  14.713  1.00  0.00    -0.348 OA
ATOM     33  H3  UNL     1       8.900 -14.614  14.397  1.00  0.00     0.219 HD
ENDBRANCH   9  32
BRANCH   1  34
HETATM   34  C3  UNL     1      15.609 -17.094  16.553  1.00  0.00     0.013 C 
HETATM   35  C4  UNL     1      15.704 -18.556  16.987  1.00  0.00     0.012 C 
BRANCH  34  36
HETATM   36  C2  UNL     1      16.239 -16.974  15.210  1.00  0.00     0.002 C 
HETATM   37  C1  UNL     1      15.945 -15.586  14.614  1.00  0.00     0.005 C 
ENDBRANCH  34  36
ENDBRANCH   1  34
BRANCH  10  38
HETATM   38  C18 UNL     1       9.666 -14.035  12.563  1.00  0.00     0.044 C 
BRANCH  38  39
HETATM   39  C19 UNL     1       9.655 -14.677  11.228  1.00  0.00    -0.020 C 
HETATM   40  C20 UNL     1      11.109 -14.656  10.723  1.00  0.00     0.009 C 
HETATM   41  C21 UNL     1       8.806 -14.025  10.186  1.00  0.00     0.009 C 
ENDBRANCH  38  39
ENDBRANCH  10  38
BRANCH  18  42
HETATM   42  C27 UNL     1      11.916 -13.002  18.437  1.00  0.00     0.037 C 
BRANCH  42  43
HETATM   43  C28 UNL     1      12.463 -12.437  19.689  1.00  0.00    -0.020 C 
HETATM   44  C29 UNL     1      12.112 -13.104  20.979  1.00  0.00     0.009 C 
HETATM   45  C30 UNL     1      12.000 -10.974  19.780  1.00  0.00     0.009 C 
ENDBRANCH  42  43
ENDBRANCH  18  42
TORSDOF 10
ENDMDL
