MODEL 1
REMARK VINA RESULT: -7.850663788      0.000      0.000
REMARK  13 active torsions:
REMARK  status: ('A' for Active; 'I' for Inactive)
REMARK    1  A    between atoms: C3_3  and  C4_4 
REMARK    2  A    between atoms: C5_5  and  C7_7 
REMARK    3  A    between atoms: C7_7  and  C8_8 
REMARK    4  A    between atoms: C8_8  and  C9_9 
REMARK    5  A    between atoms: C8_8  and  C13_13 
REMARK    6  A    between atoms: C9_9  and  C10_10 
REMARK    7  A    between atoms: C13_13  and  O1_14 
REMARK    8  A    between atoms: C13_13  and  C14_16 
REMARK    9  A    between atoms: C14_16  and  C15_17 
REMARK   10  A    between atoms: C16_18  and  O2_19 
REMARK   11  A    between atoms: C21_25  and  O3_26 
REMARK   12  A    between atoms: C25_33  and  C26_34 
REMARK   13  A    between atoms: C26_34  and  C27_35 
ROOT
HETATM    1  C1  UNL     1      16.928  -9.493  11.609  1.00  0.00     0.112 C 
HETATM    2  C2  UNL     1      16.444 -10.140  12.833  1.00  0.00    -0.106 C 
HETATM    3  C3  UNL     1      16.030 -10.684  13.825  1.00  0.00    -0.079 C 
ENDROOT
BRANCH   3   4
HETATM    4  C4  UNL     1      15.513 -11.321  15.037  1.00  0.00     0.067 C 
HETATM    5  C5  UNL     1      15.543 -12.615  15.210  1.00  0.00    -0.075 C 
HETATM    6  C6  UNL     1      16.155 -13.383  14.042  1.00  0.00     0.044 C 
BRANCH   5   7
HETATM    7  C7  UNL     1      15.101 -13.364  16.381  1.00  0.00     0.041 C 
BRANCH   7   8
HETATM    8  C8  UNL     1      13.905 -14.209  16.178  1.00  0.00     0.019 C 
BRANCH   8   9
HETATM    9  C9  UNL     1      12.753 -13.925  17.073  1.00  0.00     0.011 C 
BRANCH   9  10
HETATM   10  C10 UNL     1      12.416 -12.458  17.205  1.00  0.00    -0.022 C 
HETATM   11  C11 UNL     1      11.587 -12.139  18.404  1.00  0.00     0.009 C 
HETATM   12  C12 UNL     1      11.649 -12.057  15.950  1.00  0.00     0.009 C 
ENDBRANCH   9  10
ENDBRANCH   8   9
BRANCH   8  13
HETATM   13  C13 UNL     1      14.265 -15.699  16.103  1.00  0.00     0.127 C 
BRANCH  13  14
HETATM   14  O1  UNL     1      15.003 -15.947  17.256  1.00  0.00    -0.395 OA
ATOM     15  H1  UNL     1      15.308 -16.842  17.163  1.00  0.00     0.210 HD
ENDBRANCH  13  14
BRANCH  13  16
HETATM   16  C14 UNL     1      13.051 -16.562  16.082  1.00  0.00     0.079 C 
BRANCH  16  17
HETATM   17  C15 UNL     1      13.151 -17.658  15.006  1.00  0.00     0.045 C 
HETATM   18  C16 UNL     1      12.552 -18.928  15.402  1.00  0.00     0.077 C 
HETATM   19  C17 UNL     1      11.205 -19.340  15.670  1.00  0.00     0.037 C 
HETATM   20  C18 UNL     1      10.133 -19.533  14.931  1.00  0.00     0.003 C 
HETATM   21  C19 UNL     1       9.856 -19.409  13.485  1.00  0.00     0.003 C 
HETATM   22  C20 UNL     1      10.333 -19.841  12.359  1.00  0.00     0.035 C 
HETATM   23  C21 UNL     1      10.050 -19.711  10.932  1.00  0.00     0.072 C 
HETATM   24  C22 UNL     1       9.811 -18.556  10.068  1.00  0.00     0.184 C 
HETATM   25  C23 UNL     1       9.772 -18.917   8.638  1.00  0.00     0.047 C 
HETATM   26  O4  UNL     1      10.686 -17.475  10.229  1.00  0.00    -0.308 OA
HETATM   27  C24 UNL     1      10.371 -16.149  10.446  1.00  0.00     0.282 C 
HETATM   28  O5  UNL     1      11.120 -15.267   9.951  1.00  0.00    -0.263 OA
HETATM   29  C25 UNL     1       9.221 -15.645  11.215  1.00  0.00     0.185 C 
HETATM   30  N1  UNL     1       9.288 -15.785  12.631  1.00  0.00    -0.343 N 
HETATM   31  C30 UNL     1      10.183 -15.267  13.573  1.00  0.00     0.257 C 
ATOM     32  H1  UNL     1       8.552 -16.368  13.030  1.00  0.00     0.163 HD
HETATM   33  O6  UNL     1       9.636 -14.983  14.711  1.00  0.00    -0.267 OA
HETATM   34  C31 UNL     1      11.603 -14.995  13.487  1.00  0.00     0.165 C 
HETATM   35  N2  UNL     1      12.525 -15.980  13.094  1.00  0.00    -0.328 N 
HETATM   36  C32 UNL     1      12.995 -17.166  13.644  1.00  0.00     0.254 C 
ATOM     37  H2  UNL     1      12.950 -15.776  12.190  1.00  0.00     0.168 HD
HETATM   38  O7  UNL     1      13.389 -18.045  12.775  1.00  0.00    -0.268 OA
BRANCH  18  39
HETATM   39  O2  UNL     1      13.454 -19.870  15.535  1.00  0.00    -0.360 OA
ATOM     40  H2  UNL     1      13.136 -20.589  16.068  1.00  0.00     0.217 HD
ENDBRANCH  18  39
BRANCH  23  41
HETATM   41  O3  UNL     1      10.006 -20.860  10.306  1.00  0.00    -0.362 OA
ATOM     42  H3  UNL     1      10.859 -21.161  10.015  1.00  0.00     0.217 HD
ENDBRANCH  23  41
BRANCH  29  43
HETATM   43  C26 UNL     1       8.821 -14.223  10.896  1.00  0.00     0.039 C 
BRANCH  43  44
HETATM   44  C27 UNL     1       7.622 -14.133  10.021  1.00  0.00    -0.020 C 
HETATM   45  C28 UNL     1       7.803 -12.942   9.094  1.00  0.00     0.009 C 
HETATM   46  C29 UNL     1       6.344 -13.899  10.800  1.00  0.00     0.009 C 
ENDBRANCH  43  44
ENDBRANCH  29  43
ENDBRANCH  16  17
ENDBRANCH  13  16
ENDBRANCH   8  13
ENDBRANCH   7   8
ENDBRANCH   5   7
ENDBRANCH   3   4
TORSDOF 13
ENDMDL
MODEL 2
REMARK VINA RESULT: -7.619806146      1.197      2.210
REMARK  13 active torsions:
REMARK  status: ('A' for Active; 'I' for Inactive)
REMARK    1  A    between atoms: C3_3  and  C4_4 
REMARK    2  A    between atoms: C5_5  and  C7_7 
REMARK    3  A    between atoms: C7_7  and  C8_8 
REMARK    4  A    between atoms: C8_8  and  C9_9 
REMARK    5  A    between atoms: C8_8  and  C13_13 
REMARK    6  A    between atoms: C9_9  and  C10_10 
REMARK    7  A    between atoms: C13_13  and  O1_14 
REMARK    8  A    between atoms: C13_13  and  C14_16 
REMARK    9  A    between atoms: C14_16  and  C15_17 
REMARK   10  A    between atoms: C16_18  and  O2_19 
REMARK   11  A    between atoms: C21_25  and  O3_26 
REMARK   12  A    between atoms: C25_33  and  C26_34 
REMARK   13  A    between atoms: C26_34  and  C27_35 
ROOT
HETATM    1  C1  UNL     1      17.243 -10.239  11.964  1.00  0.00     0.112 C 
HETATM    2  C2  UNL     1      16.563 -11.254  12.776  1.00  0.00    -0.106 C 
HETATM    3  C3  UNL     1      16.011 -12.104  13.426  1.00  0.00    -0.079 C 
ENDROOT
BRANCH   3   4
HETATM    4  C4  UNL     1      15.315 -13.128  14.207  1.00  0.00     0.067 C 
HETATM    5  C5  UNL     1      14.905 -12.913  15.428  1.00  0.00    -0.075 C 
HETATM    6  C6  UNL     1      15.222 -11.515  15.952  1.00  0.00     0.044 C 
BRANCH   5   7
HETATM    7  C7  UNL     1      14.168 -13.829  16.292  1.00  0.00     0.041 C 
BRANCH   7   8
HETATM    8  C8  UNL     1      14.993 -14.819  17.017  1.00  0.00     0.019 C 
BRANCH   8   9
HETATM    9  C9  UNL     1      16.332 -15.094  16.436  1.00  0.00     0.011 C 
BRANCH   9  10
HETATM   10  C10 UNL     1      16.743 -16.548  16.482  1.00  0.00    -0.022 C 
HETATM   11  C11 UNL     1      18.006 -16.791  17.238  1.00  0.00     0.009 C 
HETATM   12  C12 UNL     1      16.930 -17.009  15.041  1.00  0.00     0.009 C 
ENDBRANCH   9  10
ENDBRANCH   8   9
BRANCH   8  13
HETATM   13  C13 UNL     1      14.199 -16.090  17.348  1.00  0.00     0.127 C 
BRANCH  13  14
HETATM   14  O1  UNL     1      13.803 -15.928  18.672  1.00  0.00    -0.395 OA
ATOM     15  H1  UNL     1      14.295 -16.583  19.155  1.00  0.00     0.210 HD
ENDBRANCH  13  14
BRANCH  13  16
HETATM   16  C14 UNL     1      13.002 -16.238  16.475  1.00  0.00     0.079 C 
BRANCH  16  17
HETATM   17  C15 UNL     1      13.248 -17.248  15.339  1.00  0.00     0.045 C 
HETATM   18  C16 UNL     1      12.797 -18.601  15.647  1.00  0.00     0.077 C 
HETATM   19  C17 UNL     1      11.505 -19.184  15.859  1.00  0.00     0.037 C 
HETATM   20  C18 UNL     1      10.475 -19.457  15.085  1.00  0.00     0.003 C 
HETATM   21  C19 UNL     1      10.209 -19.277  13.643  1.00  0.00     0.003 C 
HETATM   22  C20 UNL     1      10.752 -19.581  12.505  1.00  0.00     0.035 C 
HETATM   23  C21 UNL     1      10.478 -19.398  11.081  1.00  0.00     0.072 C 
HETATM   24  C22 UNL     1      10.117 -18.229  10.282  1.00  0.00     0.184 C 
HETATM   25  C23 UNL     1      10.144 -18.505   8.832  1.00  0.00     0.047 C 
HETATM   26  O4  UNL     1      10.855 -17.065  10.526  1.00  0.00    -0.308 OA
HETATM   27  C24 UNL     1      10.382 -15.801  10.812  1.00  0.00     0.282 C 
HETATM   28  O5  UNL     1      11.029 -14.808  10.388  1.00  0.00    -0.263 OA
HETATM   29  C25 UNL     1       9.168 -15.483  11.584  1.00  0.00     0.185 C 
HETATM   30  N1  UNL     1       9.229 -15.700  12.990  1.00  0.00    -0.343 N 
HETATM   31  C30 UNL     1      10.041 -15.138  13.981  1.00  0.00     0.257 C 
ATOM     32  H1  UNL     1       8.560 -16.388  13.337  1.00  0.00     0.163 HD
HETATM   33  O6  UNL     1       9.446 -14.991  15.121  1.00  0.00    -0.267 OA
HETATM   34  C31 UNL     1      11.419 -14.697  13.944  1.00  0.00     0.165 C 
HETATM   35  N2  UNL     1      12.458 -15.542  13.515  1.00  0.00    -0.328 N 
HETATM   36  C32 UNL     1      13.056 -16.696  14.005  1.00  0.00     0.254 C 
ATOM     37  H2  UNL     1      12.871 -15.235  12.635  1.00  0.00     0.168 HD
HETATM   38  O7  UNL     1      13.566 -17.468  13.096  1.00  0.00    -0.268 OA
BRANCH  18  39
HETATM   39  O2  UNL     1      13.803 -19.437  15.745  1.00  0.00    -0.360 OA
ATOM     40  H2  UNL     1      13.568 -20.213  16.240  1.00  0.00     0.217 HD
ENDBRANCH  18  39
BRANCH  23  41
HETATM   41  O3  UNL     1      10.580 -20.504  10.388  1.00  0.00    -0.362 OA
ATOM     42  H3  UNL     1       9.839 -21.088  10.501  1.00  0.00     0.217 HD
ENDBRANCH  23  41
BRANCH  29  43
HETATM   43  C26 UNL     1       8.608 -14.100  11.340  1.00  0.00     0.039 C 
BRANCH  43  44
HETATM   44  C27 UNL     1       7.515 -14.080  10.330  1.00  0.00    -0.020 C 
HETATM   45  C28 UNL     1       7.815 -12.974   9.332  1.00  0.00     0.009 C 
HETATM   46  C29 UNL     1       6.161 -13.775  10.939  1.00  0.00     0.009 C 
ENDBRANCH  43  44
ENDBRANCH  29  43
ENDBRANCH  16  17
ENDBRANCH  13  16
ENDBRANCH   8  13
ENDBRANCH   7   8
ENDBRANCH   5   7
ENDBRANCH   3   4
TORSDOF 13
ENDMDL
MODEL 3
REMARK VINA RESULT: -7.607209087      2.316      6.951
REMARK  13 active torsions:
REMARK  status: ('A' for Active; 'I' for Inactive)
REMARK    1  A    between atoms: C3_3  and  C4_4 
REMARK    2  A    between atoms: C5_5  and  C7_7 
REMARK    3  A    between atoms: C7_7  and  C8_8 
REMARK    4  A    between atoms: C8_8  and  C9_9 
REMARK    5  A    between atoms: C8_8  and  C13_13 
REMARK    6  A    between atoms: C9_9  and  C10_10 
REMARK    7  A    between atoms: C13_13  and  O1_14 
REMARK    8  A    between atoms: C13_13  and  C14_16 
REMARK    9  A    between atoms: C14_16  and  C15_17 
REMARK   10  A    between atoms: C16_18  and  O2_19 
REMARK   11  A    between atoms: C21_25  and  O3_26 
REMARK   12  A    between atoms: C25_33  and  C26_34 
REMARK   13  A    between atoms: C26_34  and  C27_35 
ROOT
HETATM    1  C1  UNL     1      11.587 -11.799  19.593  1.00  0.00     0.112 C 
HETATM    2  C2  UNL     1      10.620 -12.324  18.623  1.00  0.00    -0.106 C 
HETATM    3  C3  UNL     1       9.808 -12.751  17.842  1.00  0.00    -0.079 C 
ENDROOT
BRANCH   3   4
HETATM    4  C4  UNL     1       8.828 -13.296  16.901  1.00  0.00     0.067 C 
HETATM    5  C5  UNL     1       8.742 -12.877  15.667  1.00  0.00    -0.075 C 
HETATM    6  C6  UNL     1       9.742 -11.780  15.312  1.00  0.00     0.044 C 
BRANCH   5   7
HETATM    7  C7  UNL     1       7.844 -13.364  14.625  1.00  0.00     0.041 C 
BRANCH   7   8
HETATM    8  C8  UNL     1       8.455 -14.280  13.639  1.00  0.00     0.019 C 
BRANCH   8   9
HETATM    9  C9  UNL     1       7.696 -14.471  12.376  1.00  0.00     0.011 C 
BRANCH   9  10
HETATM   10  C10 UNL     1       8.171 -13.610  11.229  1.00  0.00    -0.022 C 
HETATM   11  C11 UNL     1       7.123 -13.348  10.200  1.00  0.00     0.009 C 
HETATM   12  C12 UNL     1       9.340 -14.337  10.574  1.00  0.00     0.009 C 
ENDBRANCH   9  10
ENDBRANCH   8   9
BRANCH   8  13
HETATM   13  C13 UNL     1       8.902 -15.598  14.286  1.00  0.00     0.127 C 
BRANCH  13  14
HETATM   14  O1  UNL     1       7.732 -16.334  14.444  1.00  0.00    -0.395 OA
ATOM     15  H1  UNL     1       8.023 -17.211  14.663  1.00  0.00     0.210 HD
ENDBRANCH  13  14
BRANCH  13  16
HETATM   16  C14 UNL     1       9.857 -16.343  13.420  1.00  0.00     0.079 C 
BRANCH  16  17
HETATM   17  C15 UNL     1      10.752 -17.288  14.242  1.00  0.00     0.045 C 
HETATM   18  C16 UNL     1      11.392 -18.331  13.447  1.00  0.00     0.077 C 
HETATM   19  C17 UNL     1      12.390 -18.313  12.418  1.00  0.00     0.037 C 
HETATM   20  C18 UNL     1      13.683 -18.067  12.388  1.00  0.00     0.003 C 
HETATM   21  C19 UNL     1      14.675 -17.703  13.421  1.00  0.00     0.003 C 
HETATM   22  C20 UNL     1      15.097 -18.140  14.566  1.00  0.00     0.035 C 
HETATM   23  C21 UNL     1      16.082 -17.770  15.580  1.00  0.00     0.072 C 
HETATM   24  C22 UNL     1      16.378 -16.513  16.264  1.00  0.00     0.184 C 
HETATM   25  C23 UNL     1      17.340 -16.684  17.371  1.00  0.00     0.047 C 
HETATM   26  O4  UNL     1      15.274 -15.797  16.743  1.00  0.00    -0.308 OA
HETATM   27  C24 UNL     1      14.956 -14.473  16.522  1.00  0.00     0.282 C 
HETATM   28  O5  UNL     1      14.385 -13.833  17.442  1.00  0.00    -0.263 OA
HETATM   29  C25 UNL     1      15.222 -13.712  15.289  1.00  0.00     0.185 C 
HETATM   30  N1  UNL     1      14.410 -14.020  14.160  1.00  0.00    -0.343 N 
HETATM   31  C30 UNL     1      13.029 -13.924  13.957  1.00  0.00     0.257 C 
ATOM     32  H1  UNL     1      14.928 -14.373  13.355  1.00  0.00     0.163 HD
HETATM   33  O6  UNL     1      12.701 -13.606  12.747  1.00  0.00    -0.267 OA
HETATM   34  C31 UNL     1      11.918 -14.119  14.865  1.00  0.00     0.165 C 
HETATM   35  N2  UNL     1      11.767 -15.300  15.612  1.00  0.00    -0.328 N 
HETATM   36  C32 UNL     1      11.486 -16.627  15.312  1.00  0.00     0.254 C 
ATOM     37  H2  UNL     1      11.895 -15.147  16.612  1.00  0.00     0.168 HD
HETATM   38  O7  UNL     1      11.970 -17.486  16.155  1.00  0.00    -0.268 OA
BRANCH  18  39
HETATM   39  O2  UNL     1      10.943 -19.523  13.759  1.00  0.00    -0.360 OA
ATOM     40  H2  UNL     1      10.035 -19.635  13.502  1.00  0.00     0.217 HD
ENDBRANCH  18  39
BRANCH  23  41
HETATM   41  O3  UNL     1      16.846 -18.768  15.948  1.00  0.00    -0.362 OA
ATOM     42  H3  UNL     1      17.703 -18.492  16.252  1.00  0.00     0.217 HD
ENDBRANCH  23  41
BRANCH  29  43
HETATM   43  C26 UNL     1      15.242 -12.210  15.466  1.00  0.00     0.039 C 
BRANCH  43  44
HETATM   44  C27 UNL     1      15.333 -11.471  14.179  1.00  0.00    -0.020 C 
HETATM   45  C28 UNL     1      16.786 -11.475  13.733  1.00  0.00     0.009 C 
HETATM   46  C29 UNL     1      14.911 -10.020  14.306  1.00  0.00     0.009 C 
ENDBRANCH  43  44
ENDBRANCH  29  43
ENDBRANCH  16  17
ENDBRANCH  13  16
ENDBRANCH   8  13
ENDBRANCH   7   8
ENDBRANCH   5   7
ENDBRANCH   3   4
TORSDOF 13
ENDMDL
MODEL 4
REMARK VINA RESULT: -7.544294932      1.304      3.667
REMARK  13 active torsions:
REMARK  status: ('A' for Active; 'I' for Inactive)
REMARK    1  A    between atoms: C3_3  and  C4_4 
REMARK    2  A    between atoms: C5_5  and  C7_7 
REMARK    3  A    between atoms: C7_7  and  C8_8 
REMARK    4  A    between atoms: C8_8  and  C9_9 
REMARK    5  A    between atoms: C8_8  and  C13_13 
REMARK    6  A    between atoms: C9_9  and  C10_10 
REMARK    7  A    between atoms: C13_13  and  O1_14 
REMARK    8  A    between atoms: C13_13  and  C14_16 
REMARK    9  A    between atoms: C14_16  and  C15_17 
REMARK   10  A    between atoms: C16_18  and  O2_19 
REMARK   11  A    between atoms: C21_25  and  O3_26 
REMARK   12  A    between atoms: C25_33  and  C26_34 
REMARK   13  A    between atoms: C26_34  and  C27_35 
ROOT
HETATM    1  C1  UNL     1      11.257 -12.456  23.221  1.00  0.00     0.112 C 
HETATM    2  C2  UNL     1      11.770 -12.870  21.912  1.00  0.00    -0.106 C 
HETATM    3  C3  UNL     1      12.207 -13.226  20.847  1.00  0.00    -0.079 C 
ENDROOT
BRANCH   3   4
HETATM    4  C4  UNL     1      12.753 -13.636  19.552  1.00  0.00     0.067 C 
HETATM    5  C5  UNL     1      12.323 -13.135  18.425  1.00  0.00    -0.075 C 
HETATM    6  C6  UNL     1      11.211 -12.102  18.589  1.00  0.00     0.044 C 
BRANCH   5   7
HETATM    7  C7  UNL     1      12.810 -13.426  17.081  1.00  0.00     0.041 C 
BRANCH   7   8
HETATM    8  C8  UNL     1      14.271 -13.618  16.964  1.00  0.00     0.019 C 
BRANCH   8   9
HETATM    9  C9  UNL     1      15.005 -12.563  16.220  1.00  0.00     0.011 C 
BRANCH   9  10
HETATM   10  C10 UNL     1      14.890 -12.668  14.717  1.00  0.00    -0.022 C 
HETATM   11  C11 UNL     1      16.200 -12.852  14.026  1.00  0.00     0.009 C 
HETATM   12  C12 UNL     1      14.245 -11.378  14.223  1.00  0.00     0.009 C 
ENDBRANCH   9  10
ENDBRANCH   8   9
BRANCH   8  13
HETATM   13  C13 UNL     1      14.624 -15.041  16.511  1.00  0.00     0.127 C 
BRANCH  13  14
HETATM   14  O1  UNL     1      15.430 -15.550  17.524  1.00  0.00    -0.395 OA
ATOM     15  H1  UNL     1      16.234 -15.810  17.090  1.00  0.00     0.210 HD
ENDBRANCH  13  14
BRANCH  13  16
HETATM   16  C14 UNL     1      13.410 -15.889  16.353  1.00  0.00     0.079 C 
BRANCH  16  17
HETATM   17  C15 UNL     1      13.603 -16.964  15.268  1.00  0.00     0.045 C 
HETATM   18  C16 UNL     1      13.155 -18.293  15.670  1.00  0.00     0.077 C 
HETATM   19  C17 UNL     1      11.869 -18.851  15.966  1.00  0.00     0.037 C 
HETATM   20  C18 UNL     1      10.807 -19.158  15.251  1.00  0.00     0.003 C 
HETATM   21  C19 UNL     1      10.483 -19.058  13.813  1.00  0.00     0.003 C 
HETATM   22  C20 UNL     1      10.978 -19.431  12.673  1.00  0.00     0.035 C 
HETATM   23  C21 UNL     1      10.648 -19.327  11.254  1.00  0.00     0.072 C 
HETATM   24  C22 UNL     1      10.263 -18.202  10.404  1.00  0.00     0.184 C 
HETATM   25  C23 UNL     1      10.230 -18.559   8.972  1.00  0.00     0.047 C 
HETATM   26  O4  UNL     1      11.019 -17.032  10.551  1.00  0.00    -0.308 OA
HETATM   27  C24 UNL     1      10.567 -15.750  10.784  1.00  0.00     0.282 C 
HETATM   28  O5  UNL     1      11.203 -14.789  10.278  1.00  0.00    -0.263 OA
HETATM   29  C25 UNL     1       9.387 -15.378  11.584  1.00  0.00     0.185 C 
HETATM   30  N1  UNL     1       9.503 -15.515  12.997  1.00  0.00    -0.343 N 
HETATM   31  C30 UNL     1      10.358 -14.906  13.921  1.00  0.00     0.257 C 
ATOM     32  H1  UNL     1       8.844 -16.176  13.409  1.00  0.00     0.163 HD
HETATM   33  O6  UNL     1       9.811 -14.688  15.073  1.00  0.00    -0.267 OA
HETATM   34  C31 UNL     1      11.737 -14.480  13.804  1.00  0.00     0.165 C 
HETATM   35  N2  UNL     1      12.752 -15.357  13.383  1.00  0.00    -0.328 N 
HETATM   36  C32 UNL     1      13.361 -16.487  13.914  1.00  0.00     0.254 C 
ATOM     37  H2  UNL     1      13.130 -15.104  12.471  1.00  0.00     0.168 HD
HETATM   38  O7  UNL     1      13.828 -17.314  13.030  1.00  0.00    -0.268 OA
BRANCH  18  39
HETATM   39  O2  UNL     1      14.158 -19.132  15.775  1.00  0.00    -0.360 OA
ATOM     40  H2  UNL     1      14.522 -19.137  16.653  1.00  0.00     0.217 HD
ENDBRANCH  18  39
BRANCH  23  41
HETATM   41  O3  UNL     1      10.715 -20.471  10.622  1.00  0.00    -0.362 OA
ATOM     42  H3  UNL     1      10.448 -20.413   9.711  1.00  0.00     0.217 HD
ENDBRANCH  23  41
BRANCH  29  43
HETATM   43  C26 UNL     1       8.826 -14.006  11.284  1.00  0.00     0.039 C 
BRANCH  43  44
HETATM   44  C27 UNL     1       7.708 -14.031  10.304  1.00  0.00    -0.020 C 
HETATM   45  C28 UNL     1       7.879 -12.851   9.361  1.00  0.00     0.009 C 
HETATM   46  C29 UNL     1       6.350 -13.881  10.961  1.00  0.00     0.009 C 
ENDBRANCH  43  44
ENDBRANCH  29  43
ENDBRANCH  16  17
ENDBRANCH  13  16
ENDBRANCH   8  13
ENDBRANCH   7   8
ENDBRANCH   5   7
ENDBRANCH   3   4
TORSDOF 13
ENDMDL
MODEL 5
REMARK VINA RESULT: -7.523201192      4.094      7.606
REMARK  13 active torsions:
REMARK  status: ('A' for Active; 'I' for Inactive)
REMARK    1  A    between atoms: C3_3  and  C4_4 
REMARK    2  A    between atoms: C5_5  and  C7_7 
REMARK    3  A    between atoms: C7_7  and  C8_8 
REMARK    4  A    between atoms: C8_8  and  C9_9 
REMARK    5  A    between atoms: C8_8  and  C13_13 
REMARK    6  A    between atoms: C9_9  and  C10_10 
REMARK    7  A    between atoms: C13_13  and  O1_14 
REMARK    8  A    between atoms: C13_13  and  C14_16 
REMARK    9  A    between atoms: C14_16  and  C15_17 
REMARK   10  A    between atoms: C16_18  and  O2_19 
REMARK   11  A    between atoms: C21_25  and  O3_26 
REMARK   12  A    between atoms: C25_33  and  C26_34 
REMARK   13  A    between atoms: C26_34  and  C27_35 
ROOT
HETATM    1  C1  UNL     1       8.631 -12.484  18.819  1.00  0.00     0.112 C 
HETATM    2  C2  UNL     1       8.625 -12.865  17.403  1.00  0.00    -0.106 C 
HETATM    3  C3  UNL     1       8.630 -13.157  16.234  1.00  0.00    -0.079 C 
ENDROOT
BRANCH   3   4
HETATM    4  C4  UNL     1       8.609 -13.504  14.812  1.00  0.00     0.067 C 
HETATM    5  C5  UNL     1       9.486 -13.031  13.967  1.00  0.00    -0.075 C 
HETATM    6  C6  UNL     1      10.512 -12.095  14.598  1.00  0.00     0.044 C 
BRANCH   5   7
HETATM    7  C7  UNL     1       9.598 -13.331  12.544  1.00  0.00     0.041 C 
BRANCH   7   8
HETATM    8  C8  UNL     1      10.070 -14.694  12.218  1.00  0.00     0.019 C 
BRANCH   8   9
HETATM    9  C9  UNL     1      11.397 -15.068  12.770  1.00  0.00     0.011 C 
BRANCH   9  10
HETATM   10  C10 UNL     1      11.347 -16.131  13.843  1.00  0.00    -0.022 C 
HETATM   11  C11 UNL     1      11.904 -15.687  15.154  1.00  0.00     0.009 C 
HETATM   12  C12 UNL     1      12.155 -17.320  13.337  1.00  0.00     0.009 C 
ENDBRANCH   9  10
ENDBRANCH   8   9
BRANCH   8  13
HETATM   13  C13 UNL     1       9.921 -15.005  10.723  1.00  0.00     0.127 C 
BRANCH  13  14
HETATM   14  O1  UNL     1      11.206 -15.326  10.295  1.00  0.00    -0.395 OA
ATOM     15  H1  UNL     1      11.181 -16.260  10.126  1.00  0.00     0.210 HD
ENDBRANCH  13  14
BRANCH  13  16
HETATM   16  C14 UNL     1       9.006 -16.155  10.485  1.00  0.00     0.079 C 
BRANCH  16  17
HETATM   17  C15 UNL     1       7.528 -15.733  10.567  1.00  0.00     0.045 C 
HETATM   18  C16 UNL     1       6.763 -16.033   9.361  1.00  0.00     0.077 C 
HETATM   19  C17 UNL     1       6.359 -17.255   8.730  1.00  0.00     0.037 C 
HETATM   20  C18 UNL     1       5.494 -18.204   9.021  1.00  0.00     0.003 C 
HETATM   21  C19 UNL     1       4.553 -18.417  10.141  1.00  0.00     0.003 C 
HETATM   22  C20 UNL     1       3.595 -17.784  10.744  1.00  0.00     0.035 C 
HETATM   23  C21 UNL     1       2.669 -18.006  11.853  1.00  0.00     0.072 C 
HETATM   24  C22 UNL     1       2.858 -18.464  13.228  1.00  0.00     0.184 C 
HETATM   25  C23 UNL     1       1.634 -18.331  14.042  1.00  0.00     0.047 C 
HETATM   26  O4  UNL     1       3.922 -17.884  13.929  1.00  0.00    -0.308 OA
HETATM   27  C24 UNL     1       4.941 -18.519  14.609  1.00  0.00     0.282 C 
HETATM   28  O5  UNL     1       5.397 -17.975  15.648  1.00  0.00    -0.263 OA
HETATM   29  C25 UNL     1       5.565 -19.800  14.237  1.00  0.00     0.185 C 
HETATM   30  N1  UNL     1       6.430 -19.785  13.105  1.00  0.00    -0.343 N 
HETATM   31  C30 UNL     1       7.623 -19.098  12.858  1.00  0.00     0.257 C 
ATOM     32  H1  UNL     1       6.124 -20.383  12.337  1.00  0.00     0.163 HD
HETATM   33  O6  UNL     1       8.469 -19.762  12.139  1.00  0.00    -0.267 OA
HETATM   34  C31 UNL     1       8.065 -17.782  13.270  1.00  0.00     0.165 C 
HETATM   35  N2  UNL     1       7.302 -16.629  13.018  1.00  0.00    -0.328 N 
HETATM   36  C32 UNL     1       6.930 -15.922  11.881  1.00  0.00     0.254 C 
ATOM     37  H2  UNL     1       6.933 -16.212  13.872  1.00  0.00     0.168 HD
HETATM   38  O7  UNL     1       5.809 -15.278  11.988  1.00  0.00    -0.268 OA
BRANCH  18  39
HETATM   39  O2  UNL     1       6.378 -14.941   8.746  1.00  0.00    -0.360 OA
ATOM     40  H2  UNL     1       6.855 -14.178   9.052  1.00  0.00     0.217 HD
ENDBRANCH  18  39
BRANCH  23  41
HETATM   41  O3  UNL     1       1.424 -17.736  11.549  1.00  0.00    -0.362 OA
ATOM     42  H3  UNL     1       1.184 -16.833  11.721  1.00  0.00     0.217 HD
ENDBRANCH  23  41
BRANCH  29  43
HETATM   43  C26 UNL     1       6.275 -20.510  15.368  1.00  0.00     0.039 C 
BRANCH  43  44
HETATM   44  C27 UNL     1       5.446 -21.564  16.010  1.00  0.00    -0.020 C 
HETATM   45  C28 UNL     1       4.348 -21.959  15.037  1.00  0.00     0.009 C 
HETATM   46  C29 UNL     1       4.766 -21.085  17.277  1.00  0.00     0.009 C 
ENDBRANCH  43  44
ENDBRANCH  29  43
ENDBRANCH  16  17
ENDBRANCH  13  16
ENDBRANCH   8  13
ENDBRANCH   7   8
ENDBRANCH   5   7
ENDBRANCH   3   4
TORSDOF 13
ENDMDL
