MODEL 1
REMARK VINA RESULT: -8.746329378      0.000      0.000
REMARK  14 active torsions:
REMARK  status: ('A' for Active; 'I' for Inactive)
REMARK    1  A    between atoms: C2_2  and  C3_3 
REMARK       I    between atoms: C3_3  and  N1_5 
REMARK    2  A    between atoms: N1_5  and  C4_7 
REMARK    3  A    between atoms: C17_21  and  C18_22 
REMARK    4  A    between atoms: C18_22  and  C19_23 
REMARK    5  A    between atoms: C19_23  and  C20_24 
REMARK    6  A    between atoms: C20_24  and  O3_25 
REMARK    7  A    between atoms: C20_24  and  C21_27 
REMARK    8  A    between atoms: C21_27  and  C22_28 
REMARK    9  A    between atoms: C22_28  and  C23_29 
REMARK   10  A    between atoms: C22_28  and  C25_31 
REMARK   11  A    between atoms: C25_31  and  O4_32 
REMARK   12  A    between atoms: C25_31  and  C26_34 
REMARK   13  A    between atoms: C26_34  and  N2_35 
REMARK   14  A    between atoms: N2_35  and  C27_38 
ROOT
HETATM    1  C4  UNL     1      -8.781  17.064  29.667  1.00  0.00     0.085 C 
HETATM    2  C5  UNL     1      -7.468  17.080  28.939  1.00  0.00     0.026 C 
HETATM    3  C6  UNL     1      -7.680  17.485  27.473  1.00  0.00     0.012 C 
HETATM    4  C7  UNL     1      -8.659  16.603  26.778  1.00  0.00    -0.029 C 
HETATM    5  C8  UNL     1      -8.147  15.183  26.800  1.00  0.00     0.016 C 
HETATM    6  C9  UNL     1     -10.012  16.716  27.475  1.00  0.00    -0.004 C 
HETATM    7  C10 UNL     1     -10.956  17.614  26.658  1.00  0.00     0.006 C 
HETATM    8  C11 UNL     1     -11.288  17.048  25.329  1.00  0.00     0.006 C 
HETATM    9  C12 UNL     1     -10.092  16.329  24.749  1.00  0.00     0.003 C 
HETATM   10  C13 UNL     1      -8.863  17.022  25.380  1.00  0.00     0.069 C 
HETATM   11  C14 UNL     1      -7.754  16.731  24.425  1.00  0.00     0.141 C 
HETATM   12  O2  UNL     1      -6.596  16.995  24.628  1.00  0.00    -0.297 OA
HETATM   13  C15 UNL     1      -8.336  16.102  23.269  1.00  0.00     0.025 C 
HETATM   14  C16 UNL     1      -8.299  14.599  23.269  1.00  0.00     0.024 C 
HETATM   15  C17 UNL     1      -8.036  16.570  21.904  1.00  0.00     0.002 C 
HETATM   16  C30 UNL     1      -9.299  16.221  21.157  1.00  0.00     0.006 C 
HETATM   17  C31 UNL     1     -10.352  15.881  22.236  1.00  0.00     0.006 C 
HETATM   18  C32 UNL     1      -9.796  16.607  23.361  1.00  0.00     0.006 C 
HETATM   19  C33 UNL     1      -9.954  17.343  28.818  1.00  0.00     0.030 C 
ENDROOT
BRANCH  15  20
HETATM   20  C18 UNL     1      -7.598  17.963  21.809  1.00  0.00     0.008 C 
BRANCH  20  21
HETATM   21  C19 UNL     1      -6.457  18.299  20.928  1.00  0.00     0.032 C 
BRANCH  21  22
HETATM   22  C20 UNL     1      -5.136  18.505  21.722  1.00  0.00     0.118 C 
BRANCH  22  23
HETATM   23  O3  UNL     1      -4.778  17.240  22.106  1.00  0.00    -0.396 OA
ATOM     24  H3  UNL     1      -3.952  17.089  21.662  1.00  0.00     0.210 HD
ENDBRANCH  22  23
BRANCH  22  25
HETATM   25  C21 UNL     1      -5.471  19.486  22.765  1.00  0.00     0.039 C 
BRANCH  25  26
HETATM   26  C22 UNL     1      -4.820  19.465  24.085  1.00  0.00     0.018 C 
BRANCH  26  27
HETATM   27  C23 UNL     1      -5.204  20.527  25.050  1.00  0.00     0.003 C 
HETATM   28  C24 UNL     1      -5.657  20.171  26.400  1.00  0.00     0.005 C 
ENDBRANCH  26  27
BRANCH  26  29
HETATM   29  C25 UNL     1      -3.397  19.066  24.046  1.00  0.00     0.148 C 
BRANCH  29  30
HETATM   30  O4  UNL     1      -2.450  20.053  23.953  1.00  0.00    -0.394 OA
ATOM     31  H4  UNL     1      -2.716  20.948  24.126  1.00  0.00     0.210 HD
ENDBRANCH  29  30
BRANCH  29  32
HETATM   32  C26 UNL     1      -3.037  18.011  25.078  1.00  0.00     0.264 C 
BRANCH  32  33
HETATM   33  N2  UNL     1      -2.934  16.751  24.397  1.00  0.00    -0.069 N 
ATOM     34  H22 UNL     1      -3.304  15.997  24.977  1.00  0.00     0.277 HD
ATOM     35  H21 UNL     1      -3.593  16.706  23.620  1.00  0.00     0.277 HD
BRANCH  33  36
HETATM   36  C27 UNL     1      -1.601  16.442  23.951  1.00  0.00     0.186 A 
HETATM   37  C28 UNL     1      -1.346  15.754  22.658  1.00  0.00     0.035 A 
HETATM   38  C29 UNL     1      -1.047  15.087  23.956  1.00  0.00     0.035 A 
ENDBRANCH  33  36
ENDBRANCH  32  33
ENDBRANCH  29  32
ENDBRANCH  26  29
ENDBRANCH  25  26
ENDBRANCH  22  25
ENDBRANCH  21  22
ENDBRANCH  20  21
ENDBRANCH  15  20
BRANCH   1  39
HETATM   39  N1  UNL     1      -8.972  15.824  30.434  1.00  0.00    -0.353 N 
HETATM   40  C3  UNL     1      -8.564  15.680  31.761  1.00  0.00     0.240 C 
HETATM   41  O1  UNL     1      -8.002  16.616  32.383  1.00  0.00    -0.269 OA
ATOM     42  H1  UNL     1      -9.423  15.032  29.975  1.00  0.00     0.163 HD
BRANCH  40  43
HETATM   43  C2  UNL     1      -8.784  14.427  32.462  1.00  0.00     0.064 C 
HETATM   44  C1  UNL     1      -8.917  14.386  33.780  1.00  0.00     0.017 C 
ENDBRANCH  40  43
ENDBRANCH   1  39
TORSDOF 14
ENDMDL
MODEL 2
REMARK VINA RESULT: -8.632292098      1.432      2.694
REMARK  14 active torsions:
REMARK  status: ('A' for Active; 'I' for Inactive)
REMARK    1  A    between atoms: C2_2  and  C3_3 
REMARK       I    between atoms: C3_3  and  N1_5 
REMARK    2  A    between atoms: N1_5  and  C4_7 
REMARK    3  A    between atoms: C17_21  and  C18_22 
REMARK    4  A    between atoms: C18_22  and  C19_23 
REMARK    5  A    between atoms: C19_23  and  C20_24 
REMARK    6  A    between atoms: C20_24  and  O3_25 
REMARK    7  A    between atoms: C20_24  and  C21_27 
REMARK    8  A    between atoms: C21_27  and  C22_28 
REMARK    9  A    between atoms: C22_28  and  C23_29 
REMARK   10  A    between atoms: C22_28  and  C25_31 
REMARK   11  A    between atoms: C25_31  and  O4_32 
REMARK   12  A    between atoms: C25_31  and  C26_34 
REMARK   13  A    between atoms: C26_34  and  N2_35 
REMARK   14  A    between atoms: N2_35  and  C27_38 
ROOT
HETATM    1  C4  UNL     1      -8.538  17.257  29.188  1.00  0.00     0.085 C 
HETATM    2  C5  UNL     1      -7.260  17.330  28.403  1.00  0.00     0.026 C 
HETATM    3  C6  UNL     1      -7.558  17.668  26.936  1.00  0.00     0.012 C 
HETATM    4  C7  UNL     1      -8.504  16.701  26.313  1.00  0.00    -0.029 C 
HETATM    5  C8  UNL     1      -7.900  15.319  26.359  1.00  0.00     0.016 C 
HETATM    6  C9  UNL     1      -9.833  16.752  27.064  1.00  0.00    -0.004 C 
HETATM    7  C10 UNL     1     -10.866  17.558  26.259  1.00  0.00     0.006 C 
HETATM    8  C11 UNL     1     -11.215  16.924  24.966  1.00  0.00     0.006 C 
HETATM    9  C12 UNL     1      -9.999  16.263  24.358  1.00  0.00     0.003 C 
HETATM   10  C13 UNL     1      -8.793  17.056  24.912  1.00  0.00     0.069 C 
HETATM   11  C14 UNL     1      -7.708  16.803  23.920  1.00  0.00     0.141 C 
HETATM   12  O2  UNL     1      -6.562  17.147  24.063  1.00  0.00    -0.297 OA
HETATM   13  C15 UNL     1      -8.294  16.096  22.812  1.00  0.00     0.025 C 
HETATM   14  C16 UNL     1      -8.159  14.600  22.860  1.00  0.00     0.024 C 
HETATM   15  C17 UNL     1      -8.083  16.534  21.420  1.00  0.00     0.002 C 
HETATM   16  C30 UNL     1      -9.349  16.077  20.741  1.00  0.00     0.006 C 
HETATM   17  C31 UNL     1     -10.332  15.710  21.875  1.00  0.00     0.006 C 
HETATM   18  C32 UNL     1      -9.779  16.510  22.950  1.00  0.00     0.006 C 
HETATM   19  C33 UNL     1      -9.761  17.430  28.382  1.00  0.00     0.030 C 
ENDROOT
BRANCH  15  20
HETATM   20  C18 UNL     1      -7.741  17.948  21.260  1.00  0.00     0.008 C 
BRANCH  20  21
HETATM   21  C19 UNL     1      -6.549  18.313  20.462  1.00  0.00     0.032 C 
BRANCH  21  22
HETATM   22  C20 UNL     1      -5.238  18.254  21.295  1.00  0.00     0.118 C 
BRANCH  22  23
HETATM   23  O3  UNL     1      -5.335  19.322  22.146  1.00  0.00    -0.396 OA
ATOM     24  H3  UNL     1      -4.537  19.814  21.992  1.00  0.00     0.210 HD
ENDBRANCH  22  23
BRANCH  22  25
HETATM   25  C21 UNL     1      -4.157  18.249  20.297  1.00  0.00     0.039 C 
BRANCH  25  26
HETATM   26  C22 UNL     1      -2.800  17.786  20.628  1.00  0.00     0.018 C 
BRANCH  26  27
HETATM   27  C23 UNL     1      -1.850  17.597  19.501  1.00  0.00     0.003 C 
HETATM   28  C24 UNL     1      -2.351  17.297  18.154  1.00  0.00     0.005 C 
ENDBRANCH  26  27
BRANCH  26  29
HETATM   29  C25 UNL     1      -2.755  16.796  21.725  1.00  0.00     0.148 C 
BRANCH  29  30
HETATM   30  O4  UNL     1      -2.215  15.563  21.463  1.00  0.00    -0.394 OA
ATOM     31  H4  UNL     1      -2.315  14.882  22.118  1.00  0.00     0.210 HD
ENDBRANCH  29  30
BRANCH  29  32
HETATM   32  C26 UNL     1      -2.267  17.375  23.042  1.00  0.00     0.264 C 
BRANCH  32  33
HETATM   33  N2  UNL     1      -3.378  17.388  23.952  1.00  0.00    -0.069 N 
ATOM     34  H22 UNL     1      -4.239  17.637  23.465  1.00  0.00     0.277 HD
ATOM     35  H21 UNL     1      -3.616  16.440  24.244  1.00  0.00     0.277 HD
BRANCH  33  36
HETATM   36  C27 UNL     1      -3.177  18.237  25.096  1.00  0.00     0.186 A 
HETATM   37  C28 UNL     1      -3.857  17.980  26.393  1.00  0.00     0.035 A 
HETATM   38  C29 UNL     1      -4.185  19.184  25.580  1.00  0.00     0.035 A 
ENDBRANCH  33  36
ENDBRANCH  32  33
ENDBRANCH  29  32
ENDBRANCH  26  29
ENDBRANCH  25  26
ENDBRANCH  22  25
ENDBRANCH  21  22
ENDBRANCH  20  21
ENDBRANCH  15  20
BRANCH   1  39
HETATM   39  N1  UNL     1      -8.615  16.035  30.003  1.00  0.00    -0.353 N 
HETATM   40  C3  UNL     1      -8.718  16.056  31.395  1.00  0.00     0.240 C 
HETATM   41  O1  UNL     1      -8.749  17.135  32.039  1.00  0.00    -0.269 OA
ATOM     42  H1  UNL     1      -8.593  15.132  29.530  1.00  0.00     0.163 HD
BRANCH  40  43
HETATM   43  C2  UNL     1      -8.792  14.811  32.141  1.00  0.00     0.064 C 
HETATM   44  C1  UNL     1      -8.429  14.746  33.414  1.00  0.00     0.017 C 
ENDBRANCH  40  43
ENDBRANCH   1  39
TORSDOF 14
ENDMDL
MODEL 3
REMARK VINA RESULT: -8.441539643      1.396      1.856
REMARK  14 active torsions:
REMARK  status: ('A' for Active; 'I' for Inactive)
REMARK    1  A    between atoms: C2_2  and  C3_3 
REMARK       I    between atoms: C3_3  and  N1_5 
REMARK    2  A    between atoms: N1_5  and  C4_7 
REMARK    3  A    between atoms: C17_21  and  C18_22 
REMARK    4  A    between atoms: C18_22  and  C19_23 
REMARK    5  A    between atoms: C19_23  and  C20_24 
REMARK    6  A    between atoms: C20_24  and  O3_25 
REMARK    7  A    between atoms: C20_24  and  C21_27 
REMARK    8  A    between atoms: C21_27  and  C22_28 
REMARK    9  A    between atoms: C22_28  and  C23_29 
REMARK   10  A    between atoms: C22_28  and  C25_31 
REMARK   11  A    between atoms: C25_31  and  O4_32 
REMARK   12  A    between atoms: C25_31  and  C26_34 
REMARK   13  A    between atoms: C26_34  and  N2_35 
REMARK   14  A    between atoms: N2_35  and  C27_38 
ROOT
HETATM    1  C4  UNL     1      -9.002  17.134  29.930  1.00  0.00     0.085 C 
HETATM    2  C5  UNL     1      -7.671  17.261  29.248  1.00  0.00     0.026 C 
HETATM    3  C6  UNL     1      -7.866  17.656  27.778  1.00  0.00     0.012 C 
HETATM    4  C7  UNL     1      -8.744  16.702  27.046  1.00  0.00    -0.029 C 
HETATM    5  C8  UNL     1      -8.120  15.329  27.080  1.00  0.00     0.016 C 
HETATM    6  C9  UNL     1     -10.126  16.701  27.696  1.00  0.00    -0.004 C 
HETATM    7  C10 UNL     1     -11.110  17.524  26.849  1.00  0.00     0.006 C 
HETATM    8  C11 UNL     1     -11.350  16.941  25.508  1.00  0.00     0.006 C 
HETATM    9  C12 UNL     1     -10.080  16.325  24.967  1.00  0.00     0.003 C 
HETATM   10  C13 UNL     1      -8.934  17.112  25.643  1.00  0.00     0.069 C 
HETATM   11  C14 UNL     1      -7.773  16.918  24.726  1.00  0.00     0.141 C 
HETATM   12  O2  UNL     1      -6.648  17.274  24.969  1.00  0.00    -0.297 OA
HETATM   13  C15 UNL     1      -8.262  16.251  23.549  1.00  0.00     0.025 C 
HETATM   14  C16 UNL     1      -8.102  14.756  23.545  1.00  0.00     0.024 C 
HETATM   15  C17 UNL     1      -7.955  16.750  22.196  1.00  0.00     0.002 C 
HETATM   16  C30 UNL     1      -9.159  16.304  21.405  1.00  0.00     0.006 C 
HETATM   17  C31 UNL     1     -10.217  15.873  22.445  1.00  0.00     0.006 C 
HETATM   18  C32 UNL     1      -9.760  16.635  23.591  1.00  0.00     0.006 C 
HETATM   19  C33 UNL     1     -10.165  17.322  29.042  1.00  0.00     0.030 C 
ENDROOT
BRANCH  15  20
HETATM   20  C18 UNL     1      -7.628  18.175  22.121  1.00  0.00     0.008 C 
BRANCH  20  21
HETATM   21  C19 UNL     1      -6.245  18.578  21.784  1.00  0.00     0.032 C 
BRANCH  21  22
HETATM   22  C20 UNL     1      -5.519  19.261  22.977  1.00  0.00     0.118 C 
BRANCH  22  23
HETATM   23  O3  UNL     1      -5.757  20.597  22.790  1.00  0.00    -0.396 OA
ATOM     24  H3  UNL     1      -6.691  20.688  22.940  1.00  0.00     0.210 HD
ENDBRANCH  22  23
BRANCH  22  25
HETATM   25  C21 UNL     1      -4.131  18.780  22.901  1.00  0.00     0.039 C 
BRANCH  25  26
HETATM   26  C22 UNL     1      -3.488  18.092  24.031  1.00  0.00     0.018 C 
BRANCH  26  27
HETATM   27  C23 UNL     1      -3.450  18.808  25.332  1.00  0.00     0.003 C 
HETATM   28  C24 UNL     1      -3.843  18.119  26.567  1.00  0.00     0.005 C 
ENDBRANCH  26  27
BRANCH  26  29
HETATM   29  C25 UNL     1      -2.294  17.306  23.655  1.00  0.00     0.148 C 
BRANCH  29  30
HETATM   30  O4  UNL     1      -2.128  16.067  24.219  1.00  0.00    -0.394 OA
ATOM     31  H4  UNL     1      -2.306  15.970  25.147  1.00  0.00     0.210 HD
ENDBRANCH  29  30
BRANCH  29  32
HETATM   32  C26 UNL     1      -2.017  17.304  22.160  1.00  0.00     0.264 C 
BRANCH  32  33
HETATM   33  N2  UNL     1      -2.337  15.998  21.658  1.00  0.00    -0.069 N 
ATOM     34  H22 UNL     1      -1.557  15.357  21.800  1.00  0.00     0.277 HD
ATOM     35  H21 UNL     1      -3.037  15.547  22.247  1.00  0.00     0.277 HD
BRANCH  33  36
HETATM   36  C27 UNL     1      -2.753  15.994  20.281  1.00  0.00     0.186 A 
HETATM   37  C28 UNL     1      -3.074  17.252  19.555  1.00  0.00     0.035 A 
HETATM   38  C29 UNL     1      -4.132  16.248  19.858  1.00  0.00     0.035 A 
ENDBRANCH  33  36
ENDBRANCH  32  33
ENDBRANCH  29  32
ENDBRANCH  26  29
ENDBRANCH  25  26
ENDBRANCH  22  25
ENDBRANCH  21  22
ENDBRANCH  20  21
ENDBRANCH  15  20
BRANCH   1  39
HETATM   39  N1  UNL     1      -9.118  15.878  30.686  1.00  0.00    -0.353 N 
HETATM   40  C3  UNL     1      -8.580  15.707  31.962  1.00  0.00     0.240 C 
HETATM   41  O1  UNL     1      -7.957  16.630  32.545  1.00  0.00    -0.269 OA
ATOM     42  H1  UNL     1      -9.614  15.096  30.257  1.00  0.00     0.163 HD
BRANCH  40  43
HETATM   43  C2  UNL     1      -8.731  14.439  32.655  1.00  0.00     0.064 C 
HETATM   44  C1  UNL     1      -9.123  14.384  33.920  1.00  0.00     0.017 C 
ENDBRANCH  40  43
ENDBRANCH   1  39
TORSDOF 14
ENDMDL
MODEL 4
REMARK VINA RESULT: -8.383099348      1.334      2.049
REMARK  14 active torsions:
REMARK  status: ('A' for Active; 'I' for Inactive)
REMARK    1  A    between atoms: C2_2  and  C3_3 
REMARK       I    between atoms: C3_3  and  N1_5 
REMARK    2  A    between atoms: N1_5  and  C4_7 
REMARK    3  A    between atoms: C17_21  and  C18_22 
REMARK    4  A    between atoms: C18_22  and  C19_23 
REMARK    5  A    between atoms: C19_23  and  C20_24 
REMARK    6  A    between atoms: C20_24  and  O3_25 
REMARK    7  A    between atoms: C20_24  and  C21_27 
REMARK    8  A    between atoms: C21_27  and  C22_28 
REMARK    9  A    between atoms: C22_28  and  C23_29 
REMARK   10  A    between atoms: C22_28  and  C25_31 
REMARK   11  A    between atoms: C25_31  and  O4_32 
REMARK   12  A    between atoms: C25_31  and  C26_34 
REMARK   13  A    between atoms: C26_34  and  N2_35 
REMARK   14  A    between atoms: N2_35  and  C27_38 
ROOT
HETATM    1  C4  UNL     1      -8.828  17.108  29.688  1.00  0.00     0.085 C 
HETATM    2  C5  UNL     1      -7.545  17.167  28.911  1.00  0.00     0.026 C 
HETATM    3  C6  UNL     1      -7.833  17.503  27.441  1.00  0.00     0.012 C 
HETATM    4  C7  UNL     1      -8.785  16.543  26.816  1.00  0.00    -0.029 C 
HETATM    5  C8  UNL     1      -8.196  15.155  26.869  1.00  0.00     0.016 C 
HETATM    6  C9  UNL     1     -10.117  16.611  27.559  1.00  0.00    -0.004 C 
HETATM    7  C10 UNL     1     -11.137  17.424  26.746  1.00  0.00     0.006 C 
HETATM    8  C11 UNL     1     -11.486  16.790  25.453  1.00  0.00     0.006 C 
HETATM    9  C12 UNL     1     -10.274  16.115  24.854  1.00  0.00     0.003 C 
HETATM   10  C13 UNL     1      -9.063  16.897  25.412  1.00  0.00     0.069 C 
HETATM   11  C14 UNL     1      -7.975  16.630  24.427  1.00  0.00     0.141 C 
HETATM   12  O2  UNL     1      -6.827  16.963  24.575  1.00  0.00    -0.297 OA
HETATM   13  C15 UNL     1      -8.562  15.926  23.318  1.00  0.00     0.025 C 
HETATM   14  C16 UNL     1      -8.442  14.428  23.371  1.00  0.00     0.024 C 
HETATM   15  C17 UNL     1      -8.339  16.357  21.926  1.00  0.00     0.002 C 
HETATM   16  C30 UNL     1      -9.607  15.911  21.241  1.00  0.00     0.006 C 
HETATM   17  C31 UNL     1     -10.599  15.557  22.371  1.00  0.00     0.006 C 
HETATM   18  C32 UNL     1     -10.043  16.355  23.446  1.00  0.00     0.006 C 
HETATM   19  C33 UNL     1     -10.045  17.291  28.876  1.00  0.00     0.030 C 
ENDROOT
BRANCH  15  20
HETATM   20  C18 UNL     1      -7.982  17.767  21.764  1.00  0.00     0.008 C 
BRANCH  20  21
HETATM   21  C19 UNL     1      -7.369  18.211  20.492  1.00  0.00     0.032 C 
BRANCH  21  22
HETATM   22  C20 UNL     1      -5.832  17.980  20.462  1.00  0.00     0.118 C 
BRANCH  22  23
HETATM   23  O3  UNL     1      -5.679  16.854  19.698  1.00  0.00    -0.396 OA
ATOM     24  H3  UNL     1      -5.090  16.309  20.207  1.00  0.00     0.210 HD
ENDBRANCH  22  23
BRANCH  22  25
HETATM   25  C21 UNL     1      -5.430  17.928  21.876  1.00  0.00     0.039 C 
BRANCH  25  26
HETATM   26  C22 UNL     1      -4.451  18.872  22.438  1.00  0.00     0.018 C 
BRANCH  26  27
HETATM   27  C23 UNL     1      -3.088  18.352  22.720  1.00  0.00     0.003 C 
HETATM   28  C24 UNL     1      -2.528  17.265  21.910  1.00  0.00     0.005 C 
ENDBRANCH  26  27
BRANCH  26  29
HETATM   29  C25 UNL     1      -5.027  19.826  23.410  1.00  0.00     0.148 C 
BRANCH  29  30
HETATM   30  O4  UNL     1      -6.372  19.756  23.668  1.00  0.00    -0.394 OA
ATOM     31  H4  UNL     1      -6.650  19.383  24.497  1.00  0.00     0.210 HD
ENDBRANCH  29  30
BRANCH  29  32
HETATM   32  C26 UNL     1      -4.199  19.974  24.675  1.00  0.00     0.264 C 
BRANCH  32  33
HETATM   33  N2  UNL     1      -4.809  19.165  25.693  1.00  0.00    -0.069 N 
ATOM     34  H22 UNL     1      -5.303  19.748  26.368  1.00  0.00     0.277 HD
ATOM     35  H21 UNL     1      -5.597  18.641  25.312  1.00  0.00     0.277 HD
BRANCH  33  36
HETATM   36  C27 UNL     1      -3.887  18.284  26.360  1.00  0.00     0.186 A 
HETATM   37  C28 UNL     1      -3.646  16.896  25.885  1.00  0.00     0.035 A 
HETATM   38  C29 UNL     1      -4.313  17.156  27.191  1.00  0.00     0.035 A 
ENDBRANCH  33  36
ENDBRANCH  32  33
ENDBRANCH  29  32
ENDBRANCH  26  29
ENDBRANCH  25  26
ENDBRANCH  22  25
ENDBRANCH  21  22
ENDBRANCH  20  21
ENDBRANCH  15  20
BRANCH   1  39
HETATM   39  N1  UNL     1      -8.923  15.890  30.507  1.00  0.00    -0.353 N 
HETATM   40  C3  UNL     1      -8.484  15.828  31.830  1.00  0.00     0.240 C 
HETATM   41  O1  UNL     1      -7.976  16.824  32.405  1.00  0.00    -0.269 OA
ATOM     42  H1  UNL     1      -9.327  15.052  30.088  1.00  0.00     0.163 HD
BRANCH  40  43
HETATM   43  C2  UNL     1      -8.608  14.592  32.584  1.00  0.00     0.064 C 
HETATM   44  C1  UNL     1      -8.891  14.597  33.879  1.00  0.00     0.017 C 
ENDBRANCH  40  43
ENDBRANCH   1  39
TORSDOF 14
ENDMDL
MODEL 5
REMARK VINA RESULT: -8.298344674      1.494      2.818
REMARK  14 active torsions:
REMARK  status: ('A' for Active; 'I' for Inactive)
REMARK    1  A    between atoms: C2_2  and  C3_3 
REMARK       I    between atoms: C3_3  and  N1_5 
REMARK    2  A    between atoms: N1_5  and  C4_7 
REMARK    3  A    between atoms: C17_21  and  C18_22 
REMARK    4  A    between atoms: C18_22  and  C19_23 
REMARK    5  A    between atoms: C19_23  and  C20_24 
REMARK    6  A    between atoms: C20_24  and  O3_25 
REMARK    7  A    between atoms: C20_24  and  C21_27 
REMARK    8  A    between atoms: C21_27  and  C22_28 
REMARK    9  A    between atoms: C22_28  and  C23_29 
REMARK   10  A    between atoms: C22_28  and  C25_31 
REMARK   11  A    between atoms: C25_31  and  O4_32 
REMARK   12  A    between atoms: C25_31  and  C26_34 
REMARK   13  A    between atoms: C26_34  and  N2_35 
REMARK   14  A    between atoms: N2_35  and  C27_38 
ROOT
HETATM    1  C4  UNL     1      -8.553  17.221  29.286  1.00  0.00     0.085 C 
HETATM    2  C5  UNL     1      -7.281  17.281  28.490  1.00  0.00     0.026 C 
HETATM    3  C6  UNL     1      -7.589  17.625  27.026  1.00  0.00     0.012 C 
HETATM    4  C7  UNL     1      -8.552  16.670  26.410  1.00  0.00    -0.029 C 
HETATM    5  C8  UNL     1      -7.965  15.281  26.448  1.00  0.00     0.016 C 
HETATM    6  C9  UNL     1      -9.873  16.737  27.173  1.00  0.00    -0.004 C 
HETATM    7  C10 UNL     1     -10.903  17.557  26.378  1.00  0.00     0.006 C 
HETATM    8  C11 UNL     1     -11.271  16.930  25.087  1.00  0.00     0.006 C 
HETATM    9  C12 UNL     1     -10.070  16.255  24.468  1.00  0.00     0.003 C 
HETATM   10  C13 UNL     1      -8.849  17.032  25.012  1.00  0.00     0.069 C 
HETATM   11  C14 UNL     1      -7.775  16.767  24.010  1.00  0.00     0.141 C 
HETATM   12  O2  UNL     1      -6.625  17.097  24.144  1.00  0.00    -0.297 OA
HETATM   13  C15 UNL     1      -8.380  16.070  22.906  1.00  0.00     0.025 C 
HETATM   14  C16 UNL     1      -8.263  14.572  22.950  1.00  0.00     0.024 C 
HETATM   15  C17 UNL     1      -8.176  16.507  21.513  1.00  0.00     0.002 C 
HETATM   16  C30 UNL     1      -9.454  16.068  20.845  1.00  0.00     0.006 C 
HETATM   17  C31 UNL     1     -10.431  15.710  21.987  1.00  0.00     0.006 C 
HETATM   18  C32 UNL     1      -9.858  16.502  23.058  1.00  0.00     0.006 C 
HETATM   19  C33 UNL     1      -9.781  17.411  28.491  1.00  0.00     0.030 C 
ENDROOT
BRANCH  15  20
HETATM   20  C18 UNL     1      -7.818  17.917  21.353  1.00  0.00     0.008 C 
BRANCH  20  21
HETATM   21  C19 UNL     1      -6.626  18.269  20.549  1.00  0.00     0.032 C 
BRANCH  21  22
HETATM   22  C20 UNL     1      -5.300  18.065  21.334  1.00  0.00     0.118 C 
BRANCH  22  23
HETATM   23  O3  UNL     1      -5.349  19.012  22.321  1.00  0.00    -0.396 OA
ATOM     24  H3  UNL     1      -4.491  19.419  22.294  1.00  0.00     0.210 HD
ENDBRANCH  22  23
BRANCH  22  25
HETATM   25  C21 UNL     1      -4.240  18.166  20.318  1.00  0.00     0.039 C 
BRANCH  25  26
HETATM   26  C22 UNL     1      -3.682  16.974  19.661  1.00  0.00     0.018 C 
BRANCH  26  27
HETATM   27  C23 UNL     1      -4.519  16.309  18.629  1.00  0.00     0.003 C 
HETATM   28  C24 UNL     1      -4.240  16.517  17.204  1.00  0.00     0.005 C 
ENDBRANCH  26  27
BRANCH  26  29
HETATM   29  C25 UNL     1      -2.900  16.102  20.564  1.00  0.00     0.148 C 
BRANCH  29  30
HETATM   30  O4  UNL     1      -2.321  14.976  20.036  1.00  0.00    -0.394 OA
ATOM     31  H4  UNL     1      -1.560  15.083  19.477  1.00  0.00     0.210 HD
ENDBRANCH  29  30
BRANCH  29  32
HETATM   32  C26 UNL     1      -1.956  16.867  21.476  1.00  0.00     0.264 C 
BRANCH  32  33
HETATM   33  N2  UNL     1      -1.956  16.212  22.754  1.00  0.00    -0.069 N 
ATOM     34  H22 UNL     1      -2.785  15.629  22.859  1.00  0.00     0.277 HD
ATOM     35  H21 UNL     1      -1.235  15.491  22.789  1.00  0.00     0.277 HD
BRANCH  33  36
HETATM   36  C27 UNL     1      -1.825  17.116  23.866  1.00  0.00     0.186 A 
HETATM   37  C28 UNL     1      -3.005  17.572  24.648  1.00  0.00     0.035 A 
HETATM   38  C29 UNL     1      -2.225  18.523  23.807  1.00  0.00     0.035 A 
ENDBRANCH  33  36
ENDBRANCH  32  33
ENDBRANCH  29  32
ENDBRANCH  26  29
ENDBRANCH  25  26
ENDBRANCH  22  25
ENDBRANCH  21  22
ENDBRANCH  20  21
ENDBRANCH  15  20
BRANCH   1  39
HETATM   39  N1  UNL     1      -8.639  15.999  30.099  1.00  0.00    -0.353 N 
HETATM   40  C3  UNL     1      -8.625  16.013  31.495  1.00  0.00     0.240 C 
HETATM   41  O1  UNL     1      -8.535  17.086  32.144  1.00  0.00    -0.269 OA
ATOM     42  H1  UNL     1      -8.712  15.101  29.622  1.00  0.00     0.163 HD
BRANCH  40  43
HETATM   43  C2  UNL     1      -8.714  14.769  32.239  1.00  0.00     0.064 C 
HETATM   44  C1  UNL     1      -8.682  14.752  33.564  1.00  0.00     0.017 C 
ENDBRANCH  40  43
ENDBRANCH   1  39
TORSDOF 14
ENDMDL
