MODEL 1
REMARK VINA RESULT: -8.822650701      0.000      0.000
REMARK  16 active torsions:
REMARK  status: ('A' for Active; 'I' for Inactive)
REMARK    1  A    between atoms: C8_8  and  C9_9 
REMARK    2  A    between atoms: C9_9  and  C22_32 
REMARK    3  A    between atoms: C10_10  and  C11_11 
REMARK    4  A    between atoms: C14_14  and  O1_15 
REMARK    5  A    between atoms: C16_18  and  C17_19 
REMARK    6  A    between atoms: C18_20  and  C19_21 
REMARK    7  A    between atoms: C19_21  and  N1_22 
REMARK    8  A    between atoms: C19_21  and  C20_26 
REMARK    9  A    between atoms: C21_29  and  O4_30 
REMARK   10  A    between atoms: C22_32  and  C23_33 
REMARK   11  A    between atoms: C23_33  and  C24_34 
REMARK   12  A    between atoms: C24_34  and  C25_35 
REMARK   13  A    between atoms: C25_35  and  C26_36 
REMARK   14  A    between atoms: C26_36  and  C27_37 
REMARK   15  A    between atoms: C27_37  and  C28_38 
REMARK   16  A    between atoms: C28_38  and  O6_40 
ROOT
HETATM    1  C9  UNL     1      -8.400  17.493  26.349  1.00  0.00    -0.055 C 
HETATM    2  C10 UNL     1      -9.258  17.510  27.315  1.00  0.00     0.007 C 
ENDROOT
BRANCH   1   3
HETATM    3  C8  UNL     1      -6.952  17.515  26.540  1.00  0.00    -0.065 C 
HETATM    4  C7  UNL     1      -6.519  17.720  28.007  1.00  0.00     0.036 C 
HETATM    5  C6  UNL     1      -5.046  17.277  27.768  1.00  0.00     0.010 C 
HETATM    6  C5  UNL     1      -4.742  18.207  26.664  1.00  0.00    -0.001 C 
HETATM    7  C4  UNL     1      -3.497  18.067  25.898  1.00  0.00     0.010 C 
HETATM    8  C30 UNL     1      -5.993  18.191  25.740  1.00  0.00    -0.013 C 
HETATM    9  C3  UNL     1      -3.450  19.335  25.015  1.00  0.00     0.034 C 
HETATM   10  C2  UNL     1      -4.667  20.142  25.176  1.00  0.00    -0.088 C 
HETATM   11  C1  UNL     1      -4.569  21.462  25.245  1.00  0.00     0.014 C 
HETATM   12  C32 UNL     1      -6.065  19.579  25.268  1.00  0.00     0.047 C 
HETATM   13  C31 UNL     1      -5.676  17.340  24.497  1.00  0.00     0.021 C 
ENDBRANCH   1   3
BRANCH   1  14
HETATM   14  C22 UNL     1      -8.977  17.415  24.980  1.00  0.00     0.039 C 
BRANCH  14  15
HETATM   15  C23 UNL     1      -8.909  16.112  24.313  1.00  0.00     0.005 C 
BRANCH  15  16
HETATM   16  C24 UNL     1     -10.333  15.606  24.022  1.00  0.00     0.000 C 
BRANCH  16  17
HETATM   17  C25 UNL     1     -10.431  14.929  22.701  1.00  0.00     0.000 C 
BRANCH  17  18
HETATM   18  C26 UNL     1     -10.808  15.929  21.642  1.00  0.00     0.010 C 
BRANCH  18  19
HETATM   19  C27 UNL     1      -9.881  15.981  20.471  1.00  0.00     0.111 C 
BRANCH  19  20
HETATM   20  C28 UNL     1      -8.607  16.692  20.815  1.00  0.00     0.258 C 
HETATM   21  O5  UNL     1      -8.619  17.963  20.898  1.00  0.00    -0.265 OA
BRANCH  20  22
HETATM   22  O6  UNL     1      -7.413  16.043  21.049  1.00  0.00    -0.326 OA
HETATM   23  C29 UNL     1      -6.173  16.532  20.565  1.00  0.00     0.213 C 
ENDBRANCH  20  22
ENDBRANCH  19  20
ENDBRANCH  18  19
ENDBRANCH  17  18
ENDBRANCH  16  17
ENDBRANCH  15  16
ENDBRANCH  14  15
ENDBRANCH   1  14
BRANCH   2  24
HETATM   24  C11 UNL     1     -10.677  17.493  27.202  1.00  0.00     0.006 C 
HETATM   25  C12 UNL     1     -11.363  16.413  27.638  1.00  0.00    -0.045 A 
HETATM   26  C13 UNL     1     -12.836  16.321  27.554  1.00  0.00     0.073 A 
HETATM   27  C21 UNL     1     -10.769  15.213  28.232  1.00  0.00     0.179 A 
HETATM   28  C14 UNL     1     -13.170  15.030  28.229  1.00  0.00     0.154 A 
HETATM   29  C15 UNL     1     -11.911  14.335  28.545  1.00  0.00    -0.019 A 
HETATM   30  C16 UNL     1     -11.825  13.116  29.030  1.00  0.00     0.008 C 
BRANCH  28  31
HETATM   31  O1  UNL     1     -13.910  15.290  29.384  1.00  0.00    -0.391 OA
ATOM     32  H1  UNL     1     -13.706  14.635  30.042  1.00  0.00     0.210 HD
ENDBRANCH  28  31
BRANCH  30  33
HETATM   33  C17 UNL     1     -13.038  12.354  29.290  1.00  0.00    -0.001 C 
HETATM   34  C18 UNL     1     -13.326  11.918  30.508  1.00  0.00     0.017 C 
BRANCH  34  35
HETATM   35  C19 UNL     1     -14.553  11.148  30.771  1.00  0.00     0.306 C 
BRANCH  35  36
HETATM   36  N1  UNL     1     -14.278  10.001  31.628  1.00  0.00    -0.062 N 
ATOM     37  H13 UNL     1     -13.389   9.559  31.391  1.00  0.00     0.275 HD
ATOM     38  H12 UNL     1     -14.058  10.288  32.581  1.00  0.00     0.275 HD
ATOM     39  H11 UNL     1     -15.048   9.332  31.604  1.00  0.00     0.275 HD
ENDBRANCH  35  36
BRANCH  35  40
HETATM   40  C20 UNL     1     -15.554  11.998  31.443  1.00  0.00     0.208 C 
HETATM   41  O2  UNL     1     -16.458  11.471  32.110  1.00  0.00    -0.646 OA
HETATM   42  O3  UNL     1     -15.534  13.384  31.363  1.00  0.00    -0.646 OA
ENDBRANCH  35  40
ENDBRANCH  34  35
ENDBRANCH  30  33
BRANCH  27  43
HETATM   43  O4  UNL     1     -10.001  14.594  27.240  1.00  0.00    -0.387 OA
ATOM     44  H4  UNL     1      -9.995  13.663  27.426  1.00  0.00     0.210 HD
ENDBRANCH  27  43
ENDBRANCH   2  24
TORSDOF 16
ENDMDL
MODEL 2
REMARK VINA RESULT: -8.569931455      2.974      3.324
REMARK  16 active torsions:
REMARK  status: ('A' for Active; 'I' for Inactive)
REMARK    1  A    between atoms: C8_8  and  C9_9 
REMARK    2  A    between atoms: C9_9  and  C22_32 
REMARK    3  A    between atoms: C10_10  and  C11_11 
REMARK    4  A    between atoms: C14_14  and  O1_15 
REMARK    5  A    between atoms: C16_18  and  C17_19 
REMARK    6  A    between atoms: C18_20  and  C19_21 
REMARK    7  A    between atoms: C19_21  and  N1_22 
REMARK    8  A    between atoms: C19_21  and  C20_26 
REMARK    9  A    between atoms: C21_29  and  O4_30 
REMARK   10  A    between atoms: C22_32  and  C23_33 
REMARK   11  A    between atoms: C23_33  and  C24_34 
REMARK   12  A    between atoms: C24_34  and  C25_35 
REMARK   13  A    between atoms: C25_35  and  C26_36 
REMARK   14  A    between atoms: C26_36  and  C27_37 
REMARK   15  A    between atoms: C27_37  and  C28_38 
REMARK   16  A    between atoms: C28_38  and  O6_40 
ROOT
HETATM    1  C9  UNL     1      -8.682  17.209  27.541  1.00  0.00    -0.055 C 
HETATM    2  C10 UNL     1      -8.704  16.055  28.123  1.00  0.00     0.007 C 
ENDROOT
BRANCH   1   3
HETATM    3  C8  UNL     1      -7.466  17.981  27.300  1.00  0.00    -0.065 C 
HETATM    4  C7  UNL     1      -7.616  19.489  27.588  1.00  0.00     0.036 C 
HETATM    5  C6  UNL     1      -6.084  19.770  27.595  1.00  0.00     0.010 C 
HETATM    6  C5  UNL     1      -5.777  19.194  26.273  1.00  0.00    -0.001 C 
HETATM    7  C4  UNL     1      -4.383  19.006  25.851  1.00  0.00     0.010 C 
HETATM    8  C30 UNL     1      -6.588  17.869  26.188  1.00  0.00    -0.013 C 
HETATM    9  C3  UNL     1      -4.486  18.609  24.362  1.00  0.00     0.034 C 
HETATM   10  C2  UNL     1      -5.888  18.466  23.944  1.00  0.00    -0.088 C 
HETATM   11  C1  UNL     1      -6.266  18.930  22.761  1.00  0.00     0.014 C 
HETATM   12  C32 UNL     1      -6.968  17.812  24.771  1.00  0.00     0.047 C 
HETATM   13  C31 UNL     1      -5.628  16.688  26.414  1.00  0.00     0.021 C 
ENDBRANCH   1   3
BRANCH   1  14
HETATM   14  C22 UNL     1     -10.002  17.720  27.082  1.00  0.00     0.039 C 
BRANCH  14  15
HETATM   15  C23 UNL     1     -10.205  17.804  25.633  1.00  0.00     0.005 C 
BRANCH  15  16
HETATM   16  C24 UNL     1     -10.853  16.503  25.126  1.00  0.00     0.000 C 
BRANCH  16  17
HETATM   17  C25 UNL     1      -9.851  15.557  24.566  1.00  0.00     0.000 C 
BRANCH  17  18
HETATM   18  C26 UNL     1     -10.247  15.161  23.170  1.00  0.00     0.010 C 
BRANCH  18  19
HETATM   19  C27 UNL     1     -10.443  16.304  22.227  1.00  0.00     0.111 C 
BRANCH  19  20
HETATM   20  C28 UNL     1      -9.150  16.713  21.589  1.00  0.00     0.258 C 
HETATM   21  O5  UNL     1      -9.115  17.797  20.920  1.00  0.00    -0.265 OA
BRANCH  20  22
HETATM   22  O6  UNL     1      -7.988  15.978  21.686  1.00  0.00    -0.326 OA
HETATM   23  C29 UNL     1      -7.029  15.929  20.642  1.00  0.00     0.213 C 
ENDBRANCH  20  22
ENDBRANCH  19  20
ENDBRANCH  18  19
ENDBRANCH  17  18
ENDBRANCH  16  17
ENDBRANCH  15  16
ENDBRANCH  14  15
ENDBRANCH   1  14
BRANCH   2  24
HETATM   24  C11 UNL     1      -9.848  15.252  28.391  1.00  0.00     0.006 C 
HETATM   25  C12 UNL     1     -10.281  15.120  29.666  1.00  0.00    -0.045 A 
HETATM   26  C13 UNL     1     -11.460  14.304  30.023  1.00  0.00     0.073 A 
HETATM   27  C21 UNL     1      -9.664  15.740  30.840  1.00  0.00     0.179 A 
HETATM   28  C14 UNL     1     -11.634  14.519  31.491  1.00  0.00     0.154 A 
HETATM   29  C15 UNL     1     -10.491  15.308  31.981  1.00  0.00    -0.019 A 
HETATM   30  C16 UNL     1     -10.249  15.579  33.244  1.00  0.00     0.008 C 
BRANCH  28  31
HETATM   31  O1  UNL     1     -12.842  15.178  31.723  1.00  0.00    -0.391 OA
ATOM     32  H1  UNL     1     -13.345  14.696  32.369  1.00  0.00     0.210 HD
ENDBRANCH  28  31
BRANCH  30  33
HETATM   33  C17 UNL     1     -11.149  15.084  34.275  1.00  0.00    -0.001 C 
HETATM   34  C18 UNL     1     -10.859  13.996  34.975  1.00  0.00     0.017 C 
BRANCH  34  35
HETATM   35  C19 UNL     1     -11.769  13.496  36.019  1.00  0.00     0.306 C 
BRANCH  35  36
HETATM   36  N1  UNL     1     -12.866  14.428  36.249  1.00  0.00    -0.062 N 
ATOM     37  H13 UNL     1     -12.672  15.049  37.035  1.00  0.00     0.275 HD
ATOM     38  H12 UNL     1     -12.925  15.129  35.510  1.00  0.00     0.275 HD
ATOM     39  H11 UNL     1     -13.749  13.933  36.369  1.00  0.00     0.275 HD
ENDBRANCH  35  36
BRANCH  35  40
HETATM   40  C20 UNL     1     -12.342  12.198  35.614  1.00  0.00     0.208 C 
HETATM   41  O2  UNL     1     -13.404  12.170  34.972  1.00  0.00    -0.646 OA
HETATM   42  O3  UNL     1     -11.741  10.985  35.922  1.00  0.00    -0.646 OA
ENDBRANCH  35  40
ENDBRANCH  34  35
ENDBRANCH  30  33
BRANCH  27  43
HETATM   43  O4  UNL     1      -8.390  15.178  30.985  1.00  0.00    -0.387 OA
ATOM     44  H4  UNL     1      -8.124  15.312  31.887  1.00  0.00     0.210 HD
ENDBRANCH  27  43
ENDBRANCH   2  24
TORSDOF 16
ENDMDL
MODEL 3
REMARK VINA RESULT: -8.457653133      2.883      3.589
REMARK  16 active torsions:
REMARK  status: ('A' for Active; 'I' for Inactive)
REMARK    1  A    between atoms: C8_8  and  C9_9 
REMARK    2  A    between atoms: C9_9  and  C22_32 
REMARK    3  A    between atoms: C10_10  and  C11_11 
REMARK    4  A    between atoms: C14_14  and  O1_15 
REMARK    5  A    between atoms: C16_18  and  C17_19 
REMARK    6  A    between atoms: C18_20  and  C19_21 
REMARK    7  A    between atoms: C19_21  and  N1_22 
REMARK    8  A    between atoms: C19_21  and  C20_26 
REMARK    9  A    between atoms: C21_29  and  O4_30 
REMARK   10  A    between atoms: C22_32  and  C23_33 
REMARK   11  A    between atoms: C23_33  and  C24_34 
REMARK   12  A    between atoms: C24_34  and  C25_35 
REMARK   13  A    between atoms: C25_35  and  C26_36 
REMARK   14  A    between atoms: C26_36  and  C27_37 
REMARK   15  A    between atoms: C27_37  and  C28_38 
REMARK   16  A    between atoms: C28_38  and  O6_40 
ROOT
HETATM    1  C9  UNL     1      -7.072  18.292  25.694  1.00  0.00    -0.055 C 
HETATM    2  C10 UNL     1      -7.696  18.372  26.823  1.00  0.00     0.007 C 
ENDROOT
BRANCH   1   3
HETATM    3  C8  UNL     1      -5.748  18.858  25.449  1.00  0.00    -0.065 C 
HETATM    4  C7  UNL     1      -5.753  20.384  25.220  1.00  0.00     0.036 C 
HETATM    5  C6  UNL     1      -4.218  20.547  25.418  1.00  0.00     0.010 C 
HETATM    6  C5  UNL     1      -3.788  19.549  24.420  1.00  0.00    -0.001 C 
HETATM    7  C4  UNL     1      -2.380  19.140  24.340  1.00  0.00     0.010 C 
HETATM    8  C30 UNL     1      -4.734  18.329  24.607  1.00  0.00    -0.013 C 
HETATM    9  C3  UNL     1      -2.306  18.283  23.056  1.00  0.00     0.034 C 
HETATM   10  C2  UNL     1      -3.636  18.107  22.456  1.00  0.00    -0.088 C 
HETATM   11  C1  UNL     1      -3.772  18.180  21.139  1.00  0.00     0.014 C 
HETATM   12  C32 UNL     1      -4.900  17.835  23.235  1.00  0.00     0.047 C 
HETATM   13  C31 UNL     1      -3.970  17.225  25.362  1.00  0.00     0.021 C 
ENDBRANCH   1   3
BRANCH   1  14
HETATM   14  C22 UNL     1      -7.780  17.541  24.622  1.00  0.00     0.039 C 
BRANCH  14  15
HETATM   15  C23 UNL     1      -7.662  16.081  24.657  1.00  0.00     0.005 C 
BRANCH  15  16
HETATM   16  C24 UNL     1      -9.065  15.450  24.700  1.00  0.00     0.000 C 
BRANCH  16  17
HETATM   17  C25 UNL     1     -10.061  16.242  23.929  1.00  0.00     0.000 C 
BRANCH  17  18
HETATM   18  C26 UNL     1     -10.559  15.437  22.760  1.00  0.00     0.010 C 
BRANCH  18  19
HETATM   19  C27 UNL     1     -10.484  16.136  21.441  1.00  0.00     0.111 C 
BRANCH  19  20
HETATM   20  C28 UNL     1      -9.088  16.592  21.143  1.00  0.00     0.258 C 
HETATM   21  O5  UNL     1      -8.894  17.820  20.860  1.00  0.00    -0.265 OA
BRANCH  20  22
HETATM   22  O6  UNL     1      -7.994  15.754  21.159  1.00  0.00    -0.326 OA
HETATM   23  C29 UNL     1      -6.763  16.097  20.543  1.00  0.00     0.213 C 
ENDBRANCH  20  22
ENDBRANCH  19  20
ENDBRANCH  18  19
ENDBRANCH  17  18
ENDBRANCH  16  17
ENDBRANCH  15  16
ENDBRANCH  14  15
ENDBRANCH   1  14
BRANCH   2  24
HETATM   24  C11 UNL     1      -8.984  17.847  27.130  1.00  0.00     0.006 C 
HETATM   25  C12 UNL     1      -9.158  17.149  28.274  1.00  0.00    -0.045 A 
HETATM   26  C13 UNL     1     -10.464  16.574  28.661  1.00  0.00     0.073 A 
HETATM   27  C21 UNL     1      -8.116  16.863  29.262  1.00  0.00     0.179 A 
HETATM   28  C14 UNL     1     -10.229  15.988  30.015  1.00  0.00     0.154 A 
HETATM   29  C15 UNL     1      -8.791  16.088  30.318  1.00  0.00    -0.019 A 
HETATM   30  C16 UNL     1      -8.205  15.561  31.370  1.00  0.00     0.008 C 
BRANCH  28  31
HETATM   31  O1  UNL     1     -10.995  16.676  30.958  1.00  0.00    -0.391 OA
ATOM     32  H1  UNL     1     -10.448  17.311  31.406  1.00  0.00     0.210 HD
ENDBRANCH  28  31
BRANCH  30  33
HETATM   33  C17 UNL     1      -8.993  14.812  32.338  1.00  0.00    -0.001 C 
HETATM   34  C18 UNL     1      -9.143  15.243  33.582  1.00  0.00     0.017 C 
BRANCH  34  35
HETATM   35  C19 UNL     1      -9.941  14.486  34.561  1.00  0.00     0.306 C 
BRANCH  35  36
HETATM   36  N1  UNL     1      -9.694  14.960  35.917  1.00  0.00    -0.062 N 
ATOM     37  H13 UNL     1      -9.518  14.187  36.560  1.00  0.00     0.275 HD
ATOM     38  H12 UNL     1      -8.793  15.431  35.992  1.00  0.00     0.275 HD
ATOM     39  H11 UNL     1     -10.457  15.554  36.243  1.00  0.00     0.275 HD
ENDBRANCH  35  36
BRANCH  35  40
HETATM   40  C20 UNL     1     -11.380  14.638  34.272  1.00  0.00     0.208 C 
HETATM   41  O2  UNL     1     -12.145  13.675  34.442  1.00  0.00    -0.646 OA
HETATM   42  O3  UNL     1     -11.929  15.826  33.809  1.00  0.00    -0.646 OA
ENDBRANCH  35  40
ENDBRANCH  34  35
ENDBRANCH  30  33
BRANCH  27  43
HETATM   43  O4  UNL     1      -7.174  16.033  28.644  1.00  0.00    -0.387 OA
ATOM     44  H4  UNL     1      -6.525  15.806  29.299  1.00  0.00     0.210 HD
ENDBRANCH  27  43
ENDBRANCH   2  24
TORSDOF 16
ENDMDL
MODEL 4
REMARK VINA RESULT: -8.399154692      4.103     10.957
REMARK  16 active torsions:
REMARK  status: ('A' for Active; 'I' for Inactive)
REMARK    1  A    between atoms: C8_8  and  C9_9 
REMARK    2  A    between atoms: C9_9  and  C22_32 
REMARK    3  A    between atoms: C10_10  and  C11_11 
REMARK    4  A    between atoms: C14_14  and  O1_15 
REMARK    5  A    between atoms: C16_18  and  C17_19 
REMARK    6  A    between atoms: C18_20  and  C19_21 
REMARK    7  A    between atoms: C19_21  and  N1_22 
REMARK    8  A    between atoms: C19_21  and  C20_26 
REMARK    9  A    between atoms: C21_29  and  O4_30 
REMARK   10  A    between atoms: C22_32  and  C23_33 
REMARK   11  A    between atoms: C23_33  and  C24_34 
REMARK   12  A    between atoms: C24_34  and  C25_35 
REMARK   13  A    between atoms: C25_35  and  C26_36 
REMARK   14  A    between atoms: C26_36  and  C27_37 
REMARK   15  A    between atoms: C27_37  and  C28_38 
REMARK   16  A    between atoms: C28_38  and  O6_40 
ROOT
HETATM    1  C9  UNL     1     -10.586  15.762  30.717  1.00  0.00    -0.055 C 
HETATM    2  C10 UNL     1     -10.355  16.680  29.836  1.00  0.00     0.007 C 
ENDROOT
BRANCH   1   3
HETATM    3  C8  UNL     1     -11.923  15.350  31.138  1.00  0.00    -0.065 C 
HETATM    4  C7  UNL     1     -12.102  15.280  32.669  1.00  0.00     0.036 C 
HETATM    5  C6  UNL     1     -13.656  15.224  32.613  1.00  0.00     0.010 C 
HETATM    6  C5  UNL     1     -13.775  14.072  31.699  1.00  0.00    -0.001 C 
HETATM    7  C4  UNL     1     -15.079  13.708  31.130  1.00  0.00     0.010 C 
HETATM    8  C30 UNL     1     -12.704  14.296  30.593  1.00  0.00    -0.013 C 
HETATM    9  C3  UNL     1     -14.825  12.352  30.435  1.00  0.00     0.034 C 
HETATM   10  C2  UNL     1     -13.406  11.977  30.502  1.00  0.00    -0.088 C 
HETATM   11  C1  UNL     1     -13.076  10.717  30.753  1.00  0.00     0.014 C 
HETATM   12  C32 UNL     1     -12.254  12.931  30.297  1.00  0.00     0.047 C 
HETATM   13  C31 UNL     1     -13.410  14.793  29.318  1.00  0.00     0.021 C 
ENDBRANCH   1   3
BRANCH   1  14
HETATM   14  C22 UNL     1      -9.381  15.097  31.281  1.00  0.00     0.039 C 
BRANCH  14  15
HETATM   15  C23 UNL     1      -8.534  15.910  32.159  1.00  0.00     0.005 C 
BRANCH  15  16
HETATM   16  C24 UNL     1      -8.387  15.215  33.524  1.00  0.00     0.000 C 
BRANCH  16  17
HETATM   17  C25 UNL     1      -9.079  15.958  34.611  1.00  0.00     0.000 C 
BRANCH  17  18
HETATM   18  C26 UNL     1      -9.719  14.988  35.565  1.00  0.00     0.010 C 
BRANCH  18  19
HETATM   19  C27 UNL     1     -10.041  13.652  34.978  1.00  0.00     0.111 C 
BRANCH  19  20
HETATM   20  C28 UNL     1     -11.248  13.046  35.629  1.00  0.00     0.258 C 
HETATM   21  O5  UNL     1     -12.226  13.807  35.930  1.00  0.00    -0.265 OA
BRANCH  20  22
HETATM   22  O6  UNL     1     -11.362  11.704  35.922  1.00  0.00    -0.326 OA
HETATM   23  C29 UNL     1     -12.583  10.995  35.784  1.00  0.00     0.213 C 
ENDBRANCH  20  22
ENDBRANCH  19  20
ENDBRANCH  18  19
ENDBRANCH  17  18
ENDBRANCH  16  17
ENDBRANCH  15  16
ENDBRANCH  14  15
ENDBRANCH   1  14
BRANCH   2  24
HETATM   24  C11 UNL     1      -9.084  17.131  29.382  1.00  0.00     0.006 C 
HETATM   25  C12 UNL     1      -8.715  16.892  28.103  1.00  0.00    -0.045 A 
HETATM   26  C13 UNL     1      -7.412  17.329  27.559  1.00  0.00     0.073 A 
HETATM   27  C21 UNL     1      -9.520  16.185  27.105  1.00  0.00     0.179 A 
HETATM   28  C14 UNL     1      -7.466  16.954  26.113  1.00  0.00     0.154 A 
HETATM   29  C15 UNL     1      -8.699  16.184  25.881  1.00  0.00    -0.019 A 
HETATM   30  C16 UNL     1      -9.014  15.588  24.753  1.00  0.00     0.008 C 
BRANCH  28  31
HETATM   31  O1  UNL     1      -7.436  18.112  25.333  1.00  0.00    -0.391 OA
ATOM     32  H1  UNL     1      -6.544  18.278  25.050  1.00  0.00     0.210 HD
ENDBRANCH  28  31
BRANCH  30  33
HETATM   33  C17 UNL     1      -8.106  15.664  23.617  1.00  0.00    -0.001 C 
HETATM   34  C18 UNL     1      -8.395  16.402  22.555  1.00  0.00     0.017 C 
BRANCH  34  35
HETATM   35  C19 UNL     1      -7.477  16.479  21.407  1.00  0.00     0.306 C 
BRANCH  35  36
HETATM   36  N1  UNL     1      -8.160  16.133  20.166  1.00  0.00    -0.062 N 
ATOM     37  H13 UNL     1      -8.368  15.136  20.117  1.00  0.00     0.275 HD
ATOM     38  H12 UNL     1      -9.115  16.491  20.150  1.00  0.00     0.275 HD
ATOM     39  H11 UNL     1      -7.627  16.447  19.355  1.00  0.00     0.275 HD
ENDBRANCH  35  36
BRANCH  35  40
HETATM   40  C20 UNL     1      -6.941  17.847  21.275  1.00  0.00     0.208 C 
HETATM   41  O2  UNL     1      -6.234  18.137  20.296  1.00  0.00    -0.646 OA
HETATM   42  O3  UNL     1      -7.192  18.843  22.209  1.00  0.00    -0.646 OA
ENDBRANCH  35  40
ENDBRANCH  34  35
ENDBRANCH  30  33
BRANCH  27  43
HETATM   43  O4  UNL     1      -9.655  14.862  27.542  1.00  0.00    -0.387 OA
ATOM     44  H4  UNL     1      -9.003  14.346  27.083  1.00  0.00     0.210 HD
ENDBRANCH  27  43
ENDBRANCH   2  24
TORSDOF 16
ENDMDL
MODEL 5
REMARK VINA RESULT: -8.389969227      3.741      7.960
REMARK  16 active torsions:
REMARK  status: ('A' for Active; 'I' for Inactive)
REMARK    1  A    between atoms: C8_8  and  C9_9 
REMARK    2  A    between atoms: C9_9  and  C22_32 
REMARK    3  A    between atoms: C10_10  and  C11_11 
REMARK    4  A    between atoms: C14_14  and  O1_15 
REMARK    5  A    between atoms: C16_18  and  C17_19 
REMARK    6  A    between atoms: C18_20  and  C19_21 
REMARK    7  A    between atoms: C19_21  and  N1_22 
REMARK    8  A    between atoms: C19_21  and  C20_26 
REMARK    9  A    between atoms: C21_29  and  O4_30 
REMARK   10  A    between atoms: C22_32  and  C23_33 
REMARK   11  A    between atoms: C23_33  and  C24_34 
REMARK   12  A    between atoms: C24_34  and  C25_35 
REMARK   13  A    between atoms: C25_35  and  C26_36 
REMARK   14  A    between atoms: C26_36  and  C27_37 
REMARK   15  A    between atoms: C27_37  and  C28_38 
REMARK   16  A    between atoms: C28_38  and  O6_40 
ROOT
HETATM    1  C9  UNL     1      -9.393  16.576  30.714  1.00  0.00    -0.055 C 
HETATM    2  C10 UNL     1     -10.570  16.047  30.800  1.00  0.00     0.007 C 
ENDROOT
BRANCH   1   3
HETATM    3  C8  UNL     1      -8.661  16.740  29.461  1.00  0.00    -0.065 C 
HETATM    4  C7  UNL     1      -8.184  18.184  29.201  1.00  0.00     0.036 C 
HETATM    5  C6  UNL     1      -7.184  17.787  28.076  1.00  0.00     0.010 C 
HETATM    6  C5  UNL     1      -8.137  17.050  27.224  1.00  0.00    -0.001 C 
HETATM    7  C4  UNL     1      -7.654  16.261  26.083  1.00  0.00     0.010 C 
HETATM    8  C30 UNL     1      -8.999  16.194  28.194  1.00  0.00    -0.013 C 
HETATM    9  C3  UNL     1      -8.942  15.850  25.334  1.00  0.00     0.034 C 
HETATM   10  C2  UNL     1     -10.142  16.289  26.057  1.00  0.00    -0.088 C 
HETATM   11  C1  UNL     1     -11.165  16.791  25.378  1.00  0.00     0.014 C 
HETATM   12  C32 UNL     1     -10.320  16.212  27.554  1.00  0.00     0.047 C 
HETATM   13  C31 UNL     1      -8.517  14.733  28.123  1.00  0.00     0.021 C 
ENDBRANCH   1   3
BRANCH   1  14
HETATM   14  C22 UNL     1      -8.811  17.057  31.996  1.00  0.00     0.039 C 
BRANCH  14  15
HETATM   15  C23 UNL     1      -7.616  16.358  32.475  1.00  0.00     0.005 C 
BRANCH  15  16
HETATM   16  C24 UNL     1      -8.026  15.046  33.167  1.00  0.00     0.000 C 
BRANCH  16  17
HETATM   17  C25 UNL     1      -8.827  15.286  34.398  1.00  0.00     0.000 C 
BRANCH  17  18
HETATM   18  C26 UNL     1      -9.747  14.122  34.643  1.00  0.00     0.010 C 
BRANCH  18  19
HETATM   19  C27 UNL     1     -10.473  14.161  35.949  1.00  0.00     0.111 C 
BRANCH  19  20
HETATM   20  C28 UNL     1     -11.562  13.133  35.999  1.00  0.00     0.258 C 
HETATM   21  O5  UNL     1     -11.289  11.936  35.657  1.00  0.00    -0.265 OA
BRANCH  20  22
HETATM   22  O6  UNL     1     -12.853  13.410  36.397  1.00  0.00    -0.326 OA
HETATM   23  C29 UNL     1     -13.637  12.486  37.135  1.00  0.00     0.213 C 
ENDBRANCH  20  22
ENDBRANCH  19  20
ENDBRANCH  18  19
ENDBRANCH  17  18
ENDBRANCH  16  17
ENDBRANCH  15  16
ENDBRANCH  14  15
ENDBRANCH   1  14
BRANCH   2  24
HETATM   24  C11 UNL     1     -11.339  15.855  31.983  1.00  0.00     0.006 C 
HETATM   25  C12 UNL     1     -12.330  14.935  31.986  1.00  0.00    -0.045 A 
HETATM   26  C13 UNL     1     -13.171  14.679  33.174  1.00  0.00     0.073 A 
HETATM   27  C21 UNL     1     -12.709  14.091  30.851  1.00  0.00     0.179 A 
HETATM   28  C14 UNL     1     -14.050  13.539  32.773  1.00  0.00     0.154 A 
HETATM   29  C15 UNL     1     -13.823  13.263  31.344  1.00  0.00    -0.019 A 
HETATM   30  C16 UNL     1     -14.515  12.408  30.624  1.00  0.00     0.008 C 
BRANCH  28  31
HETATM   31  O1  UNL     1     -13.752  12.425  33.559  1.00  0.00    -0.391 OA
ATOM     32  H1  UNL     1     -13.925  12.627  34.471  1.00  0.00     0.210 HD
ENDBRANCH  28  31
BRANCH  30  33
HETATM   33  C17 UNL     1     -15.598  11.654  31.239  1.00  0.00    -0.001 C 
HETATM   34  C18 UNL     1     -15.484  10.354  31.471  1.00  0.00     0.017 C 
BRANCH  34  35
HETATM   35  C19 UNL     1     -16.579   9.592  32.093  1.00  0.00     0.306 C 
BRANCH  35  36
HETATM   36  N1  UNL     1     -16.127   8.270  32.509  1.00  0.00    -0.062 N 
ATOM     37  H13 UNL     1     -15.424   8.328  33.246  1.00  0.00     0.275 HD
ATOM     38  H12 UNL     1     -16.851   7.770  33.024  1.00  0.00     0.275 HD
ATOM     39  H11 UNL     1     -15.793   7.729  31.711  1.00  0.00     0.275 HD
ENDBRANCH  35  36
BRANCH  35  40
HETATM   40  C20 UNL     1     -17.084  10.304  33.283  1.00  0.00     0.208 C 
HETATM   41  O2  UNL     1     -18.284  10.615  33.348  1.00  0.00    -0.646 OA
HETATM   42  O3  UNL     1     -16.267  10.651  34.350  1.00  0.00    -0.646 OA
ENDBRANCH  35  40
ENDBRANCH  34  35
ENDBRANCH  30  33
BRANCH  27  43
HETATM   43  O4  UNL     1     -13.201  14.936  29.850  1.00  0.00    -0.387 OA
ATOM     44  H4  UNL     1     -14.059  14.612  29.603  1.00  0.00     0.210 HD
ENDBRANCH  27  43
ENDBRANCH   2  24
TORSDOF 16
ENDMDL
