MODEL 1
REMARK VINA RESULT: -8.488304858      0.000      0.000
REMARK  16 active torsions:
REMARK  status: ('A' for Active; 'I' for Inactive)
REMARK    1  A    between atoms: C2_2  and  S1_5 
REMARK    2  A    between atoms: S1_5  and  C5_6 
REMARK    3  A    between atoms: C5_6  and  C6_7 
REMARK    4  A    between atoms: C6_7  and  C7_8 
REMARK    5  A    between atoms: C7_8  and  C8_9 
REMARK    6  A    between atoms: C13_14  and  C14_15 
REMARK    7  A    between atoms: C14_15  and  C15_16 
REMARK    8  A    between atoms: C16_17  and  C17_18 
REMARK    9  A    between atoms: C17_18  and  C18_19 
REMARK   10  A    between atoms: C18_19  and  C19_20 
REMARK   11  A    between atoms: C19_20  and  C20_21 
REMARK       I    between atoms: C20_21  and  N1_23 
REMARK   12  A    between atoms: N1_23  and  C21_25 
REMARK   13  A    between atoms: C23_27  and  O2_28 
REMARK   14  A    between atoms: C28_34  and  O3_35 
REMARK   15  A    between atoms: C29_37  and  C31_39 
REMARK   16  A    between atoms: C31_39  and  O4_40 
ROOT
HETATM    1  C8  UNL     1     -10.492  16.164  27.413  1.00  0.00    -0.028 C 
HETATM    2  C9  UNL     1     -11.589  17.109  27.948  1.00  0.00     0.016 C 
HETATM    3  C10 UNL     1     -10.257  16.771  26.034  1.00  0.00     0.003 C 
HETATM    4  C11 UNL     1     -11.443  16.809  25.143  1.00  0.00     0.006 C 
HETATM    5  C12 UNL     1     -11.042  16.170  23.814  1.00  0.00     0.006 C 
HETATM    6  C13 UNL     1      -9.774  15.359  24.193  1.00  0.00    -0.003 C 
HETATM    7  C25 UNL     1      -9.119  16.228  25.232  1.00  0.00    -0.033 C 
HETATM    8  C26 UNL     1      -8.548  17.424  24.463  1.00  0.00     0.016 C 
HETATM    9  C27 UNL     1      -8.027  15.612  26.003  1.00  0.00     0.042 C 
HETATM   10  C28 UNL     1      -8.133  15.540  27.461  1.00  0.00     0.130 C 
HETATM   11  C29 UNL     1      -9.205  16.355  28.145  1.00  0.00     0.011 C 
HETATM   12  C30 UNL     1      -9.254  15.814  29.586  1.00  0.00     0.021 C 
ENDROOT
BRANCH   6  13
HETATM   13  C14 UNL     1      -9.088  15.037  22.935  1.00  0.00     0.032 C 
BRANCH  13  14
HETATM   14  C15 UNL     1      -9.595  15.579  21.686  1.00  0.00    -0.030 C 
HETATM   15  C16 UNL     1      -8.873  16.180  20.789  1.00  0.00    -0.031 C 
BRANCH  15  16
HETATM   16  C17 UNL     1      -7.432  16.460  20.798  1.00  0.00     0.027 C 
BRANCH  16  17
HETATM   17  C18 UNL     1      -7.105  17.905  21.027  1.00  0.00     0.013 C 
BRANCH  17  18
HETATM   18  C19 UNL     1      -5.646  18.165  21.259  1.00  0.00     0.103 C 
BRANCH  18  19
HETATM   19  C20 UNL     1      -5.312  18.809  22.521  1.00  0.00     0.217 C 
HETATM   20  O1  UNL     1      -5.543  20.010  22.771  1.00  0.00    -0.274 OA
HETATM   21  N1  UNL     1      -4.684  18.042  23.544  1.00  0.00    -0.356 N 
ATOM     22  H1  UNL     1      -4.484  17.056  23.372  1.00  0.00     0.162 HD
BRANCH  21  23
HETATM   23  C21 UNL     1      -4.327  18.613  24.806  1.00  0.00     0.089 C 
HETATM   24  C22 UNL     1      -5.309  18.339  25.928  1.00  0.00     0.057 C 
HETATM   25  C23 UNL     1      -4.167  17.920  26.814  1.00  0.00     0.122 C 
HETATM   26  C24 UNL     1      -3.273  17.898  25.590  1.00  0.00     0.057 C 
BRANCH  25  27
HETATM   27  O2  UNL     1      -4.328  16.665  27.367  1.00  0.00    -0.395 OA
ATOM     28  H2  UNL     1      -3.534  16.143  27.361  1.00  0.00     0.210 HD
ENDBRANCH  25  27
ENDBRANCH  21  23
ENDBRANCH  18  19
ENDBRANCH  17  18
ENDBRANCH  16  17
ENDBRANCH  15  16
ENDBRANCH  13  14
ENDBRANCH   6  13
BRANCH   1  29
HETATM   29  C7  UNL     1     -10.969  14.795  27.258  1.00  0.00     0.011 C 
BRANCH  29  30
HETATM   30  C6  UNL     1     -12.260  14.301  27.732  1.00  0.00     0.011 C 
BRANCH  30  31
HETATM   31  C5  UNL     1     -12.324  13.188  28.709  1.00  0.00     0.075 C 
BRANCH  31  32
HETATM   32  S1  UNL     1     -12.560  13.985  30.357  1.00  0.00    -0.160 SA
BRANCH  32  33
HETATM   33  C2  UNL     1     -14.110  13.327  31.018  1.00  0.00    -0.003 C 
HETATM   34  C1  UNL     1     -15.259  14.238  30.690  1.00  0.00     0.026 C 
HETATM   35  C3  UNL     1     -14.383  12.015  30.268  1.00  0.00     0.026 C 
HETATM   36  C4  UNL     1     -14.070  13.091  32.495  1.00  0.00     0.026 C 
ENDBRANCH  32  33
ENDBRANCH  31  32
ENDBRANCH  30  31
ENDBRANCH  29  30
ENDBRANCH   1  29
BRANCH  10  37
HETATM   37  O3  UNL     1      -6.916  15.928  28.077  1.00  0.00    -0.395 OA
ATOM     38  H3  UNL     1      -6.179  15.479  27.680  1.00  0.00     0.210 HD
ENDBRANCH  10  37
BRANCH  11  39
HETATM   39  C31 UNL     1      -8.703  17.739  28.283  1.00  0.00     0.176 C 
BRANCH  39  40
HETATM   40  O4  UNL     1      -8.455  18.172  29.584  1.00  0.00    -0.400 OA
ATOM     41  H4  UNL     1      -7.999  19.002  29.667  1.00  0.00     0.209 HD
ENDBRANCH  39  40
ENDBRANCH  11  39
TORSDOF 16
ENDMDL
MODEL 2
REMARK VINA RESULT: -8.333136111      0.750      1.060
REMARK  16 active torsions:
REMARK  status: ('A' for Active; 'I' for Inactive)
REMARK    1  A    between atoms: C2_2  and  S1_5 
REMARK    2  A    between atoms: S1_5  and  C5_6 
REMARK    3  A    between atoms: C5_6  and  C6_7 
REMARK    4  A    between atoms: C6_7  and  C7_8 
REMARK    5  A    between atoms: C7_8  and  C8_9 
REMARK    6  A    between atoms: C13_14  and  C14_15 
REMARK    7  A    between atoms: C14_15  and  C15_16 
REMARK    8  A    between atoms: C16_17  and  C17_18 
REMARK    9  A    between atoms: C17_18  and  C18_19 
REMARK   10  A    between atoms: C18_19  and  C19_20 
REMARK   11  A    between atoms: C19_20  and  C20_21 
REMARK       I    between atoms: C20_21  and  N1_23 
REMARK   12  A    between atoms: N1_23  and  C21_25 
REMARK   13  A    between atoms: C23_27  and  O2_28 
REMARK   14  A    between atoms: C28_34  and  O3_35 
REMARK   15  A    between atoms: C29_37  and  C31_39 
REMARK   16  A    between atoms: C31_39  and  O4_40 
ROOT
HETATM    1  C8  UNL     1     -10.577  16.072  27.532  1.00  0.00    -0.028 C 
HETATM    2  C9  UNL     1     -11.707  16.976  28.067  1.00  0.00     0.016 C 
HETATM    3  C10 UNL     1     -10.316  16.729  26.182  1.00  0.00     0.003 C 
HETATM    4  C11 UNL     1     -11.477  16.774  25.259  1.00  0.00     0.006 C 
HETATM    5  C12 UNL     1     -11.027  16.188  23.922  1.00  0.00     0.006 C 
HETATM    6  C13 UNL     1      -9.753  15.390  24.309  1.00  0.00    -0.003 C 
HETATM    7  C25 UNL     1      -9.145  16.236  25.395  1.00  0.00    -0.033 C 
HETATM    8  C26 UNL     1      -8.578  17.468  24.682  1.00  0.00     0.016 C 
HETATM    9  C27 UNL     1      -8.062  15.615  26.176  1.00  0.00     0.042 C 
HETATM   10  C28 UNL     1      -8.208  15.493  27.627  1.00  0.00     0.130 C 
HETATM   11  C29 UNL     1      -9.314  16.263  28.307  1.00  0.00     0.011 C 
HETATM   12  C30 UNL     1      -9.392  15.673  29.727  1.00  0.00     0.021 C 
ENDROOT
BRANCH   6  13
HETATM   13  C14 UNL     1      -9.026  15.124  23.062  1.00  0.00     0.032 C 
BRANCH  13  14
HETATM   14  C15 UNL     1      -9.686  15.354  21.787  1.00  0.00    -0.030 C 
HETATM   15  C16 UNL     1      -9.368  16.290  20.944  1.00  0.00    -0.031 C 
BRANCH  15  16
HETATM   16  C17 UNL     1      -8.317  17.309  21.048  1.00  0.00     0.027 C 
BRANCH  16  17
HETATM   17  C18 UNL     1      -6.929  16.745  20.992  1.00  0.00     0.013 C 
BRANCH  17  18
HETATM   18  C19 UNL     1      -5.883  17.749  20.609  1.00  0.00     0.103 C 
BRANCH  18  19
HETATM   19  C20 UNL     1      -5.035  18.225  21.692  1.00  0.00     0.217 C 
HETATM   20  O1  UNL     1      -4.040  18.959  21.525  1.00  0.00    -0.274 OA
HETATM   21  N1  UNL     1      -5.343  17.844  23.029  1.00  0.00    -0.356 N 
ATOM     22  H1  UNL     1      -6.152  17.246  23.200  1.00  0.00     0.162 HD
BRANCH  21  23
HETATM   23  C21 UNL     1      -4.551  18.275  24.139  1.00  0.00     0.089 C 
HETATM   24  C22 UNL     1      -5.156  19.403  24.952  1.00  0.00     0.057 C 
HETATM   25  C23 UNL     1      -4.880  18.631  26.214  1.00  0.00     0.122 C 
HETATM   26  C24 UNL     1      -4.586  17.413  25.362  1.00  0.00     0.057 C 
BRANCH  25  27
HETATM   27  O2  UNL     1      -5.996  18.456  27.009  1.00  0.00    -0.395 OA
ATOM     28  H2  UNL     1      -6.022  19.037  27.760  1.00  0.00     0.210 HD
ENDBRANCH  25  27
ENDBRANCH  21  23
ENDBRANCH  18  19
ENDBRANCH  17  18
ENDBRANCH  16  17
ENDBRANCH  15  16
ENDBRANCH  13  14
ENDBRANCH   6  13
BRANCH   1  29
HETATM   29  C7  UNL     1     -11.021  14.700  27.318  1.00  0.00     0.011 C 
BRANCH  29  30
HETATM   30  C6  UNL     1     -12.313  14.164  27.744  1.00  0.00     0.011 C 
BRANCH  30  31
HETATM   31  C5  UNL     1     -12.377  13.027  28.692  1.00  0.00     0.075 C 
BRANCH  31  32
HETATM   32  S1  UNL     1     -12.593  13.784  30.362  1.00  0.00    -0.160 SA
BRANCH  32  33
HETATM   33  C2  UNL     1     -14.234  13.284  30.933  1.00  0.00    -0.003 C 
HETATM   34  C1  UNL     1     -14.636  11.973  30.319  1.00  0.00     0.026 C 
HETATM   35  C3  UNL     1     -14.112  13.024  32.441  1.00  0.00     0.026 C 
HETATM   36  C4  UNL     1     -15.293  14.305  30.658  1.00  0.00     0.026 C 
ENDBRANCH  32  33
ENDBRANCH  31  32
ENDBRANCH  30  31
ENDBRANCH  29  30
ENDBRANCH   1  29
BRANCH  10  37
HETATM   37  O3  UNL     1      -7.017  15.883  28.289  1.00  0.00    -0.395 OA
ATOM     38  H3  UNL     1      -7.214  16.330  29.104  1.00  0.00     0.210 HD
ENDBRANCH  10  37
BRANCH  11  39
HETATM   39  C31 UNL     1      -8.845  17.651  28.504  1.00  0.00     0.176 C 
BRANCH  39  40
HETATM   40  O4  UNL     1      -8.712  18.068  29.828  1.00  0.00    -0.400 OA
ATOM     41  H4  UNL     1      -8.056  18.736  29.990  1.00  0.00     0.209 HD
ENDBRANCH  39  40
ENDBRANCH  11  39
TORSDOF 16
ENDMDL
MODEL 3
REMARK VINA RESULT: -8.018169894      4.181      9.758
REMARK  16 active torsions:
REMARK  status: ('A' for Active; 'I' for Inactive)
REMARK    1  A    between atoms: C2_2  and  S1_5 
REMARK    2  A    between atoms: S1_5  and  C5_6 
REMARK    3  A    between atoms: C5_6  and  C6_7 
REMARK    4  A    between atoms: C6_7  and  C7_8 
REMARK    5  A    between atoms: C7_8  and  C8_9 
REMARK    6  A    between atoms: C13_14  and  C14_15 
REMARK    7  A    between atoms: C14_15  and  C15_16 
REMARK    8  A    between atoms: C16_17  and  C17_18 
REMARK    9  A    between atoms: C17_18  and  C18_19 
REMARK   10  A    between atoms: C18_19  and  C19_20 
REMARK   11  A    between atoms: C19_20  and  C20_21 
REMARK       I    between atoms: C20_21  and  N1_23 
REMARK   12  A    between atoms: N1_23  and  C21_25 
REMARK   13  A    between atoms: C23_27  and  O2_28 
REMARK   14  A    between atoms: C28_34  and  O3_35 
REMARK   15  A    between atoms: C29_37  and  C31_39 
REMARK   16  A    between atoms: C31_39  and  O4_40 
ROOT
HETATM    1  C8  UNL     1     -10.084  16.588  28.023  1.00  0.00    -0.028 C 
HETATM    2  C9  UNL     1     -10.178  18.042  27.514  1.00  0.00     0.016 C 
HETATM    3  C10 UNL     1     -10.096  16.824  29.529  1.00  0.00     0.003 C 
HETATM    4  C11 UNL     1      -8.994  17.669  30.051  1.00  0.00     0.006 C 
HETATM    5  C12 UNL     1      -8.331  16.906  31.198  1.00  0.00     0.006 C 
HETATM    6  C13 UNL     1      -8.791  15.445  30.947  1.00  0.00    -0.003 C 
HETATM    7  C25 UNL     1     -10.185  15.619  30.409  1.00  0.00    -0.033 C 
HETATM    8  C26 UNL     1     -11.034  16.048  31.610  1.00  0.00     0.016 C 
HETATM    9  C27 UNL     1     -10.806  14.428  29.807  1.00  0.00     0.042 C 
HETATM   10  C28 UNL     1     -11.254  14.483  28.414  1.00  0.00     0.130 C 
HETATM   11  C29 UNL     1     -11.339  15.830  27.738  1.00  0.00     0.011 C 
HETATM   12  C30 UNL     1     -11.516  15.512  26.243  1.00  0.00     0.021 C 
ENDROOT
BRANCH   6  13
HETATM   13  C14 UNL     1      -8.548  14.706  32.193  1.00  0.00     0.032 C 
BRANCH  13  14
HETATM   14  C15 UNL     1      -7.819  15.349  33.273  1.00  0.00    -0.030 C 
HETATM   15  C16 UNL     1      -8.350  15.765  34.383  1.00  0.00    -0.031 C 
BRANCH  15  16
HETATM   16  C17 UNL     1      -9.750  15.702  34.818  1.00  0.00     0.027 C 
BRANCH  16  17
HETATM   17  C18 UNL     1     -10.024  14.597  35.794  1.00  0.00     0.013 C 
BRANCH  17  18
HETATM   18  C19 UNL     1     -10.728  13.418  35.190  1.00  0.00     0.103 C 
BRANCH  18  19
HETATM   19  C20 UNL     1     -12.128  13.624  34.848  1.00  0.00     0.217 C 
HETATM   20  O1  UNL     1     -12.995  13.998  35.665  1.00  0.00    -0.274 OA
HETATM   21  N1  UNL     1     -12.554  13.391  33.509  1.00  0.00    -0.356 N 
ATOM     22  H1  UNL     1     -11.869  13.086  32.817  1.00  0.00     0.162 HD
BRANCH  21  23
HETATM   23  C21 UNL     1     -13.915  13.572  33.107  1.00  0.00     0.089 C 
HETATM   24  C22 UNL     1     -14.270  14.985  32.686  1.00  0.00     0.057 C 
HETATM   25  C23 UNL     1     -14.921  14.442  31.443  1.00  0.00     0.122 C 
HETATM   26  C24 UNL     1     -14.276  13.102  31.734  1.00  0.00     0.057 C 
BRANCH  25  27
HETATM   27  O2  UNL     1     -14.444  15.010  30.277  1.00  0.00    -0.395 OA
ATOM     28  H2  UNL     1     -14.592  15.947  30.224  1.00  0.00     0.210 HD
ENDBRANCH  25  27
ENDBRANCH  21  23
ENDBRANCH  18  19
ENDBRANCH  17  18
ENDBRANCH  16  17
ENDBRANCH  15  16
ENDBRANCH  13  14
ENDBRANCH   6  13
BRANCH   1  29
HETATM   29  C7  UNL     1      -8.827  15.951  27.648  1.00  0.00     0.011 C 
BRANCH  29  30
HETATM   30  C6  UNL     1      -7.926  16.432  26.602  1.00  0.00     0.011 C 
BRANCH  30  31
HETATM   31  C5  UNL     1      -7.955  15.823  25.251  1.00  0.00     0.075 C 
BRANCH  31  32
HETATM   32  S1  UNL     1      -8.661  17.115  24.138  1.00  0.00    -0.160 SA
BRANCH  32  33
HETATM   33  C2  UNL     1      -9.079  16.275  22.592  1.00  0.00    -0.003 C 
HETATM   34  C1  UNL     1      -8.253  15.032  22.420  1.00  0.00     0.026 C 
HETATM   35  C3  UNL     1     -10.532  15.801  22.731  1.00  0.00     0.026 C 
HETATM   36  C4  UNL     1      -8.922  17.145  21.384  1.00  0.00     0.026 C 
ENDBRANCH  32  33
ENDBRANCH  31  32
ENDBRANCH  30  31
ENDBRANCH  29  30
ENDBRANCH   1  29
BRANCH  10  37
HETATM   37  O3  UNL     1     -12.544  13.911  28.276  1.00  0.00    -0.395 OA
ATOM     38  H3  UNL     1     -13.218  14.578  28.342  1.00  0.00     0.210 HD
ENDBRANCH  10  37
BRANCH  11  39
HETATM   39  C31 UNL     1     -12.615  16.459  28.140  1.00  0.00     0.176 C 
BRANCH  39  40
HETATM   40  O4  UNL     1     -13.737  16.092  27.398  1.00  0.00    -0.400 OA
ATOM     41  H4  UNL     1     -13.668  15.275  26.917  1.00  0.00     0.209 HD
ENDBRANCH  39  40
ENDBRANCH  11  39
TORSDOF 16
ENDMDL
MODEL 4
REMARK VINA RESULT: -7.887872534      4.081     10.157
REMARK  16 active torsions:
REMARK  status: ('A' for Active; 'I' for Inactive)
REMARK    1  A    between atoms: C2_2  and  S1_5 
REMARK    2  A    between atoms: S1_5  and  C5_6 
REMARK    3  A    between atoms: C5_6  and  C6_7 
REMARK    4  A    between atoms: C6_7  and  C7_8 
REMARK    5  A    between atoms: C7_8  and  C8_9 
REMARK    6  A    between atoms: C13_14  and  C14_15 
REMARK    7  A    between atoms: C14_15  and  C15_16 
REMARK    8  A    between atoms: C16_17  and  C17_18 
REMARK    9  A    between atoms: C17_18  and  C18_19 
REMARK   10  A    between atoms: C18_19  and  C19_20 
REMARK   11  A    between atoms: C19_20  and  C20_21 
REMARK       I    between atoms: C20_21  and  N1_23 
REMARK   12  A    between atoms: N1_23  and  C21_25 
REMARK   13  A    between atoms: C23_27  and  O2_28 
REMARK   14  A    between atoms: C28_34  and  O3_35 
REMARK   15  A    between atoms: C29_37  and  C31_39 
REMARK   16  A    between atoms: C31_39  and  O4_40 
ROOT
HETATM    1  C8  UNL     1      -9.245  16.831  28.306  1.00  0.00    -0.028 C 
HETATM    2  C9  UNL     1      -9.340  18.305  27.857  1.00  0.00     0.016 C 
HETATM    3  C10 UNL     1      -9.631  16.967  29.774  1.00  0.00     0.003 C 
HETATM    4  C11 UNL     1      -8.760  17.853  30.584  1.00  0.00     0.006 C 
HETATM    5  C12 UNL     1      -8.324  17.067  31.820  1.00  0.00     0.006 C 
HETATM    6  C13 UNL     1      -8.584  15.596  31.399  1.00  0.00    -0.003 C 
HETATM    7  C25 UNL     1      -9.823  15.704  30.551  1.00  0.00    -0.033 C 
HETATM    8  C26 UNL     1     -10.964  15.992  31.531  1.00  0.00     0.016 C 
HETATM    9  C27 UNL     1     -10.180  14.513  29.763  1.00  0.00     0.042 C 
HETATM   10  C28 UNL     1     -10.290  14.626  28.308  1.00  0.00     0.130 C 
HETATM   11  C29 UNL     1     -10.328  16.005  27.693  1.00  0.00     0.011 C 
HETATM   12  C30 UNL     1     -10.119  15.773  26.186  1.00  0.00     0.021 C 
ENDROOT
BRANCH   6  13
HETATM   13  C14 UNL     1      -8.580  14.798  32.631  1.00  0.00     0.032 C 
BRANCH  13  14
HETATM   14  C15 UNL     1      -8.477  15.468  33.917  1.00  0.00    -0.030 C 
HETATM   15  C16 UNL     1      -9.204  15.196  34.957  1.00  0.00    -0.031 C 
BRANCH  15  16
HETATM   16  C17 UNL     1     -10.267  14.194  35.106  1.00  0.00     0.027 C 
BRANCH  16  17
HETATM   17  C18 UNL     1     -11.647  14.778  35.076  1.00  0.00     0.013 C 
BRANCH  17  18
HETATM   18  C19 UNL     1     -12.722  13.810  35.473  1.00  0.00     0.103 C 
BRANCH  18  19
HETATM   19  C20 UNL     1     -13.618  13.386  34.407  1.00  0.00     0.217 C 
HETATM   20  O1  UNL     1     -14.599  12.634  34.581  1.00  0.00    -0.274 OA
HETATM   21  N1  UNL     1     -13.380  13.847  33.080  1.00  0.00    -0.356 N 
ATOM     22  H1  UNL     1     -12.587  14.465  32.905  1.00  0.00     0.162 HD
BRANCH  21  23
HETATM   23  C21 UNL     1     -14.220  13.467  31.986  1.00  0.00     0.089 C 
HETATM   24  C22 UNL     1     -14.994  14.607  31.355  1.00  0.00     0.057 C 
HETATM   25  C23 UNL     1     -14.547  14.147  29.994  1.00  0.00     0.122 C 
HETATM   26  C24 UNL     1     -13.545  13.235  30.672  1.00  0.00     0.057 C 
BRANCH  25  27
HETATM   27  O2  UNL     1     -13.934  15.136  29.250  1.00  0.00    -0.395 OA
ATOM     28  H2  UNL     1     -14.461  15.921  29.156  1.00  0.00     0.210 HD
ENDBRANCH  25  27
ENDBRANCH  21  23
ENDBRANCH  18  19
ENDBRANCH  17  18
ENDBRANCH  16  17
ENDBRANCH  15  16
ENDBRANCH  13  14
ENDBRANCH   6  13
BRANCH   1  29
HETATM   29  C7  UNL     1      -7.885  16.312  28.215  1.00  0.00     0.011 C 
BRANCH  29  30
HETATM   30  C6  UNL     1      -6.863  16.805  27.293  1.00  0.00     0.011 C 
BRANCH  30  31
HETATM   31  C5  UNL     1      -5.782  17.695  27.779  1.00  0.00     0.075 C 
BRANCH  31  32
HETATM   32  S1  UNL     1      -6.015  19.293  26.884  1.00  0.00    -0.160 SA
BRANCH  32  33
HETATM   33  C2  UNL     1      -4.939  19.219  25.433  1.00  0.00    -0.003 C 
HETATM   34  C1  UNL     1      -4.471  20.594  25.046  1.00  0.00     0.026 C 
HETATM   35  C3  UNL     1      -3.682  18.449  25.859  1.00  0.00     0.026 C 
HETATM   36  C4  UNL     1      -5.584  18.565  24.251  1.00  0.00     0.026 C 
ENDBRANCH  32  33
ENDBRANCH  31  32
ENDBRANCH  30  31
ENDBRANCH  29  30
ENDBRANCH   1  29
BRANCH  10  37
HETATM   37  O3  UNL     1     -11.458  13.974  27.838  1.00  0.00    -0.395 OA
ATOM     38  H3  UNL     1     -12.205  14.559  27.862  1.00  0.00     0.210 HD
ENDBRANCH  10  37
BRANCH  11  39
HETATM   39  C31 UNL     1     -11.712  16.513  27.805  1.00  0.00     0.176 C 
BRANCH  39  40
HETATM   40  O4  UNL     1     -12.500  16.394  26.662  1.00  0.00    -0.400 OA
ATOM     41  H4  UNL     1     -12.092  16.659  25.846  1.00  0.00     0.209 HD
ENDBRANCH  39  40
ENDBRANCH  11  39
TORSDOF 16
ENDMDL
MODEL 5
REMARK VINA RESULT: -7.829955265      1.032      1.390
REMARK  16 active torsions:
REMARK  status: ('A' for Active; 'I' for Inactive)
REMARK    1  A    between atoms: C2_2  and  S1_5 
REMARK    2  A    between atoms: S1_5  and  C5_6 
REMARK    3  A    between atoms: C5_6  and  C6_7 
REMARK    4  A    between atoms: C6_7  and  C7_8 
REMARK    5  A    between atoms: C7_8  and  C8_9 
REMARK    6  A    between atoms: C13_14  and  C14_15 
REMARK    7  A    between atoms: C14_15  and  C15_16 
REMARK    8  A    between atoms: C16_17  and  C17_18 
REMARK    9  A    between atoms: C17_18  and  C18_19 
REMARK   10  A    between atoms: C18_19  and  C19_20 
REMARK   11  A    between atoms: C19_20  and  C20_21 
REMARK       I    between atoms: C20_21  and  N1_23 
REMARK   12  A    between atoms: N1_23  and  C21_25 
REMARK   13  A    between atoms: C23_27  and  O2_28 
REMARK   14  A    between atoms: C28_34  and  O3_35 
REMARK   15  A    between atoms: C29_37  and  C31_39 
REMARK   16  A    between atoms: C31_39  and  O4_40 
ROOT
HETATM    1  C8  UNL     1     -10.697  16.041  27.575  1.00  0.00    -0.028 C 
HETATM    2  C9  UNL     1     -11.838  16.961  28.060  1.00  0.00     0.016 C 
HETATM    3  C10 UNL     1     -10.339  16.721  26.259  1.00  0.00     0.003 C 
HETATM    4  C11 UNL     1     -11.440  16.813  25.268  1.00  0.00     0.006 C 
HETATM    5  C12 UNL     1     -10.920  16.245  23.947  1.00  0.00     0.006 C 
HETATM    6  C13 UNL     1      -9.692  15.409  24.394  1.00  0.00    -0.003 C 
HETATM    7  C25 UNL     1      -9.133  16.217  25.534  1.00  0.00    -0.033 C 
HETATM    8  C26 UNL     1      -8.495  17.450  24.886  1.00  0.00     0.016 C 
HETATM    9  C27 UNL     1      -8.115  15.554  26.366  1.00  0.00     0.042 C 
HETATM   10  C28 UNL     1      -8.352  15.404  27.802  1.00  0.00     0.130 C 
HETATM   11  C29 UNL     1      -9.481  16.186  28.430  1.00  0.00     0.011 C 
HETATM   12  C30 UNL     1      -9.660  15.568  29.829  1.00  0.00     0.021 C 
ENDROOT
BRANCH   6  13
HETATM   13  C14 UNL     1      -8.895  15.152  23.188  1.00  0.00     0.032 C 
BRANCH  13  14
HETATM   14  C15 UNL     1      -9.437  15.502  21.886  1.00  0.00    -0.030 C 
HETATM   15  C16 UNL     1      -8.762  16.055  20.924  1.00  0.00    -0.031 C 
BRANCH  15  16
HETATM   16  C17 UNL     1      -7.350  16.454  20.896  1.00  0.00     0.027 C 
BRANCH  16  17
HETATM   17  C18 UNL     1      -7.150  17.939  20.856  1.00  0.00     0.013 C 
BRANCH  17  18
HETATM   18  C19 UNL     1      -7.117  18.582  22.211  1.00  0.00     0.103 C 
BRANCH  18  19
HETATM   19  C20 UNL     1      -5.795  18.901  22.728  1.00  0.00     0.217 C 
HETATM   20  O1  UNL     1      -5.306  20.049  22.727  1.00  0.00    -0.274 OA
HETATM   21  N1  UNL     1      -4.995  17.855  23.274  1.00  0.00    -0.356 N 
ATOM     22  H1  UNL     1      -5.366  16.905  23.291  1.00  0.00     0.162 HD
BRANCH  21  23
HETATM   23  C21 UNL     1      -3.686  18.100  23.797  1.00  0.00     0.089 C 
HETATM   24  C22 UNL     1      -3.279  17.191  24.940  1.00  0.00     0.057 C 
HETATM   25  C23 UNL     1      -1.969  16.923  24.249  1.00  0.00     0.122 C 
HETATM   26  C24 UNL     1      -2.537  17.569  23.001  1.00  0.00     0.057 C 
BRANCH  25  27
HETATM   27  O2  UNL     1      -1.705  15.579  24.068  1.00  0.00    -0.395 OA
ATOM     28  H2  UNL     1      -0.930  15.412  23.545  1.00  0.00     0.210 HD
ENDBRANCH  25  27
ENDBRANCH  21  23
ENDBRANCH  18  19
ENDBRANCH  17  18
ENDBRANCH  16  17
ENDBRANCH  15  16
ENDBRANCH  13  14
ENDBRANCH   6  13
BRANCH   1  29
HETATM   29  C7  UNL     1     -11.158  14.685  27.304  1.00  0.00     0.011 C 
BRANCH  29  30
HETATM   30  C6  UNL     1     -12.448  14.141  27.724  1.00  0.00     0.011 C 
BRANCH  30  31
HETATM   31  C5  UNL     1     -12.510  12.909  28.546  1.00  0.00     0.075 C 
BRANCH  31  32
HETATM   32  S1  UNL     1     -12.555  13.483  30.299  1.00  0.00    -0.160 SA
BRANCH  32  33
HETATM   33  C2  UNL     1     -14.214  13.102  30.912  1.00  0.00    -0.003 C 
HETATM   34  C1  UNL     1     -14.725  11.826  30.307  1.00  0.00     0.026 C 
HETATM   35  C3  UNL     1     -14.073  12.830  32.416  1.00  0.00     0.026 C 
HETATM   36  C4  UNL     1     -15.202  14.199  30.665  1.00  0.00     0.026 C 
ENDBRANCH  32  33
ENDBRANCH  31  32
ENDBRANCH  30  31
ENDBRANCH  29  30
ENDBRANCH   1  29
BRANCH  10  37
HETATM   37  O3  UNL     1      -7.196  15.752  28.545  1.00  0.00    -0.395 OA
ATOM     38  H3  UNL     1      -7.024  15.110  29.223  1.00  0.00     0.210 HD
ENDBRANCH  10  37
BRANCH  11  39
HETATM   39  C31 UNL     1      -8.994  17.558  28.687  1.00  0.00     0.176 C 
BRANCH  39  40
HETATM   40  O4  UNL     1      -9.006  17.971  30.019  1.00  0.00    -0.400 OA
ATOM     41  H4  UNL     1      -9.597  18.685  30.227  1.00  0.00     0.209 HD
ENDBRANCH  39  40
ENDBRANCH  11  39
TORSDOF 16
ENDMDL
