MODEL 1
REMARK VINA RESULT: -10.115882839      0.000      0.000
REMARK  11 active torsions:
REMARK  status: ('A' for Active; 'I' for Inactive)
REMARK    1  A    between atoms: C2_2  and  C3_3 
REMARK    2  A    between atoms: C3_3  and  N1_4 
REMARK    3  A    between atoms: C3_3  and  C24_38 
REMARK       I    between atoms: N1_4  and  C4_6 
REMARK       I    between atoms: C4_6  and  N2_8 
REMARK    4  A    between atoms: N2_8  and  C5_10 
REMARK       I    between atoms: N3_14  and  C9_15 
REMARK       I    between atoms: C9_15  and  N4_17 
REMARK    5  A    between atoms: N4_17  and  C10_19 
REMARK    6  A    between atoms: C12_21  and  C13_22 
REMARK    7  A    between atoms: C13_22  and  C14_23 
REMARK    8  A    between atoms: C15_24  and  C16_25 
REMARK    9  A    between atoms: C17_26  and  C18_27 
REMARK   10  A    between atoms: C18_27  and  N5_28 
REMARK       I    between atoms: C19_30  and  N7_32 
REMARK   11  A    between atoms: N7_32  and  C20_34 
REMARK       I    between atoms: C24_38  and  N8_40 
ROOT
HETATM    1  C5  UNL     1      20.862  13.489   8.034  1.00  0.00     0.106 C 
HETATM    2  C6  UNL     1      21.888  12.579   8.700  1.00  0.00     0.051 C 
HETATM    3  C7  UNL     1      21.037  11.493   9.334  1.00  0.00     0.086 C 
HETATM    4  C8  UNL     1      21.603  10.118   9.034  1.00  0.00     0.032 C 
HETATM    5  N3  UNL     1      19.706  11.649   8.803  1.00  0.00    -0.328 N 
HETATM    6  C9  UNL     1      18.527  11.065   9.324  1.00  0.00     0.319 C 
HETATM    7  O2  UNL     1      18.572  10.328  10.371  1.00  0.00    -0.247 OA
HETATM    8  N4  UNL     1      17.287  11.281   8.701  1.00  0.00    -0.338 N 
ATOM      9  H4  UNL     1      17.236  11.866   7.868  1.00  0.00     0.164 HD
HETATM   10  C23 UNL     1      19.782  12.502   7.654  1.00  0.00     0.153 C 
ENDROOT
BRANCH   8  11
HETATM   11  C10 UNL     1      16.075  10.681   9.231  1.00  0.00     0.091 A 
HETATM   12  C11 UNL     1      15.056  11.455   9.953  1.00  0.00     0.032 A 
HETATM   13  C12 UNL     1      14.793  11.096   8.554  1.00  0.00     0.014 A 
BRANCH  13  14
HETATM   14  C13 UNL     1      13.778  10.013   8.208  1.00  0.00     0.033 C 
BRANCH  14  15
HETATM   15  C14 UNL     1      12.947  10.400   7.068  1.00  0.00    -0.026 C 
HETATM   16  C15 UNL     1      13.186  10.155   5.786  1.00  0.00    -0.004 C 
BRANCH  16  17
HETATM   17  C16 UNL     1      14.343   9.442   5.324  1.00  0.00    -0.003 C 
HETATM   18  C17 UNL     1      15.538   9.863   5.035  1.00  0.00    -0.007 C 
BRANCH  18  19
HETATM   19  C18 UNL     1      16.163  11.179   5.064  1.00  0.00     0.149 C 
BRANCH  19  20
HETATM   20  N5  UNL     1      16.676  11.636   3.829  1.00  0.00    -0.361 N 
HETATM   21  C19 UNL     1      17.946  11.678   3.575  1.00  0.00     0.184 C 
HETATM   22  N6  UNL     1      18.830  11.242   4.594  1.00  0.00    -0.064 NA
HETATM   23  N7  UNL     1      18.440  12.146   2.333  1.00  0.00    -0.361 N 
ATOM     24  H7  UNL     1      19.184  11.643   1.850  1.00  0.00     0.162 HD
ATOM     25  H5  UNL     1      16.021  11.946   3.109  1.00  0.00     0.162 HD
BRANCH  23  26
HETATM   26  C20 UNL     1      17.875  13.349   1.760  1.00  0.00     0.076 C 
HETATM   27  C21 UNL     1      17.136  13.051   0.476  1.00  0.00     0.032 C 
HETATM   28  C22 UNL     1      18.872  14.454   1.641  1.00  0.00     0.032 C 
ENDBRANCH  23  26
ENDBRANCH  19  20
ENDBRANCH  18  19
ENDBRANCH  16  17
ENDBRANCH  14  15
ENDBRANCH  13  14
ENDBRANCH   8  11
BRANCH   1  29
HETATM   29  N2  UNL     1      21.391  14.158   6.888  1.00  0.00    -0.337 N 
HETATM   30  C4  UNL     1      21.610  15.547   6.911  1.00  0.00     0.317 C 
HETATM   31  N1  UNL     1      22.115  16.196   5.765  1.00  0.00    -0.330 N 
HETATM   32  O1  UNL     1      21.341  16.183   7.967  1.00  0.00    -0.247 OA
ATOM     33  H1  UNL     1      22.304  15.622   4.944  1.00  0.00     0.165 HD
ATOM     34  H2  UNL     1      21.613  13.625   6.047  1.00  0.00     0.164 HD
BRANCH  31  35
HETATM   35  C3  UNL     1      22.388  17.621   5.666  1.00  0.00     0.178 C 
BRANCH  35  36
HETATM   36  C2  UNL     1      23.629  17.895   6.478  1.00  0.00     0.030 C 
HETATM   37  C1  UNL     1      24.785  17.163   5.819  1.00  0.00     0.007 C 
ENDBRANCH  35  36
BRANCH  35  38
HETATM   38  C24 UNL     1      22.560  17.965   4.221  1.00  0.00     0.243 C 
HETATM   39  O3  UNL     1      22.386  17.093   3.337  1.00  0.00    -0.271 OA
HETATM   40  N8  UNL     1      22.919  19.272   3.820  1.00  0.00    -0.344 N 
HETATM   41  C25 UNL     1      23.222  20.560   4.468  1.00  0.00     0.133 C 
HETATM   42  C30 UNL     1      23.153  19.969   2.561  1.00  0.00     0.104 C 
HETATM   43  C26 UNL     1      22.688  21.195   3.223  1.00  0.00     0.028 C 
HETATM   44  C27 UNL     1      23.225  22.493   2.804  1.00  0.00     0.021 C 
HETATM   45  C28 UNL     1      24.710  22.645   2.810  1.00  0.00     0.109 C 
HETATM   46  S1  UNL     1      25.319  21.388   1.676  1.00  0.00     0.016 S 
HETATM   47  O4  UNL     1      26.985  21.334   1.872  1.00  0.00    -0.258 OA
HETATM   48  C29 UNL     1      24.582  19.872   2.193  1.00  0.00     0.134 C 
ENDBRANCH  35  38
ENDBRANCH  31  35
ENDBRANCH   1  29
TORSDOF 11
ENDMDL
MODEL 2
REMARK VINA RESULT: -9.891325419      2.624      5.481
REMARK  11 active torsions:
REMARK  status: ('A' for Active; 'I' for Inactive)
REMARK    1  A    between atoms: C2_2  and  C3_3 
REMARK    2  A    between atoms: C3_3  and  N1_4 
REMARK    3  A    between atoms: C3_3  and  C24_38 
REMARK       I    between atoms: N1_4  and  C4_6 
REMARK       I    between atoms: C4_6  and  N2_8 
REMARK    4  A    between atoms: N2_8  and  C5_10 
REMARK       I    between atoms: N3_14  and  C9_15 
REMARK       I    between atoms: C9_15  and  N4_17 
REMARK    5  A    between atoms: N4_17  and  C10_19 
REMARK    6  A    between atoms: C12_21  and  C13_22 
REMARK    7  A    between atoms: C13_22  and  C14_23 
REMARK    8  A    between atoms: C15_24  and  C16_25 
REMARK    9  A    between atoms: C17_26  and  C18_27 
REMARK   10  A    between atoms: C18_27  and  N5_28 
REMARK       I    between atoms: C19_30  and  N7_32 
REMARK   11  A    between atoms: N7_32  and  C20_34 
REMARK       I    between atoms: C24_38  and  N8_40 
ROOT
HETATM    1  C5  UNL     1      19.492  13.698   3.458  1.00  0.00     0.106 C 
HETATM    2  C6  UNL     1      19.159  13.252   2.037  1.00  0.00     0.051 C 
HETATM    3  C7  UNL     1      18.015  12.274   2.235  1.00  0.00     0.086 C 
HETATM    4  C8  UNL     1      16.888  12.557   1.260  1.00  0.00     0.032 C 
HETATM    5  N3  UNL     1      17.584  12.413   3.603  1.00  0.00    -0.328 N 
HETATM    6  C9  UNL     1      16.760  11.508   4.313  1.00  0.00     0.319 C 
HETATM    7  O2  UNL     1      16.332  10.437   3.753  1.00  0.00    -0.247 OA
HETATM    8  N4  UNL     1      16.395  11.767   5.645  1.00  0.00    -0.338 N 
ATOM      9  H4  UNL     1      16.729  12.615   6.103  1.00  0.00     0.164 HD
HETATM   10  C23 UNL     1      18.137  13.629   4.123  1.00  0.00     0.153 C 
ENDROOT
BRANCH   8  11
HETATM   11  C10 UNL     1      15.548  10.842   6.377  1.00  0.00     0.091 A 
HETATM   12  C11 UNL     1      16.088   9.749   7.196  1.00  0.00     0.032 A 
HETATM   13  C12 UNL     1      15.605  10.955   7.879  1.00  0.00     0.014 A 
BRANCH  13  14
HETATM   14  C13 UNL     1      14.294  10.936   8.654  1.00  0.00     0.033 C 
BRANCH  14  15
HETATM   15  C14 UNL     1      14.478  10.416  10.009  1.00  0.00    -0.026 C 
HETATM   16  C15 UNL     1      15.002  11.057  11.046  1.00  0.00    -0.004 C 
BRANCH  16  17
HETATM   17  C16 UNL     1      15.479  12.409  10.977  1.00  0.00    -0.003 C 
HETATM   18  C17 UNL     1      16.680  12.876  10.814  1.00  0.00    -0.007 C 
BRANCH  18  19
HETATM   19  C18 UNL     1      17.980  12.241  10.641  1.00  0.00     0.149 C 
BRANCH  19  20
HETATM   20  N5  UNL     1      18.873  12.907   9.772  1.00  0.00    -0.361 N 
HETATM   21  C19 UNL     1      19.485  12.300   8.804  1.00  0.00     0.184 C 
HETATM   22  N6  UNL     1      19.229  10.917   8.635  1.00  0.00    -0.064 NA
HETATM   23  N7  UNL     1      20.381  12.985   7.948  1.00  0.00    -0.361 N 
ATOM     24  H7  UNL     1      20.348  12.836   6.939  1.00  0.00     0.162 HD
ATOM     25  H5  UNL     1      19.043  13.904   9.912  1.00  0.00     0.162 HD
BRANCH  23  26
HETATM   26  C20 UNL     1      21.345  13.898   8.523  1.00  0.00     0.076 C 
HETATM   27  C21 UNL     1      21.374  15.211   7.774  1.00  0.00     0.032 C 
HETATM   28  C22 UNL     1      22.690  13.277   8.707  1.00  0.00     0.032 C 
ENDBRANCH  23  26
ENDBRANCH  19  20
ENDBRANCH  18  19
ENDBRANCH  16  17
ENDBRANCH  14  15
ENDBRANCH  13  14
ENDBRANCH   8  11
BRANCH   1  29
HETATM   29  N2  UNL     1      20.033  15.019   3.500  1.00  0.00    -0.337 N 
HETATM   30  C4  UNL     1      21.286  15.258   4.094  1.00  0.00     0.317 C 
HETATM   31  N1  UNL     1      21.798  16.571   4.144  1.00  0.00    -0.330 N 
HETATM   32  O1  UNL     1      21.923  14.281   4.574  1.00  0.00    -0.247 OA
ATOM     33  H1  UNL     1      21.227  17.315   3.743  1.00  0.00     0.165 HD
ATOM     34  H2  UNL     1      19.508  15.795   3.096  1.00  0.00     0.164 HD
BRANCH  31  35
HETATM   35  C3  UNL     1      23.078  16.946   4.725  1.00  0.00     0.178 C 
BRANCH  35  36
HETATM   36  C2  UNL     1      23.854  17.678   3.658  1.00  0.00     0.030 C 
HETATM   37  C1  UNL     1      22.880  18.562   2.900  1.00  0.00     0.007 C 
ENDBRANCH  35  36
BRANCH  35  38
HETATM   38  C24 UNL     1      22.815  17.794   5.928  1.00  0.00     0.243 C 
HETATM   39  O3  UNL     1      21.665  18.240   6.151  1.00  0.00    -0.271 OA
HETATM   40  N8  UNL     1      23.851  18.111   6.836  1.00  0.00    -0.344 N 
HETATM   41  C25 UNL     1      25.292  17.835   6.978  1.00  0.00     0.133 C 
HETATM   42  C30 UNL     1      23.978  18.861   8.080  1.00  0.00     0.104 C 
HETATM   43  C26 UNL     1      25.062  17.942   8.452  1.00  0.00     0.028 C 
HETATM   44  C27 UNL     1      26.155  18.419   9.306  1.00  0.00     0.021 C 
HETATM   45  C28 UNL     1      26.885  19.640   8.852  1.00  0.00     0.109 C 
HETATM   46  S1  UNL     1      25.635  20.931   8.760  1.00  0.00     0.016 S 
HETATM   47  O4  UNL     1      26.351  22.235   7.984  1.00  0.00    -0.258 OA
HETATM   48  C29 UNL     1      24.325  20.268   7.783  1.00  0.00     0.134 C 
ENDBRANCH  35  38
ENDBRANCH  31  35
ENDBRANCH   1  29
TORSDOF 11
ENDMDL
MODEL 3
REMARK VINA RESULT: -9.739065382      2.636      5.188
REMARK  11 active torsions:
REMARK  status: ('A' for Active; 'I' for Inactive)
REMARK    1  A    between atoms: C2_2  and  C3_3 
REMARK    2  A    between atoms: C3_3  and  N1_4 
REMARK    3  A    between atoms: C3_3  and  C24_38 
REMARK       I    between atoms: N1_4  and  C4_6 
REMARK       I    between atoms: C4_6  and  N2_8 
REMARK    4  A    between atoms: N2_8  and  C5_10 
REMARK       I    between atoms: N3_14  and  C9_15 
REMARK       I    between atoms: C9_15  and  N4_17 
REMARK    5  A    between atoms: N4_17  and  C10_19 
REMARK    6  A    between atoms: C12_21  and  C13_22 
REMARK    7  A    between atoms: C13_22  and  C14_23 
REMARK    8  A    between atoms: C15_24  and  C16_25 
REMARK    9  A    between atoms: C17_26  and  C18_27 
REMARK   10  A    between atoms: C18_27  and  N5_28 
REMARK       I    between atoms: C19_30  and  N7_32 
REMARK   11  A    between atoms: N7_32  and  C20_34 
REMARK       I    between atoms: C24_38  and  N8_40 
ROOT
HETATM    1  C5  UNL     1      20.604  14.676   3.903  1.00  0.00     0.106 C 
HETATM    2  C6  UNL     1      19.644  14.056   2.892  1.00  0.00     0.051 C 
HETATM    3  C7  UNL     1      18.989  12.931   3.673  1.00  0.00     0.086 C 
HETATM    4  C8  UNL     1      17.484  12.942   3.478  1.00  0.00     0.032 C 
HETATM    5  N3  UNL     1      19.349  13.121   5.055  1.00  0.00    -0.328 N 
HETATM    6  C9  UNL     1      19.222  12.165   6.089  1.00  0.00     0.319 C 
HETATM    7  O2  UNL     1      18.763  10.994   5.842  1.00  0.00    -0.247 OA
HETATM    8  N4  UNL     1      19.595  12.481   7.406  1.00  0.00    -0.338 N 
ATOM      9  H4  UNL     1      19.963  13.409   7.617  1.00  0.00     0.164 HD
HETATM   10  C23 UNL     1      19.863  14.452   5.201  1.00  0.00     0.153 C 
ENDROOT
BRANCH   8  11
HETATM   11  C10 UNL     1      19.464  11.503   8.471  1.00  0.00     0.091 A 
HETATM   12  C11 UNL     1      20.571  11.158   9.373  1.00  0.00     0.032 A 
HETATM   13  C12 UNL     1      19.521  12.055   9.873  1.00  0.00     0.014 A 
BRANCH  13  14
HETATM   14  C13 UNL     1      18.495  11.560  10.885  1.00  0.00     0.033 C 
BRANCH  14  15
HETATM   15  C14 UNL     1      17.298  12.401  10.890  1.00  0.00    -0.026 C 
HETATM   16  C15 UNL     1      16.054  12.021  10.622  1.00  0.00    -0.004 C 
BRANCH  16  17
HETATM   17  C16 UNL     1      15.700  10.673  10.277  1.00  0.00    -0.003 C 
HETATM   18  C17 UNL     1      15.652  10.080   9.122  1.00  0.00    -0.007 C 
BRANCH  18  19
HETATM   19  C18 UNL     1      15.929  10.524   7.762  1.00  0.00     0.149 C 
BRANCH  19  20
HETATM   20  N5  UNL     1      15.864   9.521   6.769  1.00  0.00    -0.361 N 
HETATM   21  C19 UNL     1      15.469   9.765   5.559  1.00  0.00     0.184 C 
HETATM   22  N6  UNL     1      15.095  11.097   5.250  1.00  0.00    -0.064 NA
HETATM   23  N7  UNL     1      15.405   8.745   4.579  1.00  0.00    -0.361 N 
ATOM     24  H7  UNL     1      15.753   8.912   3.634  1.00  0.00     0.162 HD
ATOM     25  H5  UNL     1      16.138   8.569   7.013  1.00  0.00     0.162 HD
BRANCH  23  26
HETATM   26  C20 UNL     1      14.840   7.461   4.935  1.00  0.00     0.076 C 
HETATM   27  C21 UNL     1      15.160   6.411   3.896  1.00  0.00     0.032 C 
HETATM   28  C22 UNL     1      13.390   7.546   5.282  1.00  0.00     0.032 C 
ENDBRANCH  23  26
ENDBRANCH  19  20
ENDBRANCH  18  19
ENDBRANCH  16  17
ENDBRANCH  14  15
ENDBRANCH  13  14
ENDBRANCH   8  11
BRANCH   1  29
HETATM   29  N2  UNL     1      20.830  16.064   3.657  1.00  0.00    -0.337 N 
HETATM   30  C4  UNL     1      22.125  16.604   3.751  1.00  0.00     0.317 C 
HETATM   31  N1  UNL     1      22.329  17.980   3.524  1.00  0.00    -0.330 N 
HETATM   32  O1  UNL     1      23.080  15.833   4.043  1.00  0.00    -0.247 OA
ATOM     33  H1  UNL     1      21.512  18.547   3.299  1.00  0.00     0.165 HD
ATOM     34  H2  UNL     1      20.046  16.670   3.412  1.00  0.00     0.164 HD
BRANCH  31  35
HETATM   35  C3  UNL     1      23.617  18.654   3.587  1.00  0.00     0.178 C 
BRANCH  35  36
HETATM   36  C2  UNL     1      23.810  19.367   2.272  1.00  0.00     0.030 C 
HETATM   37  C1  UNL     1      25.115  20.140   2.351  1.00  0.00     0.007 C 
ENDBRANCH  35  36
BRANCH  35  38
HETATM   38  C24 UNL     1      23.597  19.593   4.751  1.00  0.00     0.243 C 
HETATM   39  O3  UNL     1      23.015  20.699   4.664  1.00  0.00    -0.271 OA
HETATM   40  N8  UNL     1      24.230  19.255   5.969  1.00  0.00    -0.344 N 
HETATM   41  C25 UNL     1      25.007  18.127   6.512  1.00  0.00     0.133 C 
HETATM   42  C30 UNL     1      24.405  19.871   7.279  1.00  0.00     0.104 C 
HETATM   43  C26 UNL     1      24.446  18.515   7.843  1.00  0.00     0.028 C 
HETATM   44  C27 UNL     1      25.240  18.255   9.049  1.00  0.00     0.021 C 
HETATM   45  C28 UNL     1      26.679  18.651   9.010  1.00  0.00     0.109 C 
HETATM   46  S1  UNL     1      26.673  20.425   8.708  1.00  0.00     0.016 S 
HETATM   47  O4  UNL     1      28.259  20.858   8.372  1.00  0.00    -0.258 OA
HETATM   48  C29 UNL     1      25.648  20.672   7.294  1.00  0.00     0.134 C 
ENDBRANCH  35  38
ENDBRANCH  31  35
ENDBRANCH   1  29
TORSDOF 11
ENDMDL
MODEL 4
REMARK VINA RESULT: -9.641027705      3.817     11.691
REMARK  11 active torsions:
REMARK  status: ('A' for Active; 'I' for Inactive)
REMARK    1  A    between atoms: C2_2  and  C3_3 
REMARK    2  A    between atoms: C3_3  and  N1_4 
REMARK    3  A    between atoms: C3_3  and  C24_38 
REMARK       I    between atoms: N1_4  and  C4_6 
REMARK       I    between atoms: C4_6  and  N2_8 
REMARK    4  A    between atoms: N2_8  and  C5_10 
REMARK       I    between atoms: N3_14  and  C9_15 
REMARK       I    between atoms: C9_15  and  N4_17 
REMARK    5  A    between atoms: N4_17  and  C10_19 
REMARK    6  A    between atoms: C12_21  and  C13_22 
REMARK    7  A    between atoms: C13_22  and  C14_23 
REMARK    8  A    between atoms: C15_24  and  C16_25 
REMARK    9  A    between atoms: C17_26  and  C18_27 
REMARK   10  A    between atoms: C18_27  and  N5_28 
REMARK       I    between atoms: C19_30  and  N7_32 
REMARK   11  A    between atoms: N7_32  and  C20_34 
REMARK       I    between atoms: C24_38  and  N8_40 
ROOT
HETATM    1  C5  UNL     1      22.249  17.216   4.131  1.00  0.00     0.106 C 
HETATM    2  C6  UNL     1      22.883  18.039   3.014  1.00  0.00     0.051 C 
HETATM    3  C7  UNL     1      23.802  18.992   3.758  1.00  0.00     0.086 C 
HETATM    4  C8  UNL     1      25.172  19.040   3.108  1.00  0.00     0.032 C 
HETATM    5  N3  UNL     1      23.873  18.521   5.118  1.00  0.00    -0.328 N 
HETATM    6  C9  UNL     1      24.360  19.250   6.229  1.00  0.00     0.319 C 
HETATM    7  O2  UNL     1      24.780  20.452   6.087  1.00  0.00    -0.247 OA
HETATM    8  N4  UNL     1      24.392  18.668   7.507  1.00  0.00    -0.338 N 
ATOM      9  H4  UNL     1      24.060  17.712   7.635  1.00  0.00     0.164 HD
HETATM   10  C23 UNL     1      23.362  17.182   5.152  1.00  0.00     0.153 C 
ENDROOT
BRANCH   8  11
HETATM   11  C10 UNL     1      24.893  19.412   8.649  1.00  0.00     0.091 A 
HETATM   12  C11 UNL     1      25.263  18.768   9.916  1.00  0.00     0.032 A 
HETATM   13  C12 UNL     1      26.339  19.169   9.002  1.00  0.00     0.014 A 
BRANCH  13  14
HETATM   14  C13 UNL     1      27.216  20.374   9.317  1.00  0.00     0.033 C 
BRANCH  14  15
HETATM   15  C14 UNL     1      27.916  20.856   8.127  1.00  0.00    -0.026 C 
HETATM   16  C15 UNL     1      27.816  22.058   7.574  1.00  0.00    -0.004 C 
BRANCH  16  17
HETATM   17  C16 UNL     1      26.972  23.097   8.094  1.00  0.00    -0.003 C 
HETATM   18  C17 UNL     1      26.388  24.091   7.498  1.00  0.00    -0.007 C 
BRANCH  18  19
HETATM   19  C18 UNL     1      26.352  24.539   6.112  1.00  0.00     0.149 C 
BRANCH  19  20
HETATM   20  N5  UNL     1      25.287  24.032   5.334  1.00  0.00    -0.361 N 
HETATM   21  C19 UNL     1      25.453  23.095   4.454  1.00  0.00     0.184 C 
HETATM   22  N6  UNL     1      26.763  22.580   4.287  1.00  0.00    -0.064 NA
HETATM   23  N7  UNL     1      24.373  22.604   3.680  1.00  0.00    -0.361 N 
ATOM     24  H7  UNL     1      24.254  21.601   3.536  1.00  0.00     0.162 HD
ATOM     25  H5  UNL     1      24.352  24.417   5.471  1.00  0.00     0.162 HD
BRANCH  23  26
HETATM   26  C20 UNL     1      23.441  23.545   3.096  1.00  0.00     0.076 C 
HETATM   27  C21 UNL     1      22.087  23.463   3.764  1.00  0.00     0.032 C 
HETATM   28  C22 UNL     1      23.388  23.455   1.607  1.00  0.00     0.032 C 
ENDBRANCH  23  26
ENDBRANCH  19  20
ENDBRANCH  18  19
ENDBRANCH  16  17
ENDBRANCH  14  15
ENDBRANCH  13  14
ENDBRANCH   8  11
BRANCH   1  29
HETATM   29  N2  UNL     1      21.888  15.903   3.700  1.00  0.00    -0.337 N 
HETATM   30  C4  UNL     1      20.720  15.288   4.187  1.00  0.00     0.317 C 
HETATM   31  N1  UNL     1      20.387  13.984   3.766  1.00  0.00    -0.330 N 
HETATM   32  O1  UNL     1      19.996  15.927   4.999  1.00  0.00    -0.247 OA
ATOM     33  H1  UNL     1      21.021  13.524   3.113  1.00  0.00     0.165 HD
ATOM     34  H2  UNL     1      22.481  15.407   3.034  1.00  0.00     0.164 HD
BRANCH  31  35
HETATM   35  C3  UNL     1      19.209  13.245   4.192  1.00  0.00     0.178 C 
BRANCH  35  36
HETATM   36  C2  UNL     1      18.597  12.632   2.958  1.00  0.00     0.030 C 
HETATM   37  C1  UNL     1      18.350  13.749   1.959  1.00  0.00     0.007 C 
ENDBRANCH  35  36
BRANCH  35  38
HETATM   38  C24 UNL     1      19.638  12.218   5.191  1.00  0.00     0.243 C 
HETATM   39  O3  UNL     1      19.637  11.002   4.889  1.00  0.00    -0.271 OA
HETATM   40  N8  UNL     1      20.052  12.592   6.489  1.00  0.00    -0.344 N 
HETATM   41  C25 UNL     1      20.203  13.838   7.263  1.00  0.00     0.133 C 
HETATM   42  C30 UNL     1      20.538  11.913   7.685  1.00  0.00     0.104 C 
HETATM   43  C26 UNL     1      21.302  13.130   7.991  1.00  0.00     0.028 C 
HETATM   44  C27 UNL     1      21.568  13.486   9.389  1.00  0.00     0.021 C 
HETATM   45  C28 UNL     1      20.388  13.587  10.298  1.00  0.00     0.109 C 
HETATM   46  S1  UNL     1      19.624  11.958  10.264  1.00  0.00     0.016 S 
HETATM   47  O4  UNL     1      18.143  12.108  11.039  1.00  0.00    -0.258 OA
HETATM   48  C29 UNL     1      19.398  11.564   8.560  1.00  0.00     0.134 C 
ENDBRANCH  35  38
ENDBRANCH  31  35
ENDBRANCH   1  29
TORSDOF 11
ENDMDL
MODEL 5
REMARK VINA RESULT: -9.457270656      2.050      2.993
REMARK  11 active torsions:
REMARK  status: ('A' for Active; 'I' for Inactive)
REMARK    1  A    between atoms: C2_2  and  C3_3 
REMARK    2  A    between atoms: C3_3  and  N1_4 
REMARK    3  A    between atoms: C3_3  and  C24_38 
REMARK       I    between atoms: N1_4  and  C4_6 
REMARK       I    between atoms: C4_6  and  N2_8 
REMARK    4  A    between atoms: N2_8  and  C5_10 
REMARK       I    between atoms: N3_14  and  C9_15 
REMARK       I    between atoms: C9_15  and  N4_17 
REMARK    5  A    between atoms: N4_17  and  C10_19 
REMARK    6  A    between atoms: C12_21  and  C13_22 
REMARK    7  A    between atoms: C13_22  and  C14_23 
REMARK    8  A    between atoms: C15_24  and  C16_25 
REMARK    9  A    between atoms: C17_26  and  C18_27 
REMARK   10  A    between atoms: C18_27  and  N5_28 
REMARK       I    between atoms: C19_30  and  N7_32 
REMARK   11  A    between atoms: N7_32  and  C20_34 
REMARK       I    between atoms: C24_38  and  N8_40 
ROOT
HETATM    1  C5  UNL     1      20.764  13.561   7.504  1.00  0.00     0.106 C 
HETATM    2  C6  UNL     1      21.884  12.695   8.073  1.00  0.00     0.051 C 
HETATM    3  C7  UNL     1      21.142  11.654   8.892  1.00  0.00     0.086 C 
HETATM    4  C8  UNL     1      21.671  10.262   8.604  1.00  0.00     0.032 C 
HETATM    5  N3  UNL     1      19.747  11.776   8.550  1.00  0.00    -0.328 N 
HETATM    6  C9  UNL     1      18.661  11.228   9.272  1.00  0.00     0.319 C 
HETATM    7  O2  UNL     1      18.862  10.560  10.347  1.00  0.00    -0.247 OA
HETATM    8  N4  UNL     1      17.342  11.404   8.822  1.00  0.00    -0.338 N 
ATOM      9  H4  UNL     1      17.167  11.933   7.968  1.00  0.00     0.164 HD
HETATM   10  C23 UNL     1      19.650  12.552   7.349  1.00  0.00     0.153 C 
ENDROOT
BRANCH   8  11
HETATM   11  C10 UNL     1      16.224  10.841   9.558  1.00  0.00     0.091 A 
HETATM   12  C11 UNL     1      15.279  11.667  10.321  1.00  0.00     0.032 A 
HETATM   13  C12 UNL     1      14.856  11.159   9.010  1.00  0.00     0.014 A 
BRANCH  13  14
HETATM   14  C13 UNL     1      13.840  10.029   8.907  1.00  0.00     0.033 C 
BRANCH  14  15
HETATM   15  C14 UNL     1      14.380   8.887   8.171  1.00  0.00    -0.026 C 
HETATM   16  C15 UNL     1      14.496   8.768   6.854  1.00  0.00    -0.004 C 
BRANCH  16  17
HETATM   17  C16 UNL     1      14.092   9.793   5.932  1.00  0.00    -0.003 C 
HETATM   18  C17 UNL     1      14.799  10.628   5.233  1.00  0.00    -0.007 C 
BRANCH  18  19
HETATM   19  C18 UNL     1      16.232  10.856   5.104  1.00  0.00     0.149 C 
BRANCH  19  20
HETATM   20  N5  UNL     1      16.656  11.385   3.863  1.00  0.00    -0.361 N 
HETATM   21  C19 UNL     1      17.908  11.542   3.566  1.00  0.00     0.184 C 
HETATM   22  N6  UNL     1      18.864  11.162   4.540  1.00  0.00    -0.064 NA
HETATM   23  N7  UNL     1      18.312  12.080   2.320  1.00  0.00    -0.361 N 
ATOM     24  H7  UNL     1      19.078  11.654   1.797  1.00  0.00     0.162 HD
ATOM     25  H5  UNL     1      15.951  11.652   3.176  1.00  0.00     0.162 HD
BRANCH  23  26
HETATM   26  C20 UNL     1      17.624  13.242   1.798  1.00  0.00     0.076 C 
HETATM   27  C21 UNL     1      17.010  12.956   0.447  1.00  0.00     0.032 C 
HETATM   28  C22 UNL     1      18.467  14.474   1.831  1.00  0.00     0.032 C 
ENDBRANCH  23  26
ENDBRANCH  19  20
ENDBRANCH  18  19
ENDBRANCH  16  17
ENDBRANCH  14  15
ENDBRANCH  13  14
ENDBRANCH   8  11
BRANCH   1  29
HETATM   29  N2  UNL     1      21.118  14.153   6.253  1.00  0.00    -0.337 N 
HETATM   30  C4  UNL     1      22.037  15.217   6.202  1.00  0.00     0.317 C 
HETATM   31  N1  UNL     1      22.361  15.804   4.962  1.00  0.00    -0.330 N 
HETATM   32  O1  UNL     1      22.549  15.624   7.281  1.00  0.00    -0.247 OA
ATOM     33  H1  UNL     1      21.905  15.429   4.130  1.00  0.00     0.165 HD
ATOM     34  H2  UNL     1      20.701  13.803   5.391  1.00  0.00     0.164 HD
BRANCH  31  35
HETATM   35  C3  UNL     1      23.297  16.901   4.777  1.00  0.00     0.178 C 
BRANCH  35  36
HETATM   36  C2  UNL     1      23.122  17.404   3.366  1.00  0.00     0.030 C 
HETATM   37  C1  UNL     1      24.207  18.433   3.102  1.00  0.00     0.007 C 
ENDBRANCH  35  36
BRANCH  35  38
HETATM   38  C24 UNL     1      22.996  17.949   5.801  1.00  0.00     0.243 C 
HETATM   39  O3  UNL     1      21.898  18.553   5.786  1.00  0.00    -0.271 OA
HETATM   40  N8  UNL     1      23.936  18.280   6.803  1.00  0.00    -0.344 N 
HETATM   41  C25 UNL     1      25.295  17.865   7.196  1.00  0.00     0.133 C 
HETATM   42  C30 UNL     1      23.999  19.192   7.939  1.00  0.00     0.104 C 
HETATM   43  C26 UNL     1      24.890  18.223   8.591  1.00  0.00     0.028 C 
HETATM   44  C27 UNL     1      25.915  18.695   9.526  1.00  0.00     0.021 C 
HETATM   45  C28 UNL     1      26.858  19.740   9.026  1.00  0.00     0.109 C 
HETATM   46  S1  UNL     1      25.818  21.137   8.573  1.00  0.00     0.016 S 
HETATM   47  O4  UNL     1      26.801  22.215   7.744  1.00  0.00    -0.258 OA
HETATM   48  C29 UNL     1      24.571  20.487   7.509  1.00  0.00     0.134 C 
ENDBRANCH  35  38
ENDBRANCH  31  35
ENDBRANCH   1  29
TORSDOF 11
ENDMDL
