MODEL 1
REMARK VINA RESULT: -7.897913651      0.000      0.000
REMARK  16 active torsions:
REMARK  status: ('A' for Active; 'I' for Inactive)
REMARK    1  A    between atoms: C2_2  and  C3_3 
REMARK    2  A    between atoms: C3_3  and  C4_4 
REMARK       I    between atoms: C4_4  and  N1_6 
REMARK    3  A    between atoms: N1_6  and  C5_8 
REMARK    4  A    between atoms: C5_8  and  C6_9 
REMARK    5  A    between atoms: C6_9  and  C7_10 
REMARK    6  A    between atoms: C7_10  and  C8_11 
REMARK    7  A    between atoms: C8_11  and  C9_12 
REMARK    8  A    between atoms: C13_18  and  C14_19 
REMARK    9  A    between atoms: C15_20  and  N3_21 
REMARK   10  A    between atoms: C16_23  and  C17_25 
REMARK   11  A    between atoms: C17_25  and  C18_26 
REMARK   12  A    between atoms: C18_26  and  C19_27 
REMARK   13  A    between atoms: C19_27  and  N5_28 
REMARK       I    between atoms: N7_37  and  C26_39 
REMARK       I    between atoms: N9_41  and  C27_43 
REMARK   14  A    between atoms: C27_43  and  C28_45 
REMARK   15  A    between atoms: C28_45  and  N10_46 
REMARK       I    between atoms: N10_46  and  C29_48 
REMARK   16  A    between atoms: C29_48  and  C30_50 
ROOT
HETATM    1  C9  UNL     1      25.110  18.872   7.136  1.00  0.00    -0.026 A 
HETATM    2  C10 UNL     1      24.960  18.555   8.482  1.00  0.00     0.096 A 
HETATM    3  N2  UNL     1      25.269  19.635   9.219  1.00  0.00    -0.364 N 
ATOM      4  H2  UNL     1      25.242  19.674  10.238  1.00  0.00     0.165 HD
HETATM    5  C11 UNL     1      25.623  20.667   8.412  1.00  0.00     0.049 A 
HETATM    6  C12 UNL     1      26.037  21.962   8.654  1.00  0.00     0.069 A 
HETATM    7  C13 UNL     1      26.367  22.819   7.627  1.00  0.00     0.092 A 
HETATM    8  N6  UNL     1      26.259  22.323   6.383  1.00  0.00    -0.335 N 
ATOM      9  H6  UNL     1      26.494  22.933   5.600  1.00  0.00     0.168 HD
HETATM   10  C25 UNL     1      25.855  21.059   6.106  1.00  0.00     0.121 A 
HETATM   11  N7  UNL     1      25.789  20.617   4.902  1.00  0.00    -0.316 N 
ATOM     12  H7  UNL     1      25.481  19.663   4.707  1.00  0.00     0.170 HD
HETATM   13  C26 UNL     1      26.160  21.504   3.840  1.00  0.00     0.196 C 
HETATM   14  N8  UNL     1      27.502  21.359   3.309  1.00  0.00    -0.063 NA
HETATM   15  N9  UNL     1      25.459  22.391   3.315  1.00  0.00    -0.300 N 
ATOM     16  H9  UNL     1      25.952  22.891   2.575  1.00  0.00     0.171 HD
HETATM   17  C27 UNL     1      24.169  22.858   3.501  1.00  0.00     0.241 C 
HETATM   18  O2  UNL     1      23.992  24.126   3.430  1.00  0.00    -0.271 OA
HETATM   19  C33 UNL     1      25.520  20.182   7.120  1.00  0.00     0.043 A 
ENDROOT
BRANCH   7  20
HETATM   20  C14 UNL     1      26.812  24.172   7.873  1.00  0.00    -0.025 C 
HETATM   21  C15 UNL     1      27.181  25.297   8.105  1.00  0.00     0.019 C 
BRANCH  21  22
HETATM   22  N3  UNL     1      27.611  26.611   8.406  1.00  0.00    -0.296 N 
HETATM   23  C16 UNL     1      26.872  27.589   8.004  1.00  0.00     0.178 C 
HETATM   24  N4  UNL     1      25.681  27.337   7.290  1.00  0.00    -0.072 NA
ATOM     25  H3  UNL     1      28.474  26.779   8.923  1.00  0.00     0.178 HD
BRANCH  23  26
HETATM   26  C17 UNL     1      27.214  28.973   8.254  1.00  0.00    -0.031 C 
BRANCH  26  27
HETATM   27  C18 UNL     1      27.495  30.126   8.487  1.00  0.00    -0.068 C 
BRANCH  27  28
HETATM   28  C19 UNL     1      27.827  31.511   8.796  1.00  0.00     0.366 C 
BRANCH  28  29
HETATM   29  N5  UNL     1      28.323  31.591  10.132  1.00  0.00     0.099 N 
HETATM   30  C20 UNL     1      29.622  30.971  10.312  1.00  0.00     0.273 C 
HETATM   31  C21 UNL     1      30.207  31.495  11.585  1.00  0.00     0.030 C 
HETATM   32  C22 UNL     1      29.279  31.671  12.712  1.00  0.00     0.003 C 
HETATM   33  C23 UNL     1      27.846  31.429  12.495  1.00  0.00     0.030 C 
HETATM   34  C24 UNL     1      27.451  31.013  11.105  1.00  0.00     0.273 C 
ENDBRANCH  28  29
ENDBRANCH  27  28
ENDBRANCH  26  27
ENDBRANCH  23  26
ENDBRANCH  21  22
ENDBRANCH   7  20
BRANCH   1  35
HETATM   35  C8  UNL     1      24.823  17.928   5.998  1.00  0.00     0.041 C 
BRANCH  35  36
HETATM   36  C7  UNL     1      24.000  16.782   6.438  1.00  0.00     0.006 C 
BRANCH  36  37
HETATM   37  C6  UNL     1      23.771  15.686   5.442  1.00  0.00     0.020 C 
BRANCH  37  38
HETATM   38  C5  UNL     1      22.379  15.176   5.294  1.00  0.00     0.122 C 
BRANCH  38  39
HETATM   39  N1  UNL     1      21.791  15.172   4.006  1.00  0.00    -0.361 N 
HETATM   40  C4  UNL     1      20.456  14.765   3.796  1.00  0.00     0.221 C 
HETATM   41  O1  UNL     1      19.756  14.398   4.762  1.00  0.00    -0.273 OA
ATOM     42  H1  UNL     1      22.348  15.471   3.206  1.00  0.00     0.162 HD
BRANCH  40  43
HETATM   43  C3  UNL     1      19.830  14.753   2.442  1.00  0.00     0.129 C 
BRANCH  43  44
HETATM   44  C2  UNL     1      18.527  14.050   2.455  1.00  0.00    -0.028 C 
HETATM   45  C1  UNL     1      18.212  13.237   1.464  1.00  0.00     0.007 C 
ENDBRANCH  43  44
ENDBRANCH  40  43
ENDBRANCH  38  39
ENDBRANCH  37  38
ENDBRANCH  36  37
ENDBRANCH  35  36
ENDBRANCH   1  35
BRANCH  17  46
HETATM   46  C28 UNL     1      22.981  22.034   3.769  1.00  0.00     0.225 C 
BRANCH  46  47
HETATM   47  N10 UNL     1      22.988  20.809   2.978  1.00  0.00    -0.352 N 
HETATM   48  C29 UNL     1      22.754  19.577   3.607  1.00  0.00     0.222 C 
HETATM   49  O3  UNL     1      22.538  19.543   4.847  1.00  0.00    -0.273 OA
ATOM     50  H10 UNL     1      23.162  20.848   1.974  1.00  0.00     0.162 HD
BRANCH  48  51
HETATM   51  C30 UNL     1      22.743  18.279   2.876  1.00  0.00     0.078 A 
HETATM   52  C31 UNL     1      24.132  17.687   2.697  1.00  0.00     0.015 A 
HETATM   53  C32 UNL     1      23.371  18.170   1.535  1.00  0.00     0.015 A 
ENDBRANCH  48  51
ENDBRANCH  46  47
ENDBRANCH  17  46
TORSDOF 16
ENDMDL
MODEL 2
REMARK VINA RESULT: -7.762087244      3.426     12.639
REMARK  16 active torsions:
REMARK  status: ('A' for Active; 'I' for Inactive)
REMARK    1  A    between atoms: C2_2  and  C3_3 
REMARK    2  A    between atoms: C3_3  and  C4_4 
REMARK       I    between atoms: C4_4  and  N1_6 
REMARK    3  A    between atoms: N1_6  and  C5_8 
REMARK    4  A    between atoms: C5_8  and  C6_9 
REMARK    5  A    between atoms: C6_9  and  C7_10 
REMARK    6  A    between atoms: C7_10  and  C8_11 
REMARK    7  A    between atoms: C8_11  and  C9_12 
REMARK    8  A    between atoms: C13_18  and  C14_19 
REMARK    9  A    between atoms: C15_20  and  N3_21 
REMARK   10  A    between atoms: C16_23  and  C17_25 
REMARK   11  A    between atoms: C17_25  and  C18_26 
REMARK   12  A    between atoms: C18_26  and  C19_27 
REMARK   13  A    between atoms: C19_27  and  N5_28 
REMARK       I    between atoms: N7_37  and  C26_39 
REMARK       I    between atoms: N9_41  and  C27_43 
REMARK   14  A    between atoms: C27_43  and  C28_45 
REMARK   15  A    between atoms: C28_45  and  N10_46 
REMARK       I    between atoms: N10_46  and  C29_48 
REMARK   16  A    between atoms: C29_48  and  C30_50 
ROOT
HETATM    1  C9  UNL     1      24.295  24.946   3.916  1.00  0.00    -0.026 A 
HETATM    2  C10 UNL     1      23.076  25.472   3.504  1.00  0.00     0.096 A 
HETATM    3  N2  UNL     1      22.182  24.473   3.410  1.00  0.00    -0.364 N 
ATOM      4  H2  UNL     1      21.208  24.586   3.128  1.00  0.00     0.165 HD
HETATM    5  C11 UNL     1      22.762  23.293   3.745  1.00  0.00     0.049 A 
HETATM    6  C12 UNL     1      22.303  21.991   3.796  1.00  0.00     0.069 A 
HETATM    7  C13 UNL     1      23.129  20.948   4.155  1.00  0.00     0.092 A 
HETATM    8  N6  UNL     1      24.398  21.272   4.454  1.00  0.00    -0.335 N 
ATOM      9  H6  UNL     1      25.034  20.522   4.725  1.00  0.00     0.168 HD
HETATM   10  C25 UNL     1      24.884  22.537   4.416  1.00  0.00     0.121 A 
HETATM   11  N7  UNL     1      26.112  22.800   4.686  1.00  0.00    -0.316 N 
ATOM     12  H7  UNL     1      26.464  23.757   4.656  1.00  0.00     0.170 HD
HETATM   13  C26 UNL     1      26.971  21.707   5.031  1.00  0.00     0.196 C 
HETATM   14  N8  UNL     1      27.816  21.183   3.974  1.00  0.00    -0.063 NA
HETATM   15  N9  UNL     1      27.079  21.151   6.141  1.00  0.00    -0.300 N 
ATOM     16  H9  UNL     1      27.763  20.393   6.134  1.00  0.00     0.171 HD
HETATM   17  C27 UNL     1      26.490  21.319   7.383  1.00  0.00     0.241 C 
HETATM   18  O2  UNL     1      26.196  20.257   8.037  1.00  0.00    -0.271 OA
HETATM   19  C33 UNL     1      24.075  23.598   4.059  1.00  0.00     0.043 A 
ENDROOT
BRANCH   7  20
HETATM   20  C14 UNL     1      22.659  19.582   4.200  1.00  0.00    -0.025 C 
HETATM   21  C15 UNL     1      22.264  18.443   4.265  1.00  0.00     0.019 C 
BRANCH  21  22
HETATM   22  N3  UNL     1      21.800  17.111   4.370  1.00  0.00    -0.296 N 
HETATM   23  C16 UNL     1      21.185  16.776   5.453  1.00  0.00     0.178 C 
HETATM   24  N4  UNL     1      20.992  17.719   6.485  1.00  0.00    -0.072 NA
ATOM     25  H3  UNL     1      21.947  16.440   3.617  1.00  0.00     0.178 HD
BRANCH  23  26
HETATM   26  C17 UNL     1      20.669  15.441   5.670  1.00  0.00    -0.031 C 
BRANCH  26  27
HETATM   27  C18 UNL     1      20.220  14.331   5.837  1.00  0.00    -0.068 C 
BRANCH  27  28
HETATM   28  C19 UNL     1      19.676  12.990   6.008  1.00  0.00     0.366 C 
BRANCH  28  29
HETATM   29  N5  UNL     1      18.769  12.708   4.942  1.00  0.00     0.099 N 
HETATM   30  C20 UNL     1      18.233  11.361   4.970  1.00  0.00     0.273 C 
HETATM   31  C21 UNL     1      17.010  11.336   4.110  1.00  0.00     0.030 C 
HETATM   32  C22 UNL     1      17.067  12.113   2.862  1.00  0.00     0.003 C 
HETATM   33  C23 UNL     1      18.256  12.934   2.591  1.00  0.00     0.030 C 
HETATM   34  C24 UNL     1      19.330  12.904   3.643  1.00  0.00     0.273 C 
ENDBRANCH  28  29
ENDBRANCH  27  28
ENDBRANCH  26  27
ENDBRANCH  23  26
ENDBRANCH  21  22
ENDBRANCH   7  20
BRANCH   1  35
HETATM   35  C8  UNL     1      25.537  25.760   4.168  1.00  0.00     0.041 C 
BRANCH  35  36
HETATM   36  C7  UNL     1      25.210  27.173   4.452  1.00  0.00     0.006 C 
BRANCH  36  37
HETATM   37  C6  UNL     1      26.173  28.208   3.953  1.00  0.00     0.020 C 
BRANCH  37  38
HETATM   38  C5  UNL     1      26.228  28.438   2.482  1.00  0.00     0.122 C 
BRANCH  38  39
HETATM   39  N1  UNL     1      25.125  28.039   1.689  1.00  0.00    -0.361 N 
HETATM   40  C4  UNL     1      25.228  27.013   0.727  1.00  0.00     0.221 C 
HETATM   41  O1  UNL     1      26.316  26.425   0.556  1.00  0.00    -0.273 OA
ATOM     42  H1  UNL     1      24.228  28.508   1.818  1.00  0.00     0.162 HD
BRANCH  40  43
HETATM   43  C3  UNL     1      24.072  26.589  -0.116  1.00  0.00     0.129 C 
BRANCH  43  44
HETATM   44  C2  UNL     1      24.210  25.182  -0.554  1.00  0.00    -0.028 C 
HETATM   45  C1  UNL     1      23.872  24.205   0.267  1.00  0.00     0.007 C 
ENDBRANCH  43  44
ENDBRANCH  40  43
ENDBRANCH  38  39
ENDBRANCH  37  38
ENDBRANCH  36  37
ENDBRANCH  35  36
ENDBRANCH   1  35
BRANCH  17  46
HETATM   46  C28 UNL     1      26.172  22.604   8.022  1.00  0.00     0.225 C 
BRANCH  46  47
HETATM   47  N10 UNL     1      27.266  23.558   7.882  1.00  0.00    -0.352 N 
HETATM   48  C29 UNL     1      26.982  24.896   7.569  1.00  0.00     0.222 C 
HETATM   49  O3  UNL     1      25.786  25.258   7.413  1.00  0.00    -0.273 OA
ATOM     50  H10 UNL     1      28.231  23.255   8.012  1.00  0.00     0.162 HD
BRANCH  48  51
HETATM   51  C30 UNL     1      28.037  25.935   7.407  1.00  0.00     0.078 A 
HETATM   52  C31 UNL     1      28.115  26.891   8.586  1.00  0.00     0.015 A 
HETATM   53  C32 UNL     1      27.665  27.366   7.269  1.00  0.00     0.015 A 
ENDBRANCH  48  51
ENDBRANCH  46  47
ENDBRANCH  17  46
TORSDOF 16
ENDMDL
MODEL 3
REMARK VINA RESULT: -7.734795021      1.635      2.132
REMARK  16 active torsions:
REMARK  status: ('A' for Active; 'I' for Inactive)
REMARK    1  A    between atoms: C2_2  and  C3_3 
REMARK    2  A    between atoms: C3_3  and  C4_4 
REMARK       I    between atoms: C4_4  and  N1_6 
REMARK    3  A    between atoms: N1_6  and  C5_8 
REMARK    4  A    between atoms: C5_8  and  C6_9 
REMARK    5  A    between atoms: C6_9  and  C7_10 
REMARK    6  A    between atoms: C7_10  and  C8_11 
REMARK    7  A    between atoms: C8_11  and  C9_12 
REMARK    8  A    between atoms: C13_18  and  C14_19 
REMARK    9  A    between atoms: C15_20  and  N3_21 
REMARK   10  A    between atoms: C16_23  and  C17_25 
REMARK   11  A    between atoms: C17_25  and  C18_26 
REMARK   12  A    between atoms: C18_26  and  C19_27 
REMARK   13  A    between atoms: C19_27  and  N5_28 
REMARK       I    between atoms: N7_37  and  C26_39 
REMARK       I    between atoms: N9_41  and  C27_43 
REMARK   14  A    between atoms: C27_43  and  C28_45 
REMARK   15  A    between atoms: C28_45  and  N10_46 
REMARK       I    between atoms: N10_46  and  C29_48 
REMARK   16  A    between atoms: C29_48  and  C30_50 
ROOT
HETATM    1  C9  UNL     1      25.168  18.877   7.118  1.00  0.00    -0.026 A 
HETATM    2  C10 UNL     1      25.035  18.538   8.461  1.00  0.00     0.096 A 
HETATM    3  N2  UNL     1      25.329  19.614   9.210  1.00  0.00    -0.364 N 
ATOM      4  H2  UNL     1      25.309  19.639  10.230  1.00  0.00     0.165 HD
HETATM    5  C11 UNL     1      25.656  20.664   8.414  1.00  0.00     0.049 A 
HETATM    6  C12 UNL     1      26.047  21.963   8.671  1.00  0.00     0.069 A 
HETATM    7  C13 UNL     1      26.352  22.840   7.653  1.00  0.00     0.092 A 
HETATM    8  N6  UNL     1      26.243  22.359   6.404  1.00  0.00    -0.335 N 
ATOM      9  H6  UNL     1      26.461  22.984   5.627  1.00  0.00     0.168 HD
HETATM   10  C25 UNL     1      25.862  21.091   6.112  1.00  0.00     0.121 A 
HETATM   11  N7  UNL     1      25.795  20.664   4.903  1.00  0.00    -0.316 N 
ATOM     12  H7  UNL     1      25.504  19.708   4.698  1.00  0.00     0.170 HD
HETATM   13  C26 UNL     1      26.141  21.573   3.851  1.00  0.00     0.196 C 
HETATM   14  N8  UNL     1      27.481  21.461   3.308  1.00  0.00    -0.063 NA
HETATM   15  N9  UNL     1      25.418  22.453   3.343  1.00  0.00    -0.300 N 
ATOM     16  H9  UNL     1      25.895  22.973   2.606  1.00  0.00     0.171 HD
HETATM   17  C27 UNL     1      24.121  22.892   3.545  1.00  0.00     0.241 C 
HETATM   18  O2  UNL     1      23.918  24.157   3.493  1.00  0.00    -0.271 OA
HETATM   19  C33 UNL     1      25.552  20.195   7.117  1.00  0.00     0.043 A 
ENDROOT
BRANCH   7  20
HETATM   20  C14 UNL     1      26.773  24.198   7.914  1.00  0.00    -0.025 C 
HETATM   21  C15 UNL     1      27.149  25.323   8.138  1.00  0.00     0.019 C 
BRANCH  21  22
HETATM   22  N3  UNL     1      27.617  26.630   8.407  1.00  0.00    -0.296 N 
HETATM   23  C16 UNL     1      26.837  27.616   8.121  1.00  0.00     0.178 C 
HETATM   24  N4  UNL     1      25.564  27.379   7.559  1.00  0.00    -0.072 NA
ATOM     25  H3  UNL     1      28.540  26.787   8.813  1.00  0.00     0.178 HD
BRANCH  23  26
HETATM   26  C17 UNL     1      27.212  28.995   8.352  1.00  0.00    -0.031 C 
BRANCH  26  27
HETATM   27  C18 UNL     1      27.539  30.140   8.565  1.00  0.00    -0.068 C 
BRANCH  27  28
HETATM   28  C19 UNL     1      27.954  31.509   8.838  1.00  0.00     0.366 C 
BRANCH  28  29
HETATM   29  N5  UNL     1      28.467  31.592  10.167  1.00  0.00     0.099 N 
HETATM   30  C20 UNL     1      29.812  31.069  10.310  1.00  0.00     0.273 C 
HETATM   31  C21 UNL     1      30.378  31.603  11.587  1.00  0.00     0.030 C 
HETATM   32  C22 UNL     1      29.460  31.676  12.734  1.00  0.00     0.003 C 
HETATM   33  C23 UNL     1      28.045  31.330  12.533  1.00  0.00     0.030 C 
HETATM   34  C24 UNL     1      27.659  30.923  11.138  1.00  0.00     0.273 C 
ENDBRANCH  28  29
ENDBRANCH  27  28
ENDBRANCH  26  27
ENDBRANCH  23  26
ENDBRANCH  21  22
ENDBRANCH   7  20
BRANCH   1  35
HETATM   35  C8  UNL     1      24.891  17.943   5.969  1.00  0.00     0.041 C 
BRANCH  35  36
HETATM   36  C7  UNL     1      24.293  16.674   6.435  1.00  0.00     0.006 C 
BRANCH  36  37
HETATM   37  C6  UNL     1      23.168  16.111   5.619  1.00  0.00     0.020 C 
BRANCH  37  38
HETATM   38  C5  UNL     1      23.049  14.628   5.548  1.00  0.00     0.122 C 
BRANCH  38  39
HETATM   39  N1  UNL     1      23.156  13.879   6.746  1.00  0.00    -0.361 N 
HETATM   40  C4  UNL     1      22.042  13.637   7.577  1.00  0.00     0.221 C 
HETATM   41  O1  UNL     1      20.920  14.084   7.263  1.00  0.00    -0.273 OA
ATOM     42  H1  UNL     1      24.066  13.505   7.015  1.00  0.00     0.162 HD
BRANCH  40  43
HETATM   43  C3  UNL     1      22.147  12.853   8.843  1.00  0.00     0.129 C 
BRANCH  43  44
HETATM   44  C2  UNL     1      21.046  11.871   8.962  1.00  0.00    -0.028 C 
HETATM   45  C1  UNL     1      21.242  10.619   8.592  1.00  0.00     0.007 C 
ENDBRANCH  43  44
ENDBRANCH  40  43
ENDBRANCH  38  39
ENDBRANCH  37  38
ENDBRANCH  36  37
ENDBRANCH  35  36
ENDBRANCH   1  35
BRANCH  17  46
HETATM   46  C28 UNL     1      22.951  22.042   3.811  1.00  0.00     0.225 C 
BRANCH  46  47
HETATM   47  N10 UNL     1      22.977  20.826   3.006  1.00  0.00    -0.352 N 
HETATM   48  C29 UNL     1      22.757  19.584   3.620  1.00  0.00     0.222 C 
HETATM   49  O3  UNL     1      22.538  19.532   4.859  1.00  0.00    -0.273 OA
ATOM     50  H10 UNL     1      23.154  20.879   2.003  1.00  0.00     0.162 HD
BRANCH  48  51
HETATM   51  C30 UNL     1      22.767  18.295   2.873  1.00  0.00     0.078 A 
HETATM   52  C31 UNL     1      24.165  17.734   2.674  1.00  0.00     0.015 A 
HETATM   53  C32 UNL     1      23.383  18.214   1.525  1.00  0.00     0.015 A 
ENDBRANCH  48  51
ENDBRANCH  46  47
ENDBRANCH  17  46
TORSDOF 16
ENDMDL
MODEL 4
REMARK VINA RESULT: -7.721206396      5.174      9.471
REMARK  16 active torsions:
REMARK  status: ('A' for Active; 'I' for Inactive)
REMARK    1  A    between atoms: C2_2  and  C3_3 
REMARK    2  A    between atoms: C3_3  and  C4_4 
REMARK       I    between atoms: C4_4  and  N1_6 
REMARK    3  A    between atoms: N1_6  and  C5_8 
REMARK    4  A    between atoms: C5_8  and  C6_9 
REMARK    5  A    between atoms: C6_9  and  C7_10 
REMARK    6  A    between atoms: C7_10  and  C8_11 
REMARK    7  A    between atoms: C8_11  and  C9_12 
REMARK    8  A    between atoms: C13_18  and  C14_19 
REMARK    9  A    between atoms: C15_20  and  N3_21 
REMARK   10  A    between atoms: C16_23  and  C17_25 
REMARK   11  A    between atoms: C17_25  and  C18_26 
REMARK   12  A    between atoms: C18_26  and  C19_27 
REMARK   13  A    between atoms: C19_27  and  N5_28 
REMARK       I    between atoms: N7_37  and  C26_39 
REMARK       I    between atoms: N9_41  and  C27_43 
REMARK   14  A    between atoms: C27_43  and  C28_45 
REMARK   15  A    between atoms: C28_45  and  N10_46 
REMARK       I    between atoms: N10_46  and  C29_48 
REMARK   16  A    between atoms: C29_48  and  C30_50 
ROOT
HETATM    1  C9  UNL     1      26.412  23.403   6.042  1.00  0.00    -0.026 A 
HETATM    2  C10 UNL     1      26.456  24.531   6.856  1.00  0.00     0.096 A 
HETATM    3  N2  UNL     1      25.767  25.521   6.263  1.00  0.00    -0.364 N 
ATOM      4  H2  UNL     1      25.642  26.456   6.649  1.00  0.00     0.165 HD
HETATM    5  C11 UNL     1      25.263  25.095   5.077  1.00  0.00     0.049 A 
HETATM    6  C12 UNL     1      24.516  25.707   4.090  1.00  0.00     0.069 A 
HETATM    7  C13 UNL     1      24.148  25.037   2.944  1.00  0.00     0.092 A 
HETATM    8  N6  UNL     1      24.555  23.761   2.845  1.00  0.00    -0.335 N 
ATOM      9  H6  UNL     1      24.298  23.237   2.008  1.00  0.00     0.168 HD
HETATM   10  C25 UNL     1      25.289  23.127   3.792  1.00  0.00     0.121 A 
HETATM   11  N7  UNL     1      25.679  21.912   3.648  1.00  0.00    -0.316 N 
ATOM     12  H7  UNL     1      26.229  21.446   4.370  1.00  0.00     0.170 HD
HETATM   13  C26 UNL     1      25.317  21.231   2.440  1.00  0.00     0.196 C 
HETATM   14  N8  UNL     1      26.324  21.173   1.398  1.00  0.00    -0.063 NA
HETATM   15  N9  UNL     1      24.230  20.678   2.180  1.00  0.00    -0.300 N 
ATOM     16  H9  UNL     1      24.218  20.260   1.249  1.00  0.00     0.171 HD
HETATM   17  C27 UNL     1      23.036  20.497   2.857  1.00  0.00     0.241 C 
HETATM   18  O2  UNL     1      21.956  20.613   2.175  1.00  0.00    -0.271 OA
HETATM   19  C33 UNL     1      25.669  23.778   4.950  1.00  0.00     0.043 A 
ENDROOT
BRANCH   7  20
HETATM   20  C14 UNL     1      23.374  25.674   1.901  1.00  0.00    -0.025 C 
HETATM   21  C15 UNL     1      22.721  26.181   1.022  1.00  0.00     0.019 C 
BRANCH  21  22
HETATM   22  N3  UNL     1      21.947  26.748  -0.017  1.00  0.00    -0.296 N 
HETATM   23  C16 UNL     1      20.892  27.412   0.317  1.00  0.00     0.178 C 
HETATM   24  N4  UNL     1      20.540  27.556   1.676  1.00  0.00    -0.072 NA
ATOM     25  H3  UNL     1      22.212  26.635  -0.995  1.00  0.00     0.178 HD
BRANCH  23  26
HETATM   26  C17 UNL     1      20.025  28.033  -0.661  1.00  0.00    -0.031 C 
BRANCH  26  27
HETATM   27  C18 UNL     1      19.282  28.543  -1.468  1.00  0.00    -0.068 C 
BRANCH  27  28
HETATM   28  C19 UNL     1      18.383  29.131  -2.452  1.00  0.00     0.366 C 
BRANCH  28  29
HETATM   29  N5  UNL     1      17.663  28.092  -3.115  1.00  0.00     0.099 N 
HETATM   30  C20 UNL     1      16.937  27.216  -2.216  1.00  0.00     0.273 C 
HETATM   31  C21 UNL     1      15.909  26.485  -3.018  1.00  0.00     0.030 C 
HETATM   32  C22 UNL     1      16.317  26.038  -4.359  1.00  0.00     0.003 C 
HETATM   33  C23 UNL     1      17.644  26.421  -4.861  1.00  0.00     0.030 C 
HETATM   34  C24 UNL     1      18.483  27.256  -3.934  1.00  0.00     0.273 C 
ENDBRANCH  28  29
ENDBRANCH  27  28
ENDBRANCH  26  27
ENDBRANCH  23  26
ENDBRANCH  21  22
ENDBRANCH   7  20
BRANCH   1  35
HETATM   35  C8  UNL     1      27.041  22.078   6.382  1.00  0.00     0.041 C 
BRANCH  35  36
HETATM   36  C7  UNL     1      27.370  21.987   7.820  1.00  0.00     0.006 C 
BRANCH  36  37
HETATM   37  C6  UNL     1      27.853  20.661   8.325  1.00  0.00     0.020 C 
BRANCH  37  38
HETATM   38  C5  UNL     1      26.935  19.889   9.209  1.00  0.00     0.122 C 
BRANCH  38  39
HETATM   39  N1  UNL     1      26.010  18.996   8.615  1.00  0.00    -0.361 N 
HETATM   40  C4  UNL     1      24.653  19.337   8.433  1.00  0.00     0.221 C 
HETATM   41  O1  UNL     1      24.237  20.455   8.797  1.00  0.00    -0.273 OA
ATOM     42  H1  UNL     1      26.336  18.079   8.310  1.00  0.00     0.162 HD
BRANCH  40  43
HETATM   43  C3  UNL     1      23.672  18.400   7.812  1.00  0.00     0.129 C 
BRANCH  43  44
HETATM   44  C2  UNL     1      24.279  17.075   7.553  1.00  0.00    -0.028 C 
HETATM   45  C1  UNL     1      23.554  15.982   7.703  1.00  0.00     0.007 C 
ENDBRANCH  43  44
ENDBRANCH  40  43
ENDBRANCH  38  39
ENDBRANCH  37  38
ENDBRANCH  36  37
ENDBRANCH  35  36
ENDBRANCH   1  35
BRANCH  17  46
HETATM   46  C28 UNL     1      22.891  20.181   4.285  1.00  0.00     0.225 C 
BRANCH  46  47
HETATM   47  N10 UNL     1      22.335  18.848   4.486  1.00  0.00    -0.352 N 
HETATM   48  C29 UNL     1      23.111  17.720   4.178  1.00  0.00     0.222 C 
HETATM   49  O3  UNL     1      24.279  17.873   3.732  1.00  0.00    -0.273 OA
ATOM     50  H10 UNL     1      21.388  18.736   4.848  1.00  0.00     0.162 HD
BRANCH  48  51
HETATM   51  C30 UNL     1      22.623  16.324   4.351  1.00  0.00     0.078 A 
HETATM   52  C31 UNL     1      21.543  15.944   3.352  1.00  0.00     0.015 A 
HETATM   53  C32 UNL     1      21.225  16.067   4.782  1.00  0.00     0.015 A 
ENDBRANCH  48  51
ENDBRANCH  46  47
ENDBRANCH  17  46
TORSDOF 16
ENDMDL
MODEL 5
REMARK VINA RESULT: -7.673470473      3.915     12.102
REMARK  16 active torsions:
REMARK  status: ('A' for Active; 'I' for Inactive)
REMARK    1  A    between atoms: C2_2  and  C3_3 
REMARK    2  A    between atoms: C3_3  and  C4_4 
REMARK       I    between atoms: C4_4  and  N1_6 
REMARK    3  A    between atoms: N1_6  and  C5_8 
REMARK    4  A    between atoms: C5_8  and  C6_9 
REMARK    5  A    between atoms: C6_9  and  C7_10 
REMARK    6  A    between atoms: C7_10  and  C8_11 
REMARK    7  A    between atoms: C8_11  and  C9_12 
REMARK    8  A    between atoms: C13_18  and  C14_19 
REMARK    9  A    between atoms: C15_20  and  N3_21 
REMARK   10  A    between atoms: C16_23  and  C17_25 
REMARK   11  A    between atoms: C17_25  and  C18_26 
REMARK   12  A    between atoms: C18_26  and  C19_27 
REMARK   13  A    between atoms: C19_27  and  N5_28 
REMARK       I    between atoms: N7_37  and  C26_39 
REMARK       I    between atoms: N9_41  and  C27_43 
REMARK   14  A    between atoms: C27_43  and  C28_45 
REMARK   15  A    between atoms: C28_45  and  N10_46 
REMARK       I    between atoms: N10_46  and  C29_48 
REMARK   16  A    between atoms: C29_48  and  C30_50 
ROOT
HETATM    1  C9  UNL     1      24.167  24.946   3.751  1.00  0.00    -0.026 A 
HETATM    2  C10 UNL     1      22.924  25.445   3.377  1.00  0.00     0.096 A 
HETATM    3  N2  UNL     1      22.041  24.432   3.347  1.00  0.00    -0.364 N 
ATOM      4  H2  UNL     1      21.055  24.524   3.104  1.00  0.00     0.165 HD
HETATM    5  C11 UNL     1      22.652  23.269   3.688  1.00  0.00     0.049 A 
HETATM    6  C12 UNL     1      22.215  21.963   3.792  1.00  0.00     0.069 A 
HETATM    7  C13 UNL     1      23.069  20.941   4.143  1.00  0.00     0.092 A 
HETATM    8  N6  UNL     1      24.345  21.290   4.379  1.00  0.00    -0.335 N 
ATOM      9  H6  UNL     1      25.003  20.556   4.642  1.00  0.00     0.168 HD
HETATM   10  C25 UNL     1      24.811  22.559   4.287  1.00  0.00     0.121 A 
HETATM   11  N7  UNL     1      26.045  22.846   4.497  1.00  0.00    -0.316 N 
ATOM     12  H7  UNL     1      26.382  23.806   4.427  1.00  0.00     0.170 HD
HETATM   13  C26 UNL     1      26.934  21.774   4.834  1.00  0.00     0.196 C 
HETATM   14  N8  UNL     1      27.741  21.234   3.756  1.00  0.00    -0.063 NA
HETATM   15  N9  UNL     1      27.097  21.249   5.953  1.00  0.00    -0.300 N 
ATOM     16  H9  UNL     1      27.790  20.500   5.936  1.00  0.00     0.171 HD
HETATM   17  C27 UNL     1      26.559  21.443   7.213  1.00  0.00     0.241 C 
HETATM   18  O2  UNL     1      26.308  20.394   7.907  1.00  0.00    -0.271 OA
HETATM   19  C33 UNL     1      23.972  23.600   3.937  1.00  0.00     0.043 A 
ENDROOT
BRANCH   7  20
HETATM   20  C14 UNL     1      22.621  19.570   4.244  1.00  0.00    -0.025 C 
HETATM   21  C15 UNL     1      22.262  18.423   4.351  1.00  0.00     0.019 C 
BRANCH  21  22
HETATM   22  N3  UNL     1      21.856  17.077   4.502  1.00  0.00    -0.296 N 
HETATM   23  C16 UNL     1      21.247  16.754   5.592  1.00  0.00     0.178 C 
HETATM   24  N4  UNL     1      21.004  17.724   6.588  1.00  0.00    -0.072 NA
ATOM     25  H3  UNL     1      22.038  16.386   3.774  1.00  0.00     0.178 HD
BRANCH  23  26
HETATM   26  C17 UNL     1      20.789  15.407   5.854  1.00  0.00    -0.031 C 
BRANCH  26  27
HETATM   27  C18 UNL     1      20.428  14.273   6.074  1.00  0.00    -0.068 C 
BRANCH  27  28
HETATM   28  C19 UNL     1      20.016  12.905   6.359  1.00  0.00     0.366 C 
BRANCH  28  29
HETATM   29  N5  UNL     1      19.872  12.740   7.770  1.00  0.00     0.099 N 
HETATM   30  C20 UNL     1      21.063  13.079   8.524  1.00  0.00     0.273 C 
HETATM   31  C21 UNL     1      20.660  13.289   9.948  1.00  0.00     0.030 C 
HETATM   32  C22 UNL     1      19.649  12.368  10.488  1.00  0.00     0.003 C 
HETATM   33  C23 UNL     1      19.030  11.386   9.586  1.00  0.00     0.030 C 
HETATM   34  C24 UNL     1      19.500  11.416   8.158  1.00  0.00     0.273 C 
ENDBRANCH  28  29
ENDBRANCH  27  28
ENDBRANCH  26  27
ENDBRANCH  23  26
ENDBRANCH  21  22
ENDBRANCH   7  20
BRANCH   1  35
HETATM   35  C8  UNL     1      25.407  25.783   3.928  1.00  0.00     0.041 C 
BRANCH  35  36
HETATM   36  C7  UNL     1      25.124  27.015   4.695  1.00  0.00     0.006 C 
BRANCH  36  37
HETATM   37  C6  UNL     1      25.139  28.307   3.936  1.00  0.00     0.020 C 
BRANCH  37  38
HETATM   38  C5  UNL     1      25.802  28.309   2.601  1.00  0.00     0.122 C 
BRANCH  38  39
HETATM   39  N1  UNL     1      25.044  27.934   1.465  1.00  0.00    -0.361 N 
HETATM   40  C4  UNL     1      25.543  27.038   0.496  1.00  0.00     0.221 C 
HETATM   41  O1  UNL     1      26.683  26.548   0.628  1.00  0.00    -0.273 OA
ATOM     42  H1  UNL     1      24.109  28.324   1.344  1.00  0.00     0.162 HD
BRANCH  40  43
HETATM   43  C3  UNL     1      24.753  26.641  -0.705  1.00  0.00     0.129 C 
BRANCH  43  44
HETATM   44  C2  UNL     1      23.669  25.697  -0.351  1.00  0.00    -0.028 C 
HETATM   45  C1  UNL     1      23.969  24.471   0.034  1.00  0.00     0.007 C 
ENDBRANCH  43  44
ENDBRANCH  40  43
ENDBRANCH  38  39
ENDBRANCH  37  38
ENDBRANCH  36  37
ENDBRANCH  35  36
ENDBRANCH   1  35
BRANCH  17  46
HETATM   46  C28 UNL     1      26.250  22.739   7.832  1.00  0.00     0.225 C 
BRANCH  46  47
HETATM   47  N10 UNL     1      27.374  23.663   7.732  1.00  0.00    -0.352 N 
HETATM   48  C29 UNL     1      27.130  25.039   7.602  1.00  0.00     0.222 C 
HETATM   49  O3  UNL     1      25.944  25.461   7.575  1.00  0.00    -0.273 OA
ATOM     50  H10 UNL     1      28.331  23.311   7.756  1.00  0.00     0.162 HD
BRANCH  48  51
HETATM   51  C30 UNL     1      28.218  26.051   7.493  1.00  0.00     0.078 A 
HETATM   52  C31 UNL     1      28.559  26.403   6.055  1.00  0.00     0.015 A 
HETATM   53  C32 UNL     1      29.527  25.683   6.897  1.00  0.00     0.015 A 
ENDBRANCH  48  51
ENDBRANCH  46  47
ENDBRANCH  17  46
TORSDOF 16
ENDMDL
