MODEL 1
REMARK VINA RESULT: -9.421613872      0.000      0.000
REMARK  14 active torsions:
REMARK  status: ('A' for Active; 'I' for Inactive)
REMARK    1  A    between atoms: C2_2  and  C3_3 
REMARK    2  A    between atoms: C3_3  and  C4_4 
REMARK    3  A    between atoms: C4_4  and  C5_5 
REMARK    4  A    between atoms: C5_5  and  C6_6 
REMARK       I    between atoms: C6_6  and  N1_8 
REMARK    5  A    between atoms: C9_11  and  C10_12 
REMARK       I    between atoms: C10_12  and  N2_14 
REMARK    6  A    between atoms: N2_14  and  C11_16 
REMARK    7  A    between atoms: C13_18  and  C14_19 
REMARK    8  A    between atoms: C18_27  and  C19_28 
REMARK    9  A    between atoms: C19_28  and  N5_29 
REMARK       I    between atoms: N5_29  and  C20_31 
REMARK   10  A    between atoms: C20_31  and  C21_33 
REMARK   11  A    between atoms: C21_33  and  C22_34 
REMARK   12  A    between atoms: C22_34  and  N6_35 
REMARK   13  A    between atoms: N6_35  and  C23_37 
REMARK   14  A    between atoms: C25_39  and  C26_40 
REMARK       I    between atoms: C26_40  and  N7_42 
ROOT
HETATM    1  C6  UNL     1      19.096  30.304  13.208  1.00  0.00     0.220 C 
HETATM    2  O1  UNL     1      18.409  29.424  12.639  1.00  0.00    -0.273 OA
HETATM    3  N1  UNL     1      18.644  30.768  14.468  1.00  0.00    -0.343 N 
HETATM    4  C7  UNL     1      17.448  30.323  15.126  1.00  0.00     0.127 C 
HETATM    5  C8  UNL     1      16.417  31.456  15.144  1.00  0.00     0.034 C 
HETATM    6  C9  UNL     1      17.214  32.719  14.756  1.00  0.00     0.082 C 
HETATM    7  C17 UNL     1      18.416  32.733  15.736  1.00  0.00     0.044 C 
HETATM    8  C18 UNL     1      19.451  31.795  15.184  1.00  0.00     0.126 C 
ENDROOT
BRANCH   8   9
HETATM    9  C19 UNL     1      20.320  31.109  16.162  1.00  0.00     0.089 C 
BRANCH   9  10
HETATM   10  N5  UNL     1      21.268  31.874  16.864  1.00  0.00    -0.339 N 
HETATM   11  C20 UNL     1      22.375  32.591  16.425  1.00  0.00     0.222 C 
HETATM   12  O3  UNL     1      22.768  32.716  15.272  1.00  0.00    -0.273 OA
ATOM     13  H5  UNL     1      21.117  31.909  17.872  1.00  0.00     0.167 HD
BRANCH  11  14
HETATM   14  C21 UNL     1      23.204  33.310  17.478  1.00  0.00     0.122 C 
BRANCH  14  15
HETATM   15  C22 UNL     1      22.721  34.749  17.491  1.00  0.00     0.130 C 
BRANCH  15  16
HETATM   16  N6  UNL     1      22.836  35.359  16.202  1.00  0.00    -0.376 N 
ATOM     17  H6  UNL     1      22.991  34.780  15.377  1.00  0.00     0.161 HD
BRANCH  16  18
HETATM   18  C23 UNL     1      22.744  36.636  16.083  1.00  0.00     0.102 A 
HETATM   19  C24 UNL     1      23.162  37.438  17.119  1.00  0.00     0.065 A 
HETATM   20  C25 UNL     1      23.083  38.826  17.027  1.00  0.00     0.044 A 
HETATM   21  C28 UNL     1      22.576  39.361  15.867  1.00  0.00    -0.019 A 
HETATM   22  C29 UNL     1      22.166  38.542  14.847  1.00  0.00     0.018 A 
HETATM   23  C31 UNL     1      22.238  40.630  15.169  1.00  0.00     0.047 A 
HETATM   24  N10 UNL     1      22.248  37.208  14.953  1.00  0.00    -0.346 N 
HETATM   25  C30 UNL     1      21.797  39.734  14.040  1.00  0.00     0.062 A 
ATOM     26  H10 UNL     1      21.938  36.618  14.181  1.00  0.00     0.167 HD
BRANCH  20  27
HETATM   27  C26 UNL     1      23.532  39.661  18.137  1.00  0.00     0.258 C 
HETATM   28  O4  UNL     1      22.699  40.067  18.977  1.00  0.00    -0.267 OA
HETATM   29  N7  UNL     1      24.876  40.038  18.310  1.00  0.00    -0.299 N 
HETATM   30  C27 UNL     1      25.389  41.149  17.947  1.00  0.00     0.203 C 
ATOM     31  H7  UNL     1      25.494  39.366  18.766  1.00  0.00     0.171 HD
HETATM   32  N8  UNL     1      26.779  41.323  18.223  1.00  0.00    -0.066 NA
HETATM   33  N9  UNL     1      24.632  42.187  17.294  1.00  0.00    -0.066 NA
ENDBRANCH  20  27
ENDBRANCH  16  18
ENDBRANCH  15  16
ENDBRANCH  14  15
ENDBRANCH  11  14
ENDBRANCH   9  10
ENDBRANCH   8   9
BRANCH   1  34
HETATM   34  C5  UNL     1      20.330  30.840  12.588  1.00  0.00     0.103 C 
BRANCH  34  35
HETATM   35  C4  UNL     1      21.218  29.657  12.232  1.00  0.00     0.013 C 
BRANCH  35  36
HETATM   36  C3  UNL     1      21.745  28.990  13.486  1.00  0.00     0.027 C 
BRANCH  36  37
HETATM   37  C2  UNL     1      23.108  29.496  13.754  1.00  0.00    -0.037 C 
HETATM   38  C1  UNL     1      24.123  29.100  13.017  1.00  0.00     0.007 C 
ENDBRANCH  36  37
ENDBRANCH  35  36
ENDBRANCH  34  35
ENDBRANCH   1  34
BRANCH   6  39
HETATM   39  C10 UNL     1      16.331  33.854  15.105  1.00  0.00     0.227 C 
HETATM   40  O2  UNL     1      15.677  34.415  14.219  1.00  0.00    -0.273 OA
HETATM   41  N2  UNL     1      16.295  34.231  16.478  1.00  0.00    -0.312 N 
ATOM     42  H2  UNL     1      16.220  33.503  17.189  1.00  0.00     0.170 HD
BRANCH  41  43
HETATM   43  C11 UNL     1      16.356  35.468  16.852  1.00  0.00     0.124 A 
HETATM   44  C12 UNL     1      17.522  36.079  17.290  1.00  0.00     0.076 A 
HETATM   45  C13 UNL     1      17.258  37.393  17.614  1.00  0.00     0.033 A 
HETATM   46  N3  UNL     1      15.930  37.556  17.364  1.00  0.00    -0.303 N 
HETATM   47  N4  UNL     1      15.415  36.417  16.918  1.00  0.00    -0.285 N 
ATOM     48  H3  UNL     1      15.410  38.423  17.500  1.00  0.00     0.186 HD
ATOM     49  H4  UNL     1      14.437  36.284  16.661  1.00  0.00     0.188 HD
BRANCH  45  50
HETATM   50  C14 UNL     1      18.185  38.456  18.124  1.00  0.00     0.037 A 
HETATM   51  C15 UNL     1      19.611  38.299  17.753  1.00  0.00     0.011 A 
HETATM   52  C16 UNL     1      18.843  39.314  16.997  1.00  0.00     0.011 A 
ENDBRANCH  45  50
ENDBRANCH  41  43
ENDBRANCH   6  39
TORSDOF 14
ENDMDL
MODEL 2
REMARK VINA RESULT: -9.287227458      3.076      9.745
REMARK  14 active torsions:
REMARK  status: ('A' for Active; 'I' for Inactive)
REMARK    1  A    between atoms: C2_2  and  C3_3 
REMARK    2  A    between atoms: C3_3  and  C4_4 
REMARK    3  A    between atoms: C4_4  and  C5_5 
REMARK    4  A    between atoms: C5_5  and  C6_6 
REMARK       I    between atoms: C6_6  and  N1_8 
REMARK    5  A    between atoms: C9_11  and  C10_12 
REMARK       I    between atoms: C10_12  and  N2_14 
REMARK    6  A    between atoms: N2_14  and  C11_16 
REMARK    7  A    between atoms: C13_18  and  C14_19 
REMARK    8  A    between atoms: C18_27  and  C19_28 
REMARK    9  A    between atoms: C19_28  and  N5_29 
REMARK       I    between atoms: N5_29  and  C20_31 
REMARK   10  A    between atoms: C20_31  and  C21_33 
REMARK   11  A    between atoms: C21_33  and  C22_34 
REMARK   12  A    between atoms: C22_34  and  N6_35 
REMARK   13  A    between atoms: N6_35  and  C23_37 
REMARK   14  A    between atoms: C25_39  and  C26_40 
REMARK       I    between atoms: C26_40  and  N7_42 
ROOT
HETATM    1  C6  UNL     1      17.268  35.131  17.439  1.00  0.00     0.220 C 
HETATM    2  O1  UNL     1      16.697  35.471  18.502  1.00  0.00    -0.273 OA
HETATM    3  N1  UNL     1      18.640  34.788  17.519  1.00  0.00    -0.343 N 
HETATM    4  C7  UNL     1      19.427  34.824  18.720  1.00  0.00     0.127 C 
HETATM    5  C8  UNL     1      20.456  35.956  18.627  1.00  0.00     0.034 C 
HETATM    6  C9  UNL     1      20.454  36.368  17.140  1.00  0.00     0.082 C 
HETATM    7  C17 UNL     1      20.674  35.040  16.370  1.00  0.00     0.044 C 
HETATM    8  C18 UNL     1      19.342  34.353  16.280  1.00  0.00     0.126 C 
ENDROOT
BRANCH   8   9
HETATM    9  C19 UNL     1      19.353  32.876  16.241  1.00  0.00     0.089 C 
BRANCH   9  10
HETATM   10  N5  UNL     1      19.423  32.241  14.988  1.00  0.00    -0.339 N 
HETATM   11  C20 UNL     1      20.442  32.185  14.045  1.00  0.00     0.222 C 
HETATM   12  O3  UNL     1      21.551  32.698  14.119  1.00  0.00    -0.273 OA
ATOM     13  H5  UNL     1      18.578  31.733  14.727  1.00  0.00     0.167 HD
BRANCH  11  14
HETATM   14  C21 UNL     1      20.170  31.401  12.770  1.00  0.00     0.122 C 
BRANCH  14  15
HETATM   15  C22 UNL     1      20.401  29.939  13.112  1.00  0.00     0.130 C 
BRANCH  15  16
HETATM   16  N6  UNL     1      21.698  29.725  13.675  1.00  0.00    -0.376 N 
ATOM     17  H6  UNL     1      21.956  30.183  14.549  1.00  0.00     0.161 HD
BRANCH  16  18
HETATM   18  C23 UNL     1      22.540  28.956  13.080  1.00  0.00     0.102 A 
HETATM   19  C24 UNL     1      22.076  27.860  12.391  1.00  0.00     0.065 A 
HETATM   20  C25 UNL     1      22.955  27.005  11.729  1.00  0.00     0.044 A 
HETATM   21  C28 UNL     1      24.297  27.298  11.789  1.00  0.00    -0.019 A 
HETATM   22  C29 UNL     1      24.736  28.397  12.482  1.00  0.00     0.018 A 
HETATM   23  C31 UNL     1      25.651  26.854  11.362  1.00  0.00     0.047 A 
HETATM   24  N10 UNL     1      23.876  29.208  13.114  1.00  0.00    -0.346 N 
HETATM   25  C30 UNL     1      26.138  28.067  12.112  1.00  0.00     0.062 A 
ATOM     26  H10 UNL     1      24.226  30.019  13.623  1.00  0.00     0.167 HD
BRANCH  20  27
HETATM   27  C26 UNL     1      22.444  25.847  11.002  1.00  0.00     0.258 C 
HETATM   28  O4  UNL     1      22.959  25.533   9.906  1.00  0.00    -0.267 OA
HETATM   29  N7  UNL     1      21.384  25.056  11.480  1.00  0.00    -0.299 N 
HETATM   30  C27 UNL     1      20.160  25.163  11.131  1.00  0.00     0.203 C 
ATOM     31  H7  UNL     1      21.612  24.335  12.164  1.00  0.00     0.171 HD
HETATM   32  N8  UNL     1      19.246  24.253  11.744  1.00  0.00    -0.066 NA
HETATM   33  N9  UNL     1      19.699  26.138  10.175  1.00  0.00    -0.066 NA
ENDBRANCH  20  27
ENDBRANCH  16  18
ENDBRANCH  15  16
ENDBRANCH  14  15
ENDBRANCH  11  14
ENDBRANCH   9  10
ENDBRANCH   8   9
BRANCH   1  34
HETATM   34  C5  UNL     1      16.538  35.092  16.151  1.00  0.00     0.103 C 
BRANCH  34  35
HETATM   35  C4  UNL     1      15.683  33.833  16.144  1.00  0.00     0.013 C 
BRANCH  35  36
HETATM   36  C3  UNL     1      15.679  33.200  14.769  1.00  0.00     0.027 C 
BRANCH  36  37
HETATM   37  C2  UNL     1      15.438  31.749  14.916  1.00  0.00    -0.037 C 
HETATM   38  C1  UNL     1      16.438  30.896  14.844  1.00  0.00     0.007 C 
ENDBRANCH  36  37
ENDBRANCH  35  36
ENDBRANCH  34  35
ENDBRANCH   1  34
BRANCH   6  39
HETATM   39  C10 UNL     1      21.667  37.198  16.969  1.00  0.00     0.227 C 
HETATM   40  O2  UNL     1      22.351  37.490  17.956  1.00  0.00    -0.273 OA
HETATM   41  N2  UNL     1      21.969  37.614  15.641  1.00  0.00    -0.312 N 
ATOM     42  H2  UNL     1      21.907  36.933  14.884  1.00  0.00     0.170 HD
BRANCH  41  43
HETATM   43  C11 UNL     1      22.321  38.828  15.365  1.00  0.00     0.124 A 
HETATM   44  C12 UNL     1      22.327  39.350  14.080  1.00  0.00     0.076 A 
HETATM   45  C13 UNL     1      22.748  40.662  14.118  1.00  0.00     0.033 A 
HETATM   46  N3  UNL     1      22.990  40.914  15.434  1.00  0.00    -0.303 N 
HETATM   47  N4  UNL     1      22.734  39.828  16.152  1.00  0.00    -0.285 N 
ATOM     48  H3  UNL     1      23.318  41.803  15.811  1.00  0.00     0.186 HD
ATOM     49  H4  UNL     1      22.839  39.764  17.165  1.00  0.00     0.188 HD
BRANCH  45  50
HETATM   50  C14 UNL     1      22.916  41.645  12.999  1.00  0.00     0.037 A 
HETATM   51  C15 UNL     1      23.952  42.684  13.205  1.00  0.00     0.011 A 
HETATM   52  C16 UNL     1      24.310  41.571  12.297  1.00  0.00     0.011 A 
ENDBRANCH  45  50
ENDBRANCH  41  43
ENDBRANCH   6  39
TORSDOF 14
ENDMDL
MODEL 3
REMARK VINA RESULT: -9.222164177      3.943      8.965
REMARK  14 active torsions:
REMARK  status: ('A' for Active; 'I' for Inactive)
REMARK    1  A    between atoms: C2_2  and  C3_3 
REMARK    2  A    between atoms: C3_3  and  C4_4 
REMARK    3  A    between atoms: C4_4  and  C5_5 
REMARK    4  A    between atoms: C5_5  and  C6_6 
REMARK       I    between atoms: C6_6  and  N1_8 
REMARK    5  A    between atoms: C9_11  and  C10_12 
REMARK       I    between atoms: C10_12  and  N2_14 
REMARK    6  A    between atoms: N2_14  and  C11_16 
REMARK    7  A    between atoms: C13_18  and  C14_19 
REMARK    8  A    between atoms: C18_27  and  C19_28 
REMARK    9  A    between atoms: C19_28  and  N5_29 
REMARK       I    between atoms: N5_29  and  C20_31 
REMARK   10  A    between atoms: C20_31  and  C21_33 
REMARK   11  A    between atoms: C21_33  and  C22_34 
REMARK   12  A    between atoms: C22_34  and  N6_35 
REMARK   13  A    between atoms: N6_35  and  C23_37 
REMARK   14  A    between atoms: C25_39  and  C26_40 
REMARK       I    between atoms: C26_40  and  N7_42 
ROOT
HETATM    1  C6  UNL     1      19.954  32.265  14.564  1.00  0.00     0.220 C 
HETATM    2  O1  UNL     1      20.521  32.951  13.681  1.00  0.00    -0.273 OA
HETATM    3  N1  UNL     1      18.606  32.580  14.865  1.00  0.00    -0.343 N 
HETATM    4  C7  UNL     1      17.853  33.639  14.253  1.00  0.00     0.127 C 
HETATM    5  C8  UNL     1      17.588  34.743  15.281  1.00  0.00     0.034 C 
HETATM    6  C9  UNL     1      17.940  34.107  16.642  1.00  0.00     0.082 C 
HETATM    7  C17 UNL     1      17.122  32.788  16.675  1.00  0.00     0.044 C 
HETATM    8  C18 UNL     1      17.894  31.767  15.890  1.00  0.00     0.126 C 
ENDROOT
BRANCH   8   9
HETATM    9  C19 UNL     1      17.110  30.724  15.198  1.00  0.00     0.089 C 
BRANCH   9  10
HETATM   10  N5  UNL     1      17.548  30.288  13.935  1.00  0.00    -0.339 N 
HETATM   11  C20 UNL     1      18.119  29.088  13.527  1.00  0.00     0.222 C 
HETATM   12  O3  UNL     1      18.364  28.109  14.220  1.00  0.00    -0.273 OA
ATOM     13  H5  UNL     1      17.424  30.971  13.188  1.00  0.00     0.167 HD
BRANCH  11  14
HETATM   14  C21 UNL     1      18.487  28.955  12.057  1.00  0.00     0.122 C 
BRANCH  14  15
HETATM   15  C22 UNL     1      19.962  29.302  11.954  1.00  0.00     0.130 C 
BRANCH  15  16
HETATM   16  N6  UNL     1      20.759  28.488  12.819  1.00  0.00    -0.376 N 
ATOM     17  H6  UNL     1      20.360  28.118  13.682  1.00  0.00     0.161 HD
BRANCH  16  18
HETATM   18  C23 UNL     1      21.979  28.223  12.510  1.00  0.00     0.102 A 
HETATM   19  C24 UNL     1      22.258  27.074  11.807  1.00  0.00     0.065 A 
HETATM   20  C25 UNL     1      23.566  26.753  11.449  1.00  0.00     0.044 A 
HETATM   21  C28 UNL     1      24.562  27.625  11.821  1.00  0.00    -0.019 A 
HETATM   22  C29 UNL     1      24.260  28.765  12.521  1.00  0.00     0.018 A 
HETATM   23  C31 UNL     1      26.028  27.875  11.777  1.00  0.00     0.047 A 
HETATM   24  N10 UNL     1      22.995  29.057  12.857  1.00  0.00    -0.346 N 
HETATM   25  C30 UNL     1      25.699  29.135  12.536  1.00  0.00     0.062 A 
ATOM     26  H10 UNL     1      22.794  29.911  13.378  1.00  0.00     0.167 HD
BRANCH  20  27
HETATM   27  C26 UNL     1      23.843  25.530  10.702  1.00  0.00     0.258 C 
HETATM   28  O4  UNL     1      24.902  24.902  10.923  1.00  0.00    -0.267 OA
HETATM   29  N7  UNL     1      22.965  25.015   9.732  1.00  0.00    -0.299 N 
HETATM   30  C27 UNL     1      23.065  25.190   8.471  1.00  0.00     0.203 C 
ATOM     31  H7  UNL     1      22.180  24.455  10.064  1.00  0.00     0.171 HD
HETATM   32  N8  UNL     1      22.059  24.575   7.666  1.00  0.00    -0.066 NA
HETATM   33  N9  UNL     1      24.123  25.960   7.868  1.00  0.00    -0.066 NA
ENDBRANCH  20  27
ENDBRANCH  16  18
ENDBRANCH  15  16
ENDBRANCH  14  15
ENDBRANCH  11  14
ENDBRANCH   9  10
ENDBRANCH   8   9
BRANCH   1  34
HETATM   34  C5  UNL     1      20.665  31.171  15.265  1.00  0.00     0.103 C 
BRANCH  34  35
HETATM   35  C4  UNL     1      22.077  31.653  15.560  1.00  0.00     0.013 C 
BRANCH  35  36
HETATM   36  C3  UNL     1      22.086  32.565  16.770  1.00  0.00     0.027 C 
BRANCH  36  37
HETATM   37  C2  UNL     1      23.149  33.577  16.592  1.00  0.00    -0.037 C 
HETATM   38  C1  UNL     1      23.231  34.269  15.476  1.00  0.00     0.007 C 
ENDBRANCH  36  37
ENDBRANCH  35  36
ENDBRANCH  34  35
ENDBRANCH   1  34
BRANCH   6  39
HETATM   39  C10 UNL     1      17.366  35.021  17.655  1.00  0.00     0.227 C 
HETATM   40  O2  UNL     1      16.298  34.732  18.203  1.00  0.00    -0.273 OA
HETATM   41  N2  UNL     1      18.109  36.204  17.933  1.00  0.00    -0.312 N 
ATOM     42  H2  UNL     1      19.118  36.136  18.062  1.00  0.00     0.170 HD
BRANCH  41  43
HETATM   43  C11 UNL     1      17.542  37.364  18.028  1.00  0.00     0.124 A 
HETATM   44  C12 UNL     1      17.612  38.334  17.038  1.00  0.00     0.076 A 
HETATM   45  C13 UNL     1      16.909  39.450  17.438  1.00  0.00     0.033 A 
HETATM   46  N3  UNL     1      16.421  39.135  18.669  1.00  0.00    -0.303 N 
HETATM   47  N4  UNL     1      16.801  37.907  19.001  1.00  0.00    -0.285 N 
ATOM     48  H3  UNL     1      15.850  39.749  19.249  1.00  0.00     0.186 HD
ATOM     49  H4  UNL     1      16.562  37.443  19.876  1.00  0.00     0.188 HD
BRANCH  45  50
HETATM   50  C14 UNL     1      16.688  40.748  16.720  1.00  0.00     0.037 A 
HETATM   51  C15 UNL     1      16.309  41.898  17.572  1.00  0.00     0.011 A 
HETATM   52  C16 UNL     1      17.712  41.863  17.103  1.00  0.00     0.011 A 
ENDBRANCH  45  50
ENDBRANCH  41  43
ENDBRANCH   6  39
TORSDOF 14
ENDMDL
MODEL 4
REMARK VINA RESULT: -9.150344846      2.839      7.858
REMARK  14 active torsions:
REMARK  status: ('A' for Active; 'I' for Inactive)
REMARK    1  A    between atoms: C2_2  and  C3_3 
REMARK    2  A    between atoms: C3_3  and  C4_4 
REMARK    3  A    between atoms: C4_4  and  C5_5 
REMARK    4  A    between atoms: C5_5  and  C6_6 
REMARK       I    between atoms: C6_6  and  N1_8 
REMARK    5  A    between atoms: C9_11  and  C10_12 
REMARK       I    between atoms: C10_12  and  N2_14 
REMARK    6  A    between atoms: N2_14  and  C11_16 
REMARK    7  A    between atoms: C13_18  and  C14_19 
REMARK    8  A    between atoms: C18_27  and  C19_28 
REMARK    9  A    between atoms: C19_28  and  N5_29 
REMARK       I    between atoms: N5_29  and  C20_31 
REMARK   10  A    between atoms: C20_31  and  C21_33 
REMARK   11  A    between atoms: C21_33  and  C22_34 
REMARK   12  A    between atoms: C22_34  and  N6_35 
REMARK   13  A    between atoms: N6_35  and  C23_37 
REMARK   14  A    between atoms: C25_39  and  C26_40 
REMARK       I    between atoms: C26_40  and  N7_42 
ROOT
HETATM    1  C6  UNL     1      18.321  32.777  14.885  1.00  0.00     0.220 C 
HETATM    2  O1  UNL     1      18.202  33.758  14.116  1.00  0.00    -0.273 OA
HETATM    3  N1  UNL     1      19.422  31.911  14.669  1.00  0.00    -0.343 N 
HETATM    4  C7  UNL     1      20.392  32.063  13.621  1.00  0.00     0.127 C 
HETATM    5  C8  UNL     1      20.226  30.935  12.598  1.00  0.00     0.034 C 
HETATM    6  C9  UNL     1      19.313  29.904  13.294  1.00  0.00     0.082 C 
HETATM    7  C17 UNL     1      20.004  29.635  14.658  1.00  0.00     0.044 C 
HETATM    8  C18 UNL     1      19.610  30.750  15.583  1.00  0.00     0.126 C 
ENDROOT
BRANCH   8   9
HETATM    9  C19 UNL     1      20.584  31.128  16.627  1.00  0.00     0.089 C 
BRANCH   9  10
HETATM   10  N5  UNL     1      20.951  32.481  16.738  1.00  0.00    -0.339 N 
HETATM   11  C20 UNL     1      22.199  33.091  16.794  1.00  0.00     0.222 C 
HETATM   12  O3  UNL     1      23.294  32.545  16.746  1.00  0.00    -0.273 OA
ATOM     13  H5  UNL     1      20.164  33.128  16.787  1.00  0.00     0.167 HD
BRANCH  11  14
HETATM   14  C21 UNL     1      22.230  34.606  16.927  1.00  0.00     0.122 C 
BRANCH  14  15
HETATM   15  C22 UNL     1      20.781  35.060  16.956  1.00  0.00     0.130 C 
BRANCH  15  16
HETATM   16  N6  UNL     1      20.556  36.049  17.965  1.00  0.00    -0.376 N 
ATOM     17  H6  UNL     1      20.789  35.847  18.937  1.00  0.00     0.161 HD
BRANCH  16  18
HETATM   18  C23 UNL     1      20.060  37.192  17.647  1.00  0.00     0.102 A 
HETATM   19  C24 UNL     1      18.790  37.512  18.065  1.00  0.00     0.065 A 
HETATM   20  C25 UNL     1      18.218  38.742  17.745  1.00  0.00     0.044 A 
HETATM   21  C28 UNL     1      18.969  39.620  17.001  1.00  0.00    -0.019 A 
HETATM   22  C29 UNL     1      20.235  39.280  16.595  1.00  0.00     0.018 A 
HETATM   23  C31 UNL     1      18.977  40.964  16.363  1.00  0.00     0.047 A 
HETATM   24  N10 UNL     1      20.768  38.091  16.912  1.00  0.00    -0.346 N 
HETATM   25  C30 UNL     1      20.373  40.600  15.925  1.00  0.00     0.062 A 
ATOM     26  H10 UNL     1      21.711  37.860  16.599  1.00  0.00     0.167 HD
BRANCH  20  27
HETATM   27  C26 UNL     1      16.869  39.064  18.199  1.00  0.00     0.258 C 
HETATM   28  O4  UNL     1      16.017  39.451  17.368  1.00  0.00    -0.267 OA
HETATM   29  N7  UNL     1      16.473  38.960  19.544  1.00  0.00    -0.299 N 
HETATM   30  C27 UNL     1      16.424  39.922  20.381  1.00  0.00     0.203 C 
ATOM     31  H7  UNL     1      16.202  38.035  19.880  1.00  0.00     0.171 HD
HETATM   32  N8  UNL     1      15.992  39.590  21.701  1.00  0.00    -0.066 NA
HETATM   33  N9  UNL     1      16.780  41.277  20.041  1.00  0.00    -0.066 NA
ENDBRANCH  20  27
ENDBRANCH  16  18
ENDBRANCH  15  16
ENDBRANCH  14  15
ENDBRANCH  11  14
ENDBRANCH   9  10
ENDBRANCH   8   9
BRANCH   1  34
HETATM   34  C5  UNL     1      17.350  32.530  15.976  1.00  0.00     0.103 C 
BRANCH  34  35
HETATM   35  C4  UNL     1      17.203  33.823  16.763  1.00  0.00     0.013 C 
BRANCH  35  36
HETATM   36  C3  UNL     1      15.763  34.028  17.186  1.00  0.00     0.027 C 
BRANCH  36  37
HETATM   37  C2  UNL     1      15.341  35.387  16.785  1.00  0.00    -0.037 C 
HETATM   38  C1  UNL     1      16.096  36.112  15.988  1.00  0.00     0.007 C 
ENDBRANCH  36  37
ENDBRANCH  35  36
ENDBRANCH  34  35
ENDBRANCH   1  34
BRANCH   6  39
HETATM   39  C10 UNL     1      19.428  28.675  12.478  1.00  0.00     0.227 C 
HETATM   40  O2  UNL     1      18.572  27.790  12.582  1.00  0.00    -0.273 OA
HETATM   41  N2  UNL     1      20.550  28.597  11.604  1.00  0.00    -0.312 N 
ATOM     42  H2  UNL     1      20.795  29.411  11.039  1.00  0.00     0.170 HD
BRANCH  41  43
HETATM   43  C11 UNL     1      21.269  27.525  11.503  1.00  0.00     0.124 A 
HETATM   44  C12 UNL     1      22.601  27.531  11.118  1.00  0.00     0.076 A 
HETATM   45  C13 UNL     1      23.082  26.239  11.108  1.00  0.00     0.033 A 
HETATM   46  N3  UNL     1      22.027  25.469  11.491  1.00  0.00    -0.303 N 
HETATM   47  N4  UNL     1      20.970  26.239  11.719  1.00  0.00    -0.285 N 
ATOM     48  H3  UNL     1      22.046  24.454  11.587  1.00  0.00     0.186 HD
ATOM     49  H4  UNL     1      20.057  25.898  12.017  1.00  0.00     0.188 HD
BRANCH  45  50
HETATM   50  C14 UNL     1      24.452  25.732  10.769  1.00  0.00     0.037 A 
HETATM   51  C15 UNL     1      25.321  26.674  10.025  1.00  0.00     0.011 A 
HETATM   52  C16 UNL     1      25.607  26.516  11.469  1.00  0.00     0.011 A 
ENDBRANCH  45  50
ENDBRANCH  41  43
ENDBRANCH   6  39
TORSDOF 14
ENDMDL
MODEL 5
REMARK VINA RESULT: -9.059368565      2.423      7.057
REMARK  14 active torsions:
REMARK  status: ('A' for Active; 'I' for Inactive)
REMARK    1  A    between atoms: C2_2  and  C3_3 
REMARK    2  A    between atoms: C3_3  and  C4_4 
REMARK    3  A    between atoms: C4_4  and  C5_5 
REMARK    4  A    between atoms: C5_5  and  C6_6 
REMARK       I    between atoms: C6_6  and  N1_8 
REMARK    5  A    between atoms: C9_11  and  C10_12 
REMARK       I    between atoms: C10_12  and  N2_14 
REMARK    6  A    between atoms: N2_14  and  C11_16 
REMARK    7  A    between atoms: C13_18  and  C14_19 
REMARK    8  A    between atoms: C18_27  and  C19_28 
REMARK    9  A    between atoms: C19_28  and  N5_29 
REMARK       I    between atoms: N5_29  and  C20_31 
REMARK   10  A    between atoms: C20_31  and  C21_33 
REMARK   11  A    between atoms: C21_33  and  C22_34 
REMARK   12  A    between atoms: C22_34  and  N6_35 
REMARK   13  A    between atoms: N6_35  and  C23_37 
REMARK   14  A    between atoms: C25_39  and  C26_40 
REMARK       I    between atoms: C26_40  and  N7_42 
ROOT
HETATM    1  C6  UNL     1      17.777  33.243  14.973  1.00  0.00     0.220 C 
HETATM    2  O1  UNL     1      17.491  34.064  14.070  1.00  0.00    -0.273 OA
HETATM    3  N1  UNL     1      18.950  32.467  14.798  1.00  0.00    -0.343 N 
HETATM    4  C7  UNL     1      19.817  32.536  13.655  1.00  0.00     0.127 C 
HETATM    5  C8  UNL     1      19.705  31.240  12.845  1.00  0.00     0.034 C 
HETATM    6  C9  UNL     1      18.968  30.256  13.777  1.00  0.00     0.082 C 
HETATM    7  C17 UNL     1      19.783  30.290  15.097  1.00  0.00     0.044 C 
HETATM    8  C18 UNL     1      19.335  31.501  15.864  1.00  0.00     0.126 C 
ENDROOT
BRANCH   8   9
HETATM    9  C19 UNL     1      20.334  32.145  16.741  1.00  0.00     0.089 C 
BRANCH   9  10
HETATM   10  N5  UNL     1      21.462  32.736  16.145  1.00  0.00    -0.339 N 
HETATM   11  C20 UNL     1      22.382  33.656  16.635  1.00  0.00     0.222 C 
HETATM   12  O3  UNL     1      22.402  34.162  17.750  1.00  0.00    -0.273 OA
ATOM     13  H5  UNL     1      21.637  32.437  15.186  1.00  0.00     0.167 HD
BRANCH  11  14
HETATM   14  C21 UNL     1      23.496  34.096  15.698  1.00  0.00     0.122 C 
BRANCH  14  15
HETATM   15  C22 UNL     1      22.895  35.155  14.789  1.00  0.00     0.130 C 
BRANCH  15  16
HETATM   16  N6  UNL     1      21.969  35.991  15.490  1.00  0.00    -0.376 N 
ATOM     17  H6  UNL     1      21.214  35.572  16.032  1.00  0.00     0.161 HD
BRANCH  16  18
HETATM   18  C23 UNL     1      22.088  37.270  15.435  1.00  0.00     0.102 A 
HETATM   19  C24 UNL     1      22.171  37.987  16.605  1.00  0.00     0.065 A 
HETATM   20  C25 UNL     1      22.306  39.374  16.589  1.00  0.00     0.044 A 
HETATM   21  C28 UNL     1      22.354  39.996  15.363  1.00  0.00    -0.019 A 
HETATM   22  C29 UNL     1      22.270  39.260  14.209  1.00  0.00     0.018 A 
HETATM   23  C31 UNL     1      22.470  41.312  14.680  1.00  0.00     0.047 A 
HETATM   24  N10 UNL     1      22.140  37.926  14.245  1.00  0.00    -0.346 N 
HETATM   25  C30 UNL     1      22.390  40.507  13.408  1.00  0.00     0.062 A 
ATOM     26  H10 UNL     1      22.080  37.400  13.373  1.00  0.00     0.167 HD
BRANCH  20  27
HETATM   27  C26 UNL     1      22.393  40.118  17.842  1.00  0.00     0.258 C 
HETATM   28  O4  UNL     1      23.170  39.722  18.739  1.00  0.00    -0.267 OA
HETATM   29  N7  UNL     1      21.634  41.274  18.094  1.00  0.00    -0.299 N 
HETATM   30  C27 UNL     1      20.538  41.315  18.748  1.00  0.00     0.203 C 
ATOM     31  H7  UNL     1      21.989  42.155  17.723  1.00  0.00     0.171 HD
HETATM   32  N8  UNL     1      19.932  42.601  18.885  1.00  0.00    -0.066 NA
HETATM   33  N9  UNL     1      19.924  40.146  19.326  1.00  0.00    -0.066 NA
ENDBRANCH  20  27
ENDBRANCH  16  18
ENDBRANCH  15  16
ENDBRANCH  14  15
ENDBRANCH  11  14
ENDBRANCH   9  10
ENDBRANCH   8   9
BRANCH   1  34
HETATM   34  C5  UNL     1      16.924  33.088  16.173  1.00  0.00     0.103 C 
BRANCH  34  35
HETATM   35  C4  UNL     1      15.645  33.876  15.934  1.00  0.00     0.013 C 
BRANCH  35  36
HETATM   36  C3  UNL     1      15.251  34.644  17.178  1.00  0.00     0.027 C 
BRANCH  36  37
HETATM   37  C2  UNL     1      16.292  35.654  17.461  1.00  0.00    -0.037 C 
HETATM   38  C1  UNL     1      16.400  36.729  16.709  1.00  0.00     0.007 C 
ENDBRANCH  36  37
ENDBRANCH  35  36
ENDBRANCH  34  35
ENDBRANCH   1  34
BRANCH   6  39
HETATM   39  C10 UNL     1      19.160  28.924  13.161  1.00  0.00     0.227 C 
HETATM   40  O2  UNL     1      18.585  27.941  13.639  1.00  0.00    -0.273 OA
HETATM   41  N2  UNL     1      20.020  28.869  12.026  1.00  0.00    -0.312 N 
ATOM     42  H2  UNL     1      19.923  29.576  11.298  1.00  0.00     0.170 HD
BRANCH  41  43
HETATM   43  C11 UNL     1      20.920  27.949  11.891  1.00  0.00     0.124 A 
HETATM   44  C12 UNL     1      22.273  28.217  11.740  1.00  0.00     0.076 A 
HETATM   45  C13 UNL     1      22.966  27.032  11.622  1.00  0.00     0.033 A 
HETATM   46  N3  UNL     1      22.016  26.061  11.704  1.00  0.00    -0.303 N 
HETATM   47  N4  UNL     1      20.821  26.615  11.862  1.00  0.00    -0.285 N 
ATOM     48  H3  UNL     1      22.196  25.058  11.652  1.00  0.00     0.186 HD
ATOM     49  H4  UNL     1      19.947  26.096  11.949  1.00  0.00     0.188 HD
BRANCH  45  50
HETATM   50  C14 UNL     1      24.437  26.799  11.446  1.00  0.00     0.037 A 
HETATM   51  C15 UNL     1      24.808  25.628  10.618  1.00  0.00     0.011 A 
HETATM   52  C16 UNL     1      24.929  26.954   9.972  1.00  0.00     0.011 A 
ENDBRANCH  45  50
ENDBRANCH  41  43
ENDBRANCH   6  39
TORSDOF 14
ENDMDL
