MODEL 1
REMARK VINA RESULT: -7.697102382      0.000      0.000
REMARK  12 active torsions:
REMARK  status: ('A' for Active; 'I' for Inactive)
REMARK    1  A    between atoms: C2_2  and  C3_3 
REMARK    2  A    between atoms: C7_9  and  C8_10 
REMARK    3  A    between atoms: C8_10  and  C9_11 
REMARK    4  A    between atoms: C11_16  and  C12_17 
REMARK    5  A    between atoms: C12_17  and  N3_18 
REMARK    6  A    between atoms: C18_27  and  C19_28 
REMARK    7  A    between atoms: C19_28  and  C20_29 
REMARK    8  A    between atoms: C20_29  and  C21_30 
REMARK    9  A    between atoms: C21_30  and  C22_31 
REMARK   10  A    between atoms: C22_31  and  C23_32 
REMARK   11  A    between atoms: C23_32  and  N5_33 
REMARK   12  A    between atoms: C28_41  and  O3_42 
ROOT
HETATM    1  C9  UNL     1      21.534  29.624  13.545  1.00  0.00     0.181 C 
HETATM    2  N2  UNL     1      21.074  29.840  14.902  1.00  0.00    -0.346 N 
ATOM      3  H2  UNL     1      20.833  29.011  15.446  1.00  0.00     0.163 HD
HETATM    4  C10 UNL     1      20.929  31.094  15.545  1.00  0.00     0.242 C 
HETATM    5  O1  UNL     1      21.098  31.183  16.804  1.00  0.00    -0.271 OA
HETATM    6  C11 UNL     1      20.580  32.372  14.856  1.00  0.00     0.204 C 
HETATM    7  N4  UNL     1      19.326  32.934  15.198  1.00  0.00    -0.344 N 
ATOM      8  H4  UNL     1      19.299  33.386  16.112  1.00  0.00     0.163 HD
HETATM    9  C17 UNL     1      18.108  32.973  14.486  1.00  0.00     0.241 C 
HETATM   10  O2  UNL     1      17.604  34.109  14.136  1.00  0.00    -0.271 OA
HETATM   11  C18 UNL     1      17.266  31.791  14.057  1.00  0.00     0.175 C 
HETATM   12  N7  UNL     1      17.551  30.600  14.788  1.00  0.00    -0.359 N 
ATOM     13  H7  UNL     1      17.609  30.757  15.794  1.00  0.00     0.162 HD
HETATM   14  C28 UNL     1      17.766  29.285  14.437  1.00  0.00     0.135 C 
HETATM   15  C29 UNL     1      18.484  28.585  13.420  1.00  0.00     0.161 C 
HETATM   16  C30 UNL     1      17.397  27.723  12.720  1.00  0.00     0.035 C 
HETATM   17  C31 UNL     1      17.080  28.692  11.591  1.00  0.00     0.022 C 
HETATM   18  C32 UNL     1      18.463  29.050  11.172  1.00  0.00     0.127 C 
HETATM   19  N8  UNL     1      19.241  29.157  12.404  1.00  0.00    -0.338 N 
HETATM   20  C33 UNL     1      20.546  29.722  12.490  1.00  0.00     0.243 C 
HETATM   21  O4  UNL     1      20.857  30.414  11.456  1.00  0.00    -0.271 OA
ENDROOT
BRANCH  11  22
HETATM   22  C19 UNL     1      15.856  32.183  14.537  1.00  0.00     0.035 C 
BRANCH  22  23
HETATM   23  C20 UNL     1      15.601  31.934  15.979  1.00  0.00     0.002 C 
BRANCH  23  24
HETATM   24  C21 UNL     1      15.282  33.342  16.544  1.00  0.00     0.002 C 
BRANCH  24  25
HETATM   25  C22 UNL     1      16.304  33.825  17.498  1.00  0.00     0.030 C 
BRANCH  25  26
HETATM   26  C23 UNL     1      16.055  35.251  17.873  1.00  0.00     0.260 C 
BRANCH  26  27
HETATM   27  N5  UNL     1      16.962  36.230  17.388  1.00  0.00     0.006 N 
HETATM   28  C24 UNL     1      16.507  36.797  16.105  1.00  0.00     0.297 C 
HETATM   29  C25 UNL     1      17.256  37.324  18.247  1.00  0.00     0.261 C 
HETATM   30  C26 UNL     1      18.784  37.481  18.155  1.00  0.00     0.047 C 
HETATM   31  C27 UNL     1      19.150  35.994  18.062  1.00  0.00     0.144 C 
HETATM   32  N6  UNL     1      18.167  35.562  17.104  1.00  0.00    -0.047 NA
ENDBRANCH  26  27
ENDBRANCH  25  26
ENDBRANCH  24  25
ENDBRANCH  23  24
ENDBRANCH  22  23
ENDBRANCH  11  22
BRANCH  14  33
HETATM   33  O3  UNL     1      17.155  28.452  15.243  1.00  0.00    -0.348 OA
ATOM     34  H3  UNL     1      17.497  28.493  16.129  1.00  0.00     0.219 HD
ENDBRANCH  14  33
BRANCH   6  35
HETATM   35  C12 UNL     1      21.798  33.247  14.953  1.00  0.00     0.307 C 
BRANCH  35  36
HETATM   36  N3  UNL     1      21.665  34.486  15.641  1.00  0.00     0.090 N 
HETATM   37  C13 UNL     1      22.431  34.304  16.927  1.00  0.00     0.272 C 
HETATM   38  C14 UNL     1      23.830  34.160  16.398  1.00  0.00     0.032 C 
HETATM   39  C15 UNL     1      23.867  35.110  15.232  1.00  0.00     0.032 C 
HETATM   40  C16 UNL     1      22.435  35.604  15.141  1.00  0.00     0.272 C 
ENDBRANCH  35  36
ENDBRANCH   6  35
BRANCH   1  41
HETATM   41  C8  UNL     1      22.380  28.377  13.547  1.00  0.00     0.076 C 
BRANCH  41  42
HETATM   42  C7  UNL     1      23.005  27.979  12.288  1.00  0.00    -0.026 A 
HETATM   43  C3  UNL     1      24.247  28.296  11.816  1.00  0.00    -0.035 A 
HETATM   44  C4  UNL     1      24.398  27.660  10.599  1.00  0.00     0.095 A 
HETATM   45  N1  UNL     1      23.280  26.983  10.351  1.00  0.00    -0.368 N 
HETATM   46  C5  UNL     1      22.405  27.141  11.340  1.00  0.00     0.012 A 
ATOM     47  H1  UNL     1      23.116  26.419   9.517  1.00  0.00     0.165 HD
HETATM   48  C6  UNL     1      21.032  26.518  11.422  1.00  0.00     0.068 C 
BRANCH  43  49
HETATM   49  C2  UNL     1      25.336  29.149  12.360  1.00  0.00     0.036 C 
HETATM   50  C1  UNL     1      26.457  28.340  12.922  1.00  0.00     0.010 C 
ENDBRANCH  43  49
ENDBRANCH  41  42
ENDBRANCH   1  41
TORSDOF 12
ENDMDL
MODEL 2
REMARK VINA RESULT: -7.434983195      4.496     10.030
REMARK  12 active torsions:
REMARK  status: ('A' for Active; 'I' for Inactive)
REMARK    1  A    between atoms: C2_2  and  C3_3 
REMARK    2  A    between atoms: C7_9  and  C8_10 
REMARK    3  A    between atoms: C8_10  and  C9_11 
REMARK    4  A    between atoms: C11_16  and  C12_17 
REMARK    5  A    between atoms: C12_17  and  N3_18 
REMARK    6  A    between atoms: C18_27  and  C19_28 
REMARK    7  A    between atoms: C19_28  and  C20_29 
REMARK    8  A    between atoms: C20_29  and  C21_30 
REMARK    9  A    between atoms: C21_30  and  C22_31 
REMARK   10  A    between atoms: C22_31  and  C23_32 
REMARK   11  A    between atoms: C23_32  and  N5_33 
REMARK   12  A    between atoms: C28_41  and  O3_42 
ROOT
HETATM    1  C9  UNL     1      23.411  39.571  16.868  1.00  0.00     0.181 C 
HETATM    2  N2  UNL     1      22.595  38.994  15.819  1.00  0.00    -0.346 N 
ATOM      3  H2  UNL     1      22.309  39.615  15.061  1.00  0.00     0.163 HD
HETATM    4  C10 UNL     1      22.158  37.649  15.746  1.00  0.00     0.242 C 
HETATM    5  O1  UNL     1      21.984  37.100  14.609  1.00  0.00    -0.271 OA
HETATM    6  C11 UNL     1      21.868  36.779  16.925  1.00  0.00     0.204 C 
HETATM    7  N4  UNL     1      20.517  36.386  17.084  1.00  0.00    -0.344 N 
ATOM      8  H4  UNL     1      20.206  35.661  16.437  1.00  0.00     0.163 HD
HETATM    9  C17 UNL     1      19.528  36.831  17.988  1.00  0.00     0.241 C 
HETATM   10  O2  UNL     1      19.016  36.006  18.838  1.00  0.00    -0.271 OA
HETATM   11  C18 UNL     1      18.954  38.227  18.095  1.00  0.00     0.175 C 
HETATM   12  N7  UNL     1      19.162  39.014  16.925  1.00  0.00    -0.359 N 
ATOM     13  H7  UNL     1      18.941  38.512  16.065  1.00  0.00     0.162 HD
HETATM   14  C28 UNL     1      19.597  40.302  16.697  1.00  0.00     0.135 C 
HETATM   15  C29 UNL     1      20.623  41.157  17.202  1.00  0.00     0.161 C 
HETATM   16  C30 UNL     1      19.851  42.400  17.725  1.00  0.00     0.035 C 
HETATM   17  C31 UNL     1      19.739  41.960  19.177  1.00  0.00     0.022 C 
HETATM   18  C32 UNL     1      21.138  41.508  19.411  1.00  0.00     0.127 C 
HETATM   19  N8  UNL     1      21.554  40.836  18.184  1.00  0.00    -0.338 N 
HETATM   20  C33 UNL     1      22.726  40.035  18.057  1.00  0.00     0.243 C 
HETATM   21  O4  UNL     1      23.220  39.695  19.191  1.00  0.00    -0.271 OA
ENDROOT
BRANCH  11  22
HETATM   22  C19 UNL     1      17.435  37.974  18.097  1.00  0.00     0.035 C 
BRANCH  22  23
HETATM   23  C20 UNL     1      16.849  37.713  16.756  1.00  0.00     0.002 C 
BRANCH  23  24
HETATM   24  C21 UNL     1      16.002  36.432  16.970  1.00  0.00     0.002 C 
BRANCH  24  25
HETATM   25  C22 UNL     1      16.148  35.455  15.868  1.00  0.00     0.030 C 
BRANCH  25  26
HETATM   26  C23 UNL     1      16.967  34.281  16.299  1.00  0.00     0.260 C 
BRANCH  26  27
HETATM   27  N5  UNL     1      17.206  33.256  15.345  1.00  0.00     0.006 N 
HETATM   28  C24 UNL     1      18.205  33.674  14.344  1.00  0.00     0.297 C 
HETATM   29  C25 UNL     1      17.619  31.990  15.843  1.00  0.00     0.261 C 
HETATM   30  C26 UNL     1      16.768  30.976  15.058  1.00  0.00     0.047 C 
HETATM   31  C27 UNL     1      15.468  31.789  14.990  1.00  0.00     0.144 C 
HETATM   32  N6  UNL     1      16.006  33.076  14.634  1.00  0.00    -0.047 NA
ENDBRANCH  26  27
ENDBRANCH  25  26
ENDBRANCH  24  25
ENDBRANCH  23  24
ENDBRANCH  22  23
ENDBRANCH  11  22
BRANCH  14  33
HETATM   33  O3  UNL     1      18.888  40.908  15.775  1.00  0.00    -0.348 OA
ATOM     34  H3  UNL     1      18.641  40.322  15.070  1.00  0.00     0.219 HD
ENDBRANCH  14  33
BRANCH   6  35
HETATM   35  C12 UNL     1      22.920  35.706  16.925  1.00  0.00     0.307 C 
BRANCH  35  36
HETATM   36  N3  UNL     1      22.550  34.420  17.408  1.00  0.00     0.090 N 
HETATM   37  C13 UNL     1      21.477  33.940  16.464  1.00  0.00     0.272 C 
HETATM   38  C14 UNL     1      22.267  33.801  15.194  1.00  0.00     0.032 C 
HETATM   39  C15 UNL     1      23.608  33.305  15.663  1.00  0.00     0.032 C 
HETATM   40  C16 UNL     1      23.478  33.335  17.175  1.00  0.00     0.272 C 
ENDBRANCH  35  36
ENDBRANCH   6  35
BRANCH   1  41
HETATM   41  C8  UNL     1      24.352  40.552  16.220  1.00  0.00     0.076 C 
BRANCH  41  42
HETATM   42  C7  UNL     1      23.771  41.731  15.582  1.00  0.00    -0.026 A 
HETATM   43  C3  UNL     1      23.231  41.845  14.333  1.00  0.00    -0.035 A 
HETATM   44  C4  UNL     1      22.783  43.145  14.196  1.00  0.00     0.095 A 
HETATM   45  N1  UNL     1      23.047  43.788  15.330  1.00  0.00    -0.368 N 
HETATM   46  C5  UNL     1      23.643  42.981  16.202  1.00  0.00     0.012 A 
ATOM     47  H1  UNL     1      22.823  44.767  15.507  1.00  0.00     0.165 HD
HETATM   48  C6  UNL     1      24.083  43.348  17.599  1.00  0.00     0.068 C 
BRANCH  43  49
HETATM   49  C2  UNL     1      23.086  40.877  13.214  1.00  0.00     0.036 C 
HETATM   50  C1  UNL     1      23.944  41.235  12.046  1.00  0.00     0.010 C 
ENDBRANCH  43  49
ENDBRANCH  41  42
ENDBRANCH   1  41
TORSDOF 12
ENDMDL
MODEL 3
REMARK VINA RESULT: -7.430459545      1.947      8.156
REMARK  12 active torsions:
REMARK  status: ('A' for Active; 'I' for Inactive)
REMARK    1  A    between atoms: C2_2  and  C3_3 
REMARK    2  A    between atoms: C7_9  and  C8_10 
REMARK    3  A    between atoms: C8_10  and  C9_11 
REMARK    4  A    between atoms: C11_16  and  C12_17 
REMARK    5  A    between atoms: C12_17  and  N3_18 
REMARK    6  A    between atoms: C18_27  and  C19_28 
REMARK    7  A    between atoms: C19_28  and  C20_29 
REMARK    8  A    between atoms: C20_29  and  C21_30 
REMARK    9  A    between atoms: C21_30  and  C22_31 
REMARK   10  A    between atoms: C22_31  and  C23_32 
REMARK   11  A    between atoms: C23_32  and  N5_33 
REMARK   12  A    between atoms: C28_41  and  O3_42 
ROOT
HETATM    1  C9  UNL     1      20.362  32.628  15.572  1.00  0.00     0.181 C 
HETATM    2  N2  UNL     1      19.522  31.706  16.309  1.00  0.00    -0.346 N 
ATOM      3  H2  UNL     1      19.960  31.194  17.076  1.00  0.00     0.163 HD
HETATM    4  C10 UNL     1      18.151  31.448  16.066  1.00  0.00     0.242 C 
HETATM    5  O1  UNL     1      17.386  31.128  17.033  1.00  0.00    -0.271 OA
HETATM    6  C11 UNL     1      17.493  31.518  14.727  1.00  0.00     0.204 C 
HETATM    7  N4  UNL     1      17.008  30.290  14.214  1.00  0.00    -0.344 N 
ATOM      8  H4  UNL     1      16.148  29.958  14.651  1.00  0.00     0.163 HD
HETATM    9  C17 UNL     1      17.515  29.449  13.200  1.00  0.00     0.241 C 
HETATM   10  O2  UNL     1      16.817  29.232  12.137  1.00  0.00    -0.271 OA
HETATM   11  C18 UNL     1      18.844  28.726  13.198  1.00  0.00     0.175 C 
HETATM   12  N7  UNL     1      19.415  28.590  14.497  1.00  0.00    -0.359 N 
ATOM     13  H7  UNL     1      18.742  28.272  15.194  1.00  0.00     0.162 HD
HETATM   14  C28 UNL     1      20.673  28.793  15.020  1.00  0.00     0.135 C 
HETATM   15  C29 UNL     1      21.703  29.775  14.897  1.00  0.00     0.161 C 
HETATM   16  C30 UNL     1      22.941  28.962  14.426  1.00  0.00     0.035 C 
HETATM   17  C31 UNL     1      22.771  29.200  12.933  1.00  0.00     0.022 C 
HETATM   18  C32 UNL     1      22.510  30.666  12.941  1.00  0.00     0.127 C 
HETATM   19  N8  UNL     1      21.664  30.917  14.104  1.00  0.00    -0.338 N 
HETATM   20  C33 UNL     1      20.971  32.137  14.353  1.00  0.00     0.243 C 
HETATM   21  O4  UNL     1      20.899  32.887  13.316  1.00  0.00    -0.271 OA
ENDROOT
BRANCH  11  22
HETATM   22  C19 UNL     1      18.448  27.285  12.823  1.00  0.00     0.035 C 
BRANCH  22  23
HETATM   23  C20 UNL     1      18.855  26.867  11.456  1.00  0.00     0.002 C 
BRANCH  23  24
HETATM   24  C21 UNL     1      20.378  27.156  11.423  1.00  0.00     0.002 C 
BRANCH  24  25
HETATM   25  C22 UNL     1      21.138  26.147  10.651  1.00  0.00     0.030 C 
BRANCH  25  26
HETATM   26  C23 UNL     1      22.436  25.829  11.320  1.00  0.00     0.260 C 
BRANCH  26  27
HETATM   27  N5  UNL     1      23.626  25.973  10.558  1.00  0.00     0.006 N 
HETATM   28  C24 UNL     1      23.608  25.110   9.362  1.00  0.00     0.297 C 
HETATM   29  C25 UNL     1      23.961  27.284  10.121  1.00  0.00     0.261 C 
HETATM   30  C26 UNL     1      25.467  27.410  10.415  1.00  0.00     0.047 C 
HETATM   31  C27 UNL     1      25.498  26.620  11.730  1.00  0.00     0.144 C 
HETATM   32  N6  UNL     1      24.680  25.496  11.357  1.00  0.00    -0.047 NA
ENDBRANCH  26  27
ENDBRANCH  25  26
ENDBRANCH  24  25
ENDBRANCH  23  24
ENDBRANCH  22  23
ENDBRANCH  11  22
BRANCH  14  33
HETATM   33  O3  UNL     1      21.024  27.841  15.850  1.00  0.00    -0.348 OA
ATOM     34  H3  UNL     1      21.288  27.049  15.396  1.00  0.00     0.219 HD
ENDBRANCH  14  33
BRANCH   6  35
HETATM   35  C12 UNL     1      16.547  32.684  14.784  1.00  0.00     0.307 C 
BRANCH  35  36
HETATM   36  N3  UNL     1      17.090  33.983  14.580  1.00  0.00     0.090 N 
HETATM   37  C13 UNL     1      15.896  34.879  14.372  1.00  0.00     0.272 C 
HETATM   38  C14 UNL     1      15.251  34.801  15.727  1.00  0.00     0.032 C 
HETATM   39  C15 UNL     1      16.420  34.745  16.673  1.00  0.00     0.032 C 
HETATM   40  C16 UNL     1      17.616  34.668  15.741  1.00  0.00     0.272 C 
ENDBRANCH  35  36
ENDBRANCH   6  35
BRANCH   1  41
HETATM   41  C8  UNL     1      21.292  33.282  16.561  1.00  0.00     0.076 C 
BRANCH  41  42
HETATM   42  C7  UNL     1      21.410  34.738  16.521  1.00  0.00    -0.026 A 
HETATM   43  C3  UNL     1      22.179  35.508  15.695  1.00  0.00    -0.035 A 
HETATM   44  C4  UNL     1      21.928  36.829  16.014  1.00  0.00     0.095 A 
HETATM   45  N1  UNL     1      21.036  36.847  17.001  1.00  0.00    -0.368 N 
HETATM   46  C5  UNL     1      20.689  35.611  17.345  1.00  0.00     0.012 A 
ATOM     47  H1  UNL     1      20.669  37.694  17.435  1.00  0.00     0.165 HD
HETATM   48  C6  UNL     1      19.694  35.230  18.415  1.00  0.00     0.068 C 
BRANCH  43  49
HETATM   49  C2  UNL     1      23.153  35.164  14.626  1.00  0.00     0.036 C 
HETATM   50  C1  UNL     1      24.446  34.666  15.183  1.00  0.00     0.010 C 
ENDBRANCH  43  49
ENDBRANCH  41  42
ENDBRANCH   1  41
TORSDOF 12
ENDMDL
MODEL 4
REMARK VINA RESULT: -7.419958484      2.287      6.176
REMARK  12 active torsions:
REMARK  status: ('A' for Active; 'I' for Inactive)
REMARK    1  A    between atoms: C2_2  and  C3_3 
REMARK    2  A    between atoms: C7_9  and  C8_10 
REMARK    3  A    between atoms: C8_10  and  C9_11 
REMARK    4  A    between atoms: C11_16  and  C12_17 
REMARK    5  A    between atoms: C12_17  and  N3_18 
REMARK    6  A    between atoms: C18_27  and  C19_28 
REMARK    7  A    between atoms: C19_28  and  C20_29 
REMARK    8  A    between atoms: C20_29  and  C21_30 
REMARK    9  A    between atoms: C21_30  and  C22_31 
REMARK   10  A    between atoms: C22_31  and  C23_32 
REMARK   11  A    between atoms: C23_32  and  N5_33 
REMARK   12  A    between atoms: C28_41  and  O3_42 
ROOT
HETATM    1  C9  UNL     1      19.526  32.037  14.167  1.00  0.00     0.181 C 
HETATM    2  N2  UNL     1      19.121  33.379  13.802  1.00  0.00    -0.346 N 
ATOM      3  H2  UNL     1      19.659  33.841  13.068  1.00  0.00     0.163 HD
HETATM    4  C10 UNL     1      18.048  34.111  14.367  1.00  0.00     0.242 C 
HETATM    5  O1  UNL     1      17.413  34.955  13.655  1.00  0.00    -0.271 OA
HETATM    6  C11 UNL     1      17.574  33.980  15.777  1.00  0.00     0.204 C 
HETATM    7  N4  UNL     1      17.752  35.122  16.596  1.00  0.00    -0.344 N 
ATOM      8  H4  UNL     1      17.094  35.881  16.415  1.00  0.00     0.163 HD
HETATM    9  C17 UNL     1      18.687  35.387  17.619  1.00  0.00     0.241 C 
HETATM   10  O2  UNL     1      18.278  35.594  18.825  1.00  0.00    -0.271 OA
HETATM   11  C18 UNL     1      20.192  35.467  17.478  1.00  0.00     0.175 C 
HETATM   12  N7  UNL     1      20.623  35.681  16.136  1.00  0.00    -0.359 N 
ATOM     13  H7  UNL     1      20.097  36.417  15.664  1.00  0.00     0.162 HD
HETATM   14  C28 UNL     1      21.591  35.116  15.336  1.00  0.00     0.135 C 
HETATM   15  C29 UNL     1      22.074  33.800  15.061  1.00  0.00     0.161 C 
HETATM   16  C30 UNL     1      23.587  33.876  15.406  1.00  0.00     0.035 C 
HETATM   17  C31 UNL     1      23.486  33.357  16.832  1.00  0.00     0.022 C 
HETATM   18  C32 UNL     1      22.591  32.187  16.610  1.00  0.00     0.127 C 
HETATM   19  N8  UNL     1      21.606  32.617  15.622  1.00  0.00    -0.338 N 
HETATM   20  C33 UNL     1      20.416  31.902  15.303  1.00  0.00     0.243 C 
HETATM   21  O4  UNL     1      20.122  31.011  16.177  1.00  0.00    -0.271 OA
ENDROOT
BRANCH  11  22
HETATM   22  C19 UNL     1      20.531  36.793  18.185  1.00  0.00     0.035 C 
BRANCH  22  23
HETATM   23  C20 UNL     1      21.380  37.719  17.391  1.00  0.00     0.002 C 
BRANCH  23  24
HETATM   24  C21 UNL     1      20.555  39.031  17.354  1.00  0.00     0.002 C 
BRANCH  24  25
HETATM   25  C22 UNL     1      19.307  38.949  18.144  1.00  0.00     0.030 C 
BRANCH  25  26
HETATM   26  C23 UNL     1      18.528  40.221  18.048  1.00  0.00     0.260 C 
BRANCH  26  27
HETATM   27  N5  UNL     1      17.192  40.144  17.573  1.00  0.00     0.006 N 
HETATM   28  C24 UNL     1      16.827  38.762  17.214  1.00  0.00     0.297 C 
HETATM   29  C25 UNL     1      16.169  40.637  18.430  1.00  0.00     0.261 C 
HETATM   30  C26 UNL     1      15.264  41.469  17.504  1.00  0.00     0.047 C 
HETATM   31  C27 UNL     1      16.359  42.059  16.603  1.00  0.00     0.144 C 
HETATM   32  N6  UNL     1      17.146  40.876  16.372  1.00  0.00    -0.047 NA
ENDBRANCH  26  27
ENDBRANCH  25  26
ENDBRANCH  24  25
ENDBRANCH  23  24
ENDBRANCH  22  23
ENDBRANCH  11  22
BRANCH  14  33
HETATM   33  O3  UNL     1      22.245  36.014  14.641  1.00  0.00    -0.348 OA
ATOM     34  H3  UNL     1      23.091  36.218  15.022  1.00  0.00     0.219 HD
ENDBRANCH  14  33
BRANCH   6  35
HETATM   35  C12 UNL     1      16.203  33.369  15.705  1.00  0.00     0.307 C 
BRANCH  35  36
HETATM   36  N3  UNL     1      16.028  32.075  16.272  1.00  0.00     0.090 N 
HETATM   37  C13 UNL     1      14.603  31.698  15.956  1.00  0.00     0.272 C 
HETATM   38  C14 UNL     1      14.669  31.595  14.459  1.00  0.00     0.032 C 
HETATM   39  C15 UNL     1      16.032  31.013  14.203  1.00  0.00     0.032 C 
HETATM   40  C16 UNL     1      16.653  30.965  15.587  1.00  0.00     0.272 C 
ENDBRANCH  35  36
ENDBRANCH   6  35
BRANCH   1  41
HETATM   41  C8  UNL     1      19.951  31.333  12.905  1.00  0.00     0.076 C 
BRANCH  41  42
HETATM   42  C7  UNL     1      20.018  29.874  12.931  1.00  0.00    -0.026 A 
HETATM   43  C3  UNL     1      19.048  28.971  12.600  1.00  0.00    -0.035 A 
HETATM   44  C4  UNL     1      19.592  27.710  12.753  1.00  0.00     0.095 A 
HETATM   45  N1  UNL     1      20.849  27.855  13.163  1.00  0.00    -0.368 N 
HETATM   46  C5  UNL     1      21.158  29.143  13.287  1.00  0.00     0.012 A 
ATOM     47  H1  UNL     1      21.489  27.085  13.357  1.00  0.00     0.165 HD
HETATM   48  C6  UNL     1      22.494  29.701  13.717  1.00  0.00     0.068 C 
BRANCH  43  49
HETATM   49  C2  UNL     1      17.638  29.134  12.160  1.00  0.00     0.036 C 
HETATM   50  C1  UNL     1      17.397  28.539  10.812  1.00  0.00     0.010 C 
ENDBRANCH  43  49
ENDBRANCH  41  42
ENDBRANCH   1  41
TORSDOF 12
ENDMDL
MODEL 5
REMARK VINA RESULT: -7.403375803      2.282      5.891
REMARK  12 active torsions:
REMARK  status: ('A' for Active; 'I' for Inactive)
REMARK    1  A    between atoms: C2_2  and  C3_3 
REMARK    2  A    between atoms: C7_9  and  C8_10 
REMARK    3  A    between atoms: C8_10  and  C9_11 
REMARK    4  A    between atoms: C11_16  and  C12_17 
REMARK    5  A    between atoms: C12_17  and  N3_18 
REMARK    6  A    between atoms: C18_27  and  C19_28 
REMARK    7  A    between atoms: C19_28  and  C20_29 
REMARK    8  A    between atoms: C20_29  and  C21_30 
REMARK    9  A    between atoms: C21_30  and  C22_31 
REMARK   10  A    between atoms: C22_31  and  C23_32 
REMARK   11  A    between atoms: C23_32  and  N5_33 
REMARK   12  A    between atoms: C28_41  and  O3_42 
ROOT
HETATM    1  C9  UNL     1      19.511  32.022  14.188  1.00  0.00     0.181 C 
HETATM    2  N2  UNL     1      19.109  33.364  13.817  1.00  0.00    -0.346 N 
ATOM      3  H2  UNL     1      19.647  33.821  13.080  1.00  0.00     0.163 HD
HETATM    4  C10 UNL     1      18.039  34.101  14.381  1.00  0.00     0.242 C 
HETATM    5  O1  UNL     1      17.404  34.943  13.666  1.00  0.00    -0.271 OA
HETATM    6  C11 UNL     1      17.566  33.978  15.792  1.00  0.00     0.204 C 
HETATM    7  N4  UNL     1      17.748  35.123  16.605  1.00  0.00    -0.344 N 
ATOM      8  H4  UNL     1      17.092  35.883  16.421  1.00  0.00     0.163 HD
HETATM    9  C17 UNL     1      18.686  35.390  17.625  1.00  0.00     0.241 C 
HETATM   10  O2  UNL     1      18.279  35.604  18.832  1.00  0.00    -0.271 OA
HETATM   11  C18 UNL     1      20.191  35.466  17.482  1.00  0.00     0.175 C 
HETATM   12  N7  UNL     1      20.620  35.673  16.139  1.00  0.00    -0.359 N 
ATOM     13  H7  UNL     1      20.096  36.407  15.664  1.00  0.00     0.162 HD
HETATM   14  C28 UNL     1      21.586  35.101  15.339  1.00  0.00     0.135 C 
HETATM   15  C29 UNL     1      22.064  33.783  15.069  1.00  0.00     0.161 C 
HETATM   16  C30 UNL     1      23.578  33.856  15.412  1.00  0.00     0.035 C 
HETATM   17  C31 UNL     1      23.478  33.344  16.841  1.00  0.00     0.022 C 
HETATM   18  C32 UNL     1      22.580  32.176  16.626  1.00  0.00     0.127 C 
HETATM   19  N8  UNL     1      21.595  32.603  15.636  1.00  0.00    -0.338 N 
HETATM   20  C33 UNL     1      20.402  31.890  15.323  1.00  0.00     0.243 C 
HETATM   21  O4  UNL     1      20.107  31.004  16.202  1.00  0.00    -0.271 OA
ENDROOT
BRANCH  11  22
HETATM   22  C19 UNL     1      20.534  36.794  18.182  1.00  0.00     0.035 C 
BRANCH  22  23
HETATM   23  C20 UNL     1      21.334  37.739  17.360  1.00  0.00     0.002 C 
BRANCH  23  24
HETATM   24  C21 UNL     1      20.496  39.043  17.380  1.00  0.00     0.002 C 
BRANCH  24  25
HETATM   25  C22 UNL     1      19.247  38.912  18.164  1.00  0.00     0.030 C 
BRANCH  25  26
HETATM   26  C23 UNL     1      18.457  40.180  18.128  1.00  0.00     0.260 C 
BRANCH  26  27
HETATM   27  N5  UNL     1      17.139  40.124  17.602  1.00  0.00     0.006 N 
HETATM   28  C24 UNL     1      16.779  38.753  17.197  1.00  0.00     0.297 C 
HETATM   29  C25 UNL     1      16.089  40.604  18.431  1.00  0.00     0.261 C 
HETATM   30  C26 UNL     1      15.225  41.464  17.492  1.00  0.00     0.047 C 
HETATM   31  C27 UNL     1      16.356  42.066  16.646  1.00  0.00     0.144 C 
HETATM   32  N6  UNL     1      17.143  40.883  16.418  1.00  0.00    -0.047 NA
ENDBRANCH  26  27
ENDBRANCH  25  26
ENDBRANCH  24  25
ENDBRANCH  23  24
ENDBRANCH  22  23
ENDBRANCH  11  22
BRANCH  14  33
HETATM   33  O3  UNL     1      22.241  35.994  14.639  1.00  0.00    -0.348 OA
ATOM     34  H3  UNL     1      22.946  35.607  14.133  1.00  0.00     0.219 HD
ENDBRANCH  14  33
BRANCH   6  35
HETATM   35  C12 UNL     1      16.194  33.370  15.725  1.00  0.00     0.307 C 
BRANCH  35  36
HETATM   36  N3  UNL     1      16.023  32.067  16.270  1.00  0.00     0.090 N 
HETATM   37  C13 UNL     1      14.598  31.692  15.952  1.00  0.00     0.272 C 
HETATM   38  C14 UNL     1      14.659  31.615  14.453  1.00  0.00     0.032 C 
HETATM   39  C15 UNL     1      16.024  31.040  14.183  1.00  0.00     0.032 C 
HETATM   40  C16 UNL     1      16.649  30.970  15.564  1.00  0.00     0.272 C 
ENDBRANCH  35  36
ENDBRANCH   6  35
BRANCH   1  41
HETATM   41  C8  UNL     1      19.932  31.312  12.928  1.00  0.00     0.076 C 
BRANCH  41  42
HETATM   42  C7  UNL     1      20.292  29.899  13.034  1.00  0.00    -0.026 A 
HETATM   43  C3  UNL     1      21.502  29.350  13.348  1.00  0.00    -0.035 A 
HETATM   44  C4  UNL     1      21.340  27.978  13.355  1.00  0.00     0.095 A 
HETATM   45  N1  UNL     1      20.071  27.715  13.054  1.00  0.00    -0.368 N 
HETATM   46  C5  UNL     1      19.393  28.841  12.851  1.00  0.00     0.012 A 
ATOM     47  H1  UNL     1      19.673  26.779  12.988  1.00  0.00     0.165 HD
HETATM   48  C6  UNL     1      17.928  28.947  12.502  1.00  0.00     0.068 C 
BRANCH  43  49
HETATM   49  C2  UNL     1      22.829  29.953  13.638  1.00  0.00     0.036 C 
HETATM   50  C1  UNL     1      23.951  29.132  13.093  1.00  0.00     0.010 C 
ENDBRANCH  43  49
ENDBRANCH  41  42
ENDBRANCH   1  41
TORSDOF 12
ENDMDL
