MODEL 1
REMARK VINA RESULT: -9.607997197      0.000      0.000
REMARK  12 active torsions:
REMARK  status: ('A' for Active; 'I' for Inactive)
REMARK    1  A    between atoms: C2_3  and  C3_4 
REMARK       I    between atoms: C3_4  and  N2_6 
REMARK    2  A    between atoms: N2_6  and  C4_8 
REMARK    3  A    between atoms: C4_8  and  C5_9 
REMARK    4  A    between atoms: C16_20  and  C17_21 
REMARK       I    between atoms: C17_21  and  N3_23 
REMARK    5  A    between atoms: N3_23  and  C18_25 
REMARK    6  A    between atoms: C18_25  and  C19_26 
REMARK    7  A    between atoms: C18_25  and  C23_34 
REMARK    8  A    between atoms: C19_26  and  C20_27 
REMARK    9  A    between atoms: C20_27  and  C21_28 
REMARK   10  A    between atoms: C21_28  and  N4_29 
REMARK       I    between atoms: C23_34  and  N7_36 
REMARK   11  A    between atoms: C24_38  and  C25_39 
REMARK   12  A    between atoms: C25_39  and  N8_40 
REMARK       I    between atoms: N9_43  and  C28_44 
ROOT
HETATM    1  C1  UNL     1      19.952  30.973  16.703  1.00  0.00     0.222 C 
HETATM    2  N1  UNL     1      19.717  32.001  16.187  1.00  0.00    -0.450 NA
HETATM    3  C2  UNL     1      19.466  33.248  15.572  1.00  0.00     0.176 C 
HETATM    4  C8  UNL     1      18.754  33.044  14.206  1.00  0.00     0.067 C 
HETATM    5  C9  UNL     1      17.459  33.639  14.485  1.00  0.00    -0.015 A 
HETATM    6  C10 UNL     1      18.000  34.879  15.122  1.00  0.00     0.020 C 
HETATM    7  C11 UNL     1      18.603  34.171  16.336  1.00  0.00     0.042 C 
HETATM    8  C12 UNL     1      17.401  33.731  17.068  1.00  0.00    -0.005 C 
HETATM    9  C13 UNL     1      16.220  34.727  16.911  1.00  0.00     0.005 C 
HETATM   10  C14 UNL     1      15.378  34.464  15.716  1.00  0.00     0.007 C 
HETATM   11  C15 UNL     1      16.067  33.682  14.570  1.00  0.00     0.014 A 
HETATM   12  C16 UNL     1      16.718  32.588  15.140  1.00  0.00     0.054 A 
HETATM   13  C31 UNL     1      16.722  32.483  16.619  1.00  0.00     0.025 C 
ENDROOT
BRANCH   3  14
HETATM   14  C3  UNL     1      20.758  33.938  15.294  1.00  0.00     0.260 C 
HETATM   15  O1  UNL     1      21.633  33.596  14.473  1.00  0.00    -0.269 OA
HETATM   16  N2  UNL     1      21.078  35.124  16.017  1.00  0.00    -0.358 N 
ATOM     17  H2  UNL     1      20.424  35.481  16.713  1.00  0.00     0.162 HD
BRANCH  16  18
HETATM   18  C4  UNL     1      22.345  35.841  15.774  1.00  0.00     0.126 C 
BRANCH  18  19
HETATM   19  C5  UNL     1      22.990  36.237  17.077  1.00  0.00    -0.005 C 
HETATM   20  C6  UNL     1      22.814  37.690  17.398  1.00  0.00     0.011 C 
HETATM   21  C7  UNL     1      22.470  35.366  18.193  1.00  0.00     0.011 C 
ENDBRANCH  18  19
ENDBRANCH  16  18
ENDBRANCH   3  14
BRANCH  12  22
HETATM   22  C17 UNL     1      16.576  31.275  14.461  1.00  0.00     0.228 C 
HETATM   23  O2  UNL     1      15.474  30.785  14.096  1.00  0.00    -0.273 OA
HETATM   24  N3  UNL     1      17.726  30.445  14.163  1.00  0.00    -0.347 N 
ATOM     25  H3  UNL     1      18.653  30.776  14.432  1.00  0.00     0.163 HD
BRANCH  24  26
HETATM   26  C18 UNL     1      17.612  29.177  13.506  1.00  0.00     0.177 C 
BRANCH  26  27
HETATM   27  C19 UNL     1      17.846  29.147  12.043  1.00  0.00     0.036 C 
BRANCH  27  28
HETATM   28  C20 UNL     1      16.892  28.449  11.169  1.00  0.00     0.022 C 
BRANCH  28  29
HETATM   29  C21 UNL     1      17.453  27.437  10.233  1.00  0.00     0.122 C 
BRANCH  29  30
HETATM   30  N4  UNL     1      18.408  26.597  10.975  1.00  0.00    -0.367 N 
HETATM   31  C22 UNL     1      18.706  25.410  10.549  1.00  0.00     0.196 C 
HETATM   32  N5  UNL     1      18.150  24.855   9.374  1.00  0.00    -0.067 NA
HETATM   33  N6  UNL     1      19.632  24.659  11.314  1.00  0.00    -0.067 NA
ATOM     34  H4  UNL     1      18.837  26.952  11.830  1.00  0.00     0.161 HD
ENDBRANCH  29  30
ENDBRANCH  28  29
ENDBRANCH  27  28
ENDBRANCH  26  27
BRANCH  26  35
HETATM   35  C23 UNL     1      18.630  28.204  14.095  1.00  0.00     0.244 C 
HETATM   36  O3  UNL     1      18.345  26.953  14.049  1.00  0.00    -0.271 OA
HETATM   37  N7  UNL     1      19.825  28.557  14.675  1.00  0.00    -0.337 N 
HETATM   38  C24 UNL     1      20.817  29.243  14.394  1.00  0.00     0.094 C 
ATOM     39  H7  UNL     1      19.923  28.134  15.597  1.00  0.00     0.167 HD
BRANCH  38  40
HETATM   40  C25 UNL     1      21.122  30.034  13.184  1.00  0.00     0.317 C 
BRANCH  40  41
HETATM   41  N8  UNL     1      22.081  29.356  12.317  1.00  0.00     0.096 N 
HETATM   42  C26 UNL     1      23.306  29.189  13.039  1.00  0.00     0.292 C 
HETATM   43  C27 UNL     1      24.385  28.519  12.247  1.00  0.00     0.156 C 
HETATM   44  N9  UNL     1      23.887  27.642  11.204  1.00  0.00    -0.353 N 
HETATM   45  C28 UNL     1      24.770  26.635  10.727  1.00  0.00     0.184 C 
HETATM   46  C29 UNL     1      22.558  27.747  10.636  1.00  0.00     0.156 C 
HETATM   47  N10 UNL     1      25.336  26.730   9.568  1.00  0.00    -0.374 N 
HETATM   48  N11 UNL     1      25.057  25.489  11.517  1.00  0.00    -0.064 NA
ATOM     49 2H10 UNL     1      25.130  27.552   9.001  1.00  0.00     0.158 HD
ATOM     50 1H10 UNL     1      25.970  26.008   9.226  1.00  0.00     0.158 HD
HETATM   51  C30 UNL     1      21.622  28.114  11.796  1.00  0.00     0.292 C 
ENDBRANCH  40  41
ENDBRANCH  38  40
ENDBRANCH  26  35
ENDBRANCH  24  26
ENDBRANCH  12  22
TORSDOF 12
ENDMDL
MODEL 2
REMARK VINA RESULT: -9.234375247      3.495      9.659
REMARK  12 active torsions:
REMARK  status: ('A' for Active; 'I' for Inactive)
REMARK    1  A    between atoms: C2_3  and  C3_4 
REMARK       I    between atoms: C3_4  and  N2_6 
REMARK    2  A    between atoms: N2_6  and  C4_8 
REMARK    3  A    between atoms: C4_8  and  C5_9 
REMARK    4  A    between atoms: C16_20  and  C17_21 
REMARK       I    between atoms: C17_21  and  N3_23 
REMARK    5  A    between atoms: N3_23  and  C18_25 
REMARK    6  A    between atoms: C18_25  and  C19_26 
REMARK    7  A    between atoms: C18_25  and  C23_34 
REMARK    8  A    between atoms: C19_26  and  C20_27 
REMARK    9  A    between atoms: C20_27  and  C21_28 
REMARK   10  A    between atoms: C21_28  and  N4_29 
REMARK       I    between atoms: C23_34  and  N7_36 
REMARK   11  A    between atoms: C24_38  and  C25_39 
REMARK   12  A    between atoms: C25_39  and  N8_40 
REMARK       I    between atoms: N9_43  and  C28_44 
ROOT
HETATM    1  C1  UNL     1      19.823  32.870  13.388  1.00  0.00     0.222 C 
HETATM    2  N1  UNL     1      18.912  32.445  13.994  1.00  0.00    -0.450 NA
HETATM    3  C2  UNL     1      17.815  31.907  14.703  1.00  0.00     0.176 C 
HETATM    4  C8  UNL     1      18.066  31.995  16.235  1.00  0.00     0.067 C 
HETATM    5  C9  UNL     1      17.035  32.941  16.623  1.00  0.00    -0.015 A 
HETATM    6  C10 UNL     1      15.933  32.284  15.857  1.00  0.00     0.020 C 
HETATM    7  C11 UNL     1      16.519  32.577  14.474  1.00  0.00     0.042 C 
HETATM    8  C12 UNL     1      16.374  34.041  14.379  1.00  0.00    -0.005 C 
HETATM    9  C13 UNL     1      15.107  34.555  15.114  1.00  0.00     0.005 C 
HETATM   10  C14 UNL     1      15.332  34.844  16.553  1.00  0.00     0.007 C 
HETATM   11  C15 UNL     1      16.524  34.101  17.206  1.00  0.00     0.014 A 
HETATM   12  C16 UNL     1      17.619  34.234  16.354  1.00  0.00     0.054 A 
HETATM   13  C31 UNL     1      17.398  34.894  15.045  1.00  0.00     0.025 C 
ENDROOT
BRANCH   3  14
HETATM   14  C3  UNL     1      17.661  30.463  14.367  1.00  0.00     0.260 C 
HETATM   15  O1  UNL     1      17.220  29.560  15.107  1.00  0.00    -0.269 OA
HETATM   16  N2  UNL     1      18.044  30.010  13.071  1.00  0.00    -0.358 N 
ATOM     17  H2  UNL     1      18.418  30.676  12.395  1.00  0.00     0.162 HD
BRANCH  16  18
HETATM   18  C4  UNL     1      17.907  28.590  12.693  1.00  0.00     0.126 C 
BRANCH  18  19
HETATM   19  C5  UNL     1      17.563  28.460  11.232  1.00  0.00    -0.005 C 
HETATM   20  C6  UNL     1      18.444  27.488  10.509  1.00  0.00     0.011 C 
HETATM   21  C7  UNL     1      16.108  28.095  11.077  1.00  0.00     0.011 C 
ENDBRANCH  18  19
ENDBRANCH  16  18
ENDBRANCH   3  14
BRANCH  12  22
HETATM   22  C17 UNL     1      18.929  34.575  16.967  1.00  0.00     0.228 C 
HETATM   23  O2  UNL     1      19.120  34.680  18.207  1.00  0.00    -0.273 OA
HETATM   24  N3  UNL     1      20.107  34.815  16.158  1.00  0.00    -0.347 N 
ATOM     25  H3  UNL     1      20.028  34.749  15.144  1.00  0.00     0.163 HD
BRANCH  24  26
HETATM   26  C18 UNL     1      21.380  35.142  16.729  1.00  0.00     0.177 C 
BRANCH  26  27
HETATM   27  C19 UNL     1      22.496  34.197  16.486  1.00  0.00     0.036 C 
BRANCH  27  28
HETATM   28  C20 UNL     1      22.277  32.753  16.659  1.00  0.00     0.022 C 
BRANCH  28  29
HETATM   29  C21 UNL     1      22.421  31.901  15.449  1.00  0.00     0.122 C 
BRANCH  29  30
HETATM   30  N4  UNL     1      21.507  30.754  15.577  1.00  0.00    -0.367 N 
HETATM   31  C22 UNL     1      21.545  29.785  14.716  1.00  0.00     0.196 C 
HETATM   32  N5  UNL     1      22.442  29.765  13.624  1.00  0.00    -0.067 NA
HETATM   33  N6  UNL     1      20.637  28.715  14.904  1.00  0.00    -0.067 NA
ATOM     34  H4  UNL     1      20.841  30.721  16.349  1.00  0.00     0.161 HD
ENDBRANCH  29  30
ENDBRANCH  28  29
ENDBRANCH  27  28
ENDBRANCH  26  27
BRANCH  26  35
HETATM   35  C23 UNL     1      21.859  36.480  16.175  1.00  0.00     0.244 C 
HETATM   36  O3  UNL     1      22.374  36.481  14.999  1.00  0.00    -0.271 OA
HETATM   37  N7  UNL     1      21.789  37.685  16.832  1.00  0.00    -0.337 N 
HETATM   38  C24 UNL     1      20.936  38.366  17.418  1.00  0.00     0.094 C 
ATOM     39  H7  UNL     1      22.696  38.151  16.840  1.00  0.00     0.167 HD
BRANCH  38  40
HETATM   40  C25 UNL     1      19.502  38.103  17.658  1.00  0.00     0.317 C 
BRANCH  40  41
HETATM   41  N8  UNL     1      18.678  39.272  17.369  1.00  0.00     0.096 N 
HETATM   42  C26 UNL     1      17.304  38.871  17.371  1.00  0.00     0.292 C 
HETATM   43  C27 UNL     1      16.351  39.984  17.067  1.00  0.00     0.156 C 
HETATM   44  N9  UNL     1      16.853  41.298  17.421  1.00  0.00    -0.353 N 
HETATM   45  C28 UNL     1      15.893  42.330  17.611  1.00  0.00     0.184 C 
HETATM   46  C29 UNL     1      18.261  41.600  17.585  1.00  0.00     0.156 C 
HETATM   47  N10 UNL     1      15.733  43.268  16.737  1.00  0.00    -0.374 N 
HETATM   48  N11 UNL     1      15.077  42.355  18.774  1.00  0.00    -0.064 NA
ATOM     49 2H10 UNL     1      16.318  43.250  15.902  1.00  0.00     0.158 HD
ATOM     50 1H10 UNL     1      15.044  44.008  16.873  1.00  0.00     0.158 HD
HETATM   51  C30 UNL     1      18.891  40.369  18.250  1.00  0.00     0.292 C 
ENDBRANCH  40  41
ENDBRANCH  38  40
ENDBRANCH  26  35
ENDBRANCH  24  26
ENDBRANCH  12  22
TORSDOF 12
ENDMDL
MODEL 3
REMARK VINA RESULT: -9.176262302      3.084      6.779
REMARK  12 active torsions:
REMARK  status: ('A' for Active; 'I' for Inactive)
REMARK    1  A    between atoms: C2_3  and  C3_4 
REMARK       I    between atoms: C3_4  and  N2_6 
REMARK    2  A    between atoms: N2_6  and  C4_8 
REMARK    3  A    between atoms: C4_8  and  C5_9 
REMARK    4  A    between atoms: C16_20  and  C17_21 
REMARK       I    between atoms: C17_21  and  N3_23 
REMARK    5  A    between atoms: N3_23  and  C18_25 
REMARK    6  A    between atoms: C18_25  and  C19_26 
REMARK    7  A    between atoms: C18_25  and  C23_34 
REMARK    8  A    between atoms: C19_26  and  C20_27 
REMARK    9  A    between atoms: C20_27  and  C21_28 
REMARK   10  A    between atoms: C21_28  and  N4_29 
REMARK       I    between atoms: C23_34  and  N7_36 
REMARK   11  A    between atoms: C24_38  and  C25_39 
REMARK   12  A    between atoms: C25_39  and  N8_40 
REMARK       I    between atoms: N9_43  and  C28_44 
ROOT
HETATM    1  C1  UNL     1      19.536  35.648  18.521  1.00  0.00     0.222 C 
HETATM    2  N1  UNL     1      18.568  35.967  17.940  1.00  0.00    -0.450 NA
HETATM    3  C2  UNL     1      17.401  36.379  17.258  1.00  0.00     0.176 C 
HETATM    4  C8  UNL     1      17.594  36.239  15.722  1.00  0.00     0.067 C 
HETATM    5  C9  UNL     1      16.631  35.194  15.423  1.00  0.00    -0.015 A 
HETATM    6  C10 UNL     1      15.510  35.794  16.210  1.00  0.00     0.020 C 
HETATM    7  C11 UNL     1      16.177  35.616  17.576  1.00  0.00     0.042 C 
HETATM    8  C12 UNL     1      16.159  34.151  17.741  1.00  0.00    -0.005 C 
HETATM    9  C13 UNL     1      14.910  33.500  17.089  1.00  0.00     0.005 C 
HETATM   10  C14 UNL     1      15.099  33.163  15.655  1.00  0.00     0.007 C 
HETATM   11  C15 UNL     1      16.195  33.969  14.916  1.00  0.00     0.014 A 
HETATM   12  C16 UNL     1      17.332  33.968  15.722  1.00  0.00     0.054 A 
HETATM   13  C31 UNL     1      17.223  33.355  17.067  1.00  0.00     0.025 C 
ENDROOT
BRANCH   3  14
HETATM   14  C3  UNL     1      17.140  37.819  17.538  1.00  0.00     0.260 C 
HETATM   15  O1  UNL     1      17.001  38.736  16.701  1.00  0.00    -0.269 OA
HETATM   16  N2  UNL     1      17.028  38.252  18.891  1.00  0.00    -0.358 N 
ATOM     17  H2  UNL     1      17.129  37.574  19.646  1.00  0.00     0.162 HD
BRANCH  16  18
HETATM   18  C4  UNL     1      16.768  39.668  19.215  1.00  0.00     0.126 C 
BRANCH  18  19
HETATM   19  C5  UNL     1      16.243  39.804  20.620  1.00  0.00    -0.005 C 
HETATM   20  C6  UNL     1      17.195  40.512  21.534  1.00  0.00     0.011 C 
HETATM   21  C7  UNL     1      14.897  40.485  20.602  1.00  0.00     0.011 C 
ENDBRANCH  18  19
ENDBRANCH  16  18
ENDBRANCH   3  14
BRANCH  12  22
HETATM   22  C17 UNL     1      18.639  33.707  15.065  1.00  0.00     0.228 C 
HETATM   23  O2  UNL     1      18.764  33.326  13.871  1.00  0.00    -0.273 OA
HETATM   24  N3  UNL     1      19.893  33.877  15.772  1.00  0.00    -0.347 N 
ATOM     25  H3  UNL     1      19.870  34.182  16.745  1.00  0.00     0.163 HD
BRANCH  24  26
HETATM   26  C18 UNL     1      21.164  33.635  15.156  1.00  0.00     0.177 C 
BRANCH  26  27
HETATM   27  C19 UNL     1      22.142  34.748  15.157  1.00  0.00     0.036 C 
BRANCH  27  28
HETATM   28  C20 UNL     1      22.038  35.806  16.173  1.00  0.00     0.022 C 
BRANCH  28  29
HETATM   29  C21 UNL     1      22.049  37.211  15.684  1.00  0.00     0.122 C 
BRANCH  29  30
HETATM   30  N4  UNL     1      20.982  37.952  16.377  1.00  0.00    -0.367 N 
HETATM   31  C22 UNL     1      21.259  38.695  17.403  1.00  0.00     0.196 C 
HETATM   32  N5  UNL     1      22.568  38.839  17.914  1.00  0.00    -0.067 NA
HETATM   33  N6  UNL     1      20.181  39.378  18.018  1.00  0.00    -0.067 NA
ATOM     34  H4  UNL     1      20.020  37.881  16.047  1.00  0.00     0.161 HD
ENDBRANCH  29  30
ENDBRANCH  28  29
ENDBRANCH  27  28
ENDBRANCH  26  27
BRANCH  26  35
HETATM   35  C23 UNL     1      21.865  32.484  15.872  1.00  0.00     0.244 C 
HETATM   36  O3  UNL     1      22.097  32.623  17.127  1.00  0.00    -0.271 OA
HETATM   37  N7  UNL     1      22.273  31.311  15.283  1.00  0.00    -0.337 N 
HETATM   38  C24 UNL     1      21.787  30.419  14.573  1.00  0.00     0.094 C 
ATOM     39  H7  UNL     1      23.253  31.120  15.489  1.00  0.00     0.167 HD
BRANCH  38  40
HETATM   40  C25 UNL     1      20.422  30.268  14.030  1.00  0.00     0.317 C 
BRANCH  40  41
HETATM   41  N8  UNL     1      20.388  29.361  12.887  1.00  0.00     0.096 N 
HETATM   42  C26 UNL     1      21.514  28.481  12.972  1.00  0.00     0.292 C 
HETATM   43  C27 UNL     1      21.604  27.507  11.839  1.00  0.00     0.156 C 
HETATM   44  N9  UNL     1      20.324  27.194  11.232  1.00  0.00    -0.353 N 
HETATM   45  C28 UNL     1      20.234  25.978  10.499  1.00  0.00     0.184 C 
HETATM   46  C29 UNL     1      19.158  28.047  11.338  1.00  0.00     0.156 C 
HETATM   47  N10 UNL     1      20.188  25.975   9.207  1.00  0.00    -0.374 N 
HETATM   48  N11 UNL     1      20.193  24.728  11.172  1.00  0.00    -0.064 NA
ATOM     49 2H10 UNL     1      20.217  26.873   8.725  1.00  0.00     0.158 HD
ATOM     50 1H10 UNL     1      20.123  25.103   8.682  1.00  0.00     0.158 HD
HETATM   51  C30 UNL     1      19.175  28.628  12.757  1.00  0.00     0.292 C 
ENDBRANCH  40  41
ENDBRANCH  38  40
ENDBRANCH  26  35
ENDBRANCH  24  26
ENDBRANCH  12  22
TORSDOF 12
ENDMDL
MODEL 4
REMARK VINA RESULT: -9.087495649      2.997      6.664
REMARK  12 active torsions:
REMARK  status: ('A' for Active; 'I' for Inactive)
REMARK    1  A    between atoms: C2_3  and  C3_4 
REMARK       I    between atoms: C3_4  and  N2_6 
REMARK    2  A    between atoms: N2_6  and  C4_8 
REMARK    3  A    between atoms: C4_8  and  C5_9 
REMARK    4  A    between atoms: C16_20  and  C17_21 
REMARK       I    between atoms: C17_21  and  N3_23 
REMARK    5  A    between atoms: N3_23  and  C18_25 
REMARK    6  A    between atoms: C18_25  and  C19_26 
REMARK    7  A    between atoms: C18_25  and  C23_34 
REMARK    8  A    between atoms: C19_26  and  C20_27 
REMARK    9  A    between atoms: C20_27  and  C21_28 
REMARK   10  A    between atoms: C21_28  and  N4_29 
REMARK       I    between atoms: C23_34  and  N7_36 
REMARK   11  A    between atoms: C24_38  and  C25_39 
REMARK   12  A    between atoms: C25_39  and  N8_40 
REMARK       I    between atoms: N9_43  and  C28_44 
ROOT
HETATM    1  C1  UNL     1      19.558  35.003  18.712  1.00  0.00     0.222 C 
HETATM    2  N1  UNL     1      18.640  35.463  18.144  1.00  0.00    -0.450 NA
HETATM    3  C2  UNL     1      17.534  36.042  17.482  1.00  0.00     0.176 C 
HETATM    4  C8  UNL     1      17.799  36.121  15.953  1.00  0.00     0.067 C 
HETATM    5  C9  UNL     1      16.799  35.193  15.456  1.00  0.00    -0.015 A 
HETATM    6  C10 UNL     1      15.672  35.735  16.275  1.00  0.00     0.020 C 
HETATM    7  C11 UNL     1      16.256  35.315  17.627  1.00  0.00     0.042 C 
HETATM    8  C12 UNL     1      16.152  33.846  17.567  1.00  0.00    -0.005 C 
HETATM    9  C13 UNL     1      14.906  33.376  16.768  1.00  0.00     0.005 C 
HETATM   10  C14 UNL     1      15.151  33.246  15.309  1.00  0.00     0.007 C 
HETATM   11  C15 UNL     1      16.326  34.086  14.750  1.00  0.00     0.014 A 
HETATM   12  C16 UNL     1      17.418  33.896  15.596  1.00  0.00     0.054 A 
HETATM   13  C31 UNL     1      17.206  33.096  16.826  1.00  0.00     0.025 C 
ENDROOT
BRANCH   3  14
HETATM   14  C3  UNL     1      17.335  37.437  17.966  1.00  0.00     0.260 C 
HETATM   15  O1  UNL     1      16.723  37.799  18.992  1.00  0.00    -0.269 OA
HETATM   16  N2  UNL     1      17.883  38.516  17.212  1.00  0.00    -0.358 N 
ATOM     17  H2  UNL     1      18.400  38.319  16.355  1.00  0.00     0.162 HD
BRANCH  16  18
HETATM   18  C4  UNL     1      17.713  39.914  17.654  1.00  0.00     0.126 C 
BRANCH  18  19
HETATM   19  C5  UNL     1      16.563  40.563  16.930  1.00  0.00    -0.005 C 
HETATM   20  C6  UNL     1      15.356  40.747  17.798  1.00  0.00     0.011 C 
HETATM   21  C7  UNL     1      17.007  41.874  16.330  1.00  0.00     0.011 C 
ENDBRANCH  18  19
ENDBRANCH  16  18
ENDBRANCH   3  14
BRANCH  12  22
HETATM   22  C17 UNL     1      18.742  33.657  14.965  1.00  0.00     0.228 C 
HETATM   23  O2  UNL     1      18.899  33.334  13.758  1.00  0.00    -0.273 OA
HETATM   24  N3  UNL     1      19.975  33.784  15.715  1.00  0.00    -0.347 N 
ATOM     25  H3  UNL     1      19.926  34.041  16.701  1.00  0.00     0.163 HD
BRANCH  24  26
HETATM   26  C18 UNL     1      21.262  33.562  15.125  1.00  0.00     0.177 C 
BRANCH  26  27
HETATM   27  C19 UNL     1      22.233  34.681  15.172  1.00  0.00     0.036 C 
BRANCH  27  28
HETATM   28  C20 UNL     1      21.964  35.840  16.037  1.00  0.00     0.022 C 
BRANCH  28  29
HETATM   29  C21 UNL     1      22.763  37.069  15.782  1.00  0.00     0.122 C 
BRANCH  29  30
HETATM   30  N4  UNL     1      21.844  38.140  15.361  1.00  0.00    -0.367 N 
HETATM   31  C22 UNL     1      21.381  38.985  16.229  1.00  0.00     0.196 C 
HETATM   32  N5  UNL     1      21.716  38.936  17.601  1.00  0.00    -0.067 NA
HETATM   33  N6  UNL     1      20.503  39.988  15.751  1.00  0.00    -0.067 NA
ATOM     34  H4  UNL     1      21.571  38.218  14.382  1.00  0.00     0.161 HD
ENDBRANCH  29  30
ENDBRANCH  28  29
ENDBRANCH  27  28
ENDBRANCH  26  27
BRANCH  26  35
HETATM   35  C23 UNL     1      21.954  32.401  15.833  1.00  0.00     0.244 C 
HETATM   36  O3  UNL     1      22.185  32.529  17.089  1.00  0.00    -0.271 OA
HETATM   37  N7  UNL     1      22.354  31.229  15.236  1.00  0.00    -0.337 N 
HETATM   38  C24 UNL     1      21.863  30.347  14.519  1.00  0.00     0.094 C 
ATOM     39  H7  UNL     1      23.333  31.030  15.441  1.00  0.00     0.167 HD
BRANCH  38  40
HETATM   40  C25 UNL     1      20.497  30.209  13.973  1.00  0.00     0.317 C 
BRANCH  40  41
HETATM   41  N8  UNL     1      20.454  29.296  12.835  1.00  0.00     0.096 N 
HETATM   42  C26 UNL     1      21.564  28.397  12.933  1.00  0.00     0.292 C 
HETATM   43  C27 UNL     1      21.645  27.414  11.807  1.00  0.00     0.156 C 
HETATM   44  N9  UNL     1      20.363  27.119  11.194  1.00  0.00    -0.353 N 
HETATM   45  C28 UNL     1      20.256  25.901  10.469  1.00  0.00     0.184 C 
HETATM   46  C29 UNL     1      19.211  27.994  11.286  1.00  0.00     0.156 C 
HETATM   47  N10 UNL     1      20.219  25.889   9.176  1.00  0.00    -0.374 N 
HETATM   48  N11 UNL     1      20.190  24.655  11.149  1.00  0.00    -0.064 NA
ATOM     49 2H10 UNL     1      20.267  26.783   8.688  1.00  0.00     0.158 HD
ATOM     50 1H10 UNL     1      20.143  25.016   8.656  1.00  0.00     0.158 HD
HETATM   51  C30 UNL     1      19.230  28.583  12.702  1.00  0.00     0.292 C 
ENDBRANCH  40  41
ENDBRANCH  38  40
ENDBRANCH  26  35
ENDBRANCH  24  26
ENDBRANCH  12  22
TORSDOF 12
ENDMDL
MODEL 5
REMARK VINA RESULT: -8.989889990      2.130      7.133
REMARK  12 active torsions:
REMARK  status: ('A' for Active; 'I' for Inactive)
REMARK    1  A    between atoms: C2_3  and  C3_4 
REMARK       I    between atoms: C3_4  and  N2_6 
REMARK    2  A    between atoms: N2_6  and  C4_8 
REMARK    3  A    between atoms: C4_8  and  C5_9 
REMARK    4  A    between atoms: C16_20  and  C17_21 
REMARK       I    between atoms: C17_21  and  N3_23 
REMARK    5  A    between atoms: N3_23  and  C18_25 
REMARK    6  A    between atoms: C18_25  and  C19_26 
REMARK    7  A    between atoms: C18_25  and  C23_34 
REMARK    8  A    between atoms: C19_26  and  C20_27 
REMARK    9  A    between atoms: C20_27  and  C21_28 
REMARK   10  A    between atoms: C21_28  and  N4_29 
REMARK       I    between atoms: C23_34  and  N7_36 
REMARK   11  A    between atoms: C24_38  and  C25_39 
REMARK   12  A    between atoms: C25_39  and  N8_40 
REMARK       I    between atoms: N9_43  and  C28_44 
ROOT
HETATM    1  C1  UNL     1      20.701  28.910  15.978  1.00  0.00     0.222 C 
HETATM    2  N1  UNL     1      21.068  29.755  15.250  1.00  0.00    -0.450 NA
HETATM    3  C2  UNL     1      21.525  30.749  14.356  1.00  0.00     0.176 C 
HETATM    4  C8  UNL     1      20.362  31.706  13.971  1.00  0.00     0.067 C 
HETATM    5  C9  UNL     1      20.819  32.943  14.577  1.00  0.00    -0.015 A 
HETATM    6  C10 UNL     1      22.218  32.857  14.057  1.00  0.00     0.020 C 
HETATM    7  C11 UNL     1      22.602  31.619  14.870  1.00  0.00     0.042 C 
HETATM    8  C12 UNL     1      22.626  32.146  16.246  1.00  0.00    -0.005 C 
HETATM    9  C13 UNL     1      23.092  33.626  16.301  1.00  0.00     0.005 C 
HETATM   10  C14 UNL     1      21.986  34.603  16.130  1.00  0.00     0.007 C 
HETATM   11  C15 UNL     1      20.732  34.071  15.394  1.00  0.00     0.014 A 
HETATM   12  C16 UNL     1      20.406  32.838  15.956  1.00  0.00     0.054 A 
HETATM   13  C31 UNL     1      21.331  32.277  16.971  1.00  0.00     0.025 C 
ENDROOT
BRANCH   3  14
HETATM   14  C3  UNL     1      22.001  30.109  13.097  1.00  0.00     0.260 C 
HETATM   15  O1  UNL     1      21.612  30.349  11.935  1.00  0.00    -0.269 OA
HETATM   16  N2  UNL     1      23.011  29.106  13.169  1.00  0.00    -0.358 N 
ATOM     17  H2  UNL     1      23.392  28.840  14.078  1.00  0.00     0.162 HD
BRANCH  16  18
HETATM   18  C4  UNL     1      23.515  28.446  11.949  1.00  0.00     0.126 C 
BRANCH  18  19
HETATM   19  C5  UNL     1      24.917  27.938  12.160  1.00  0.00    -0.005 C 
HETATM   20  C6  UNL     1      25.372  27.013  11.073  1.00  0.00     0.011 C 
HETATM   21  C7  UNL     1      25.866  29.100  12.319  1.00  0.00     0.011 C 
ENDBRANCH  18  19
ENDBRANCH  16  18
ENDBRANCH   3  14
BRANCH  12  22
HETATM   22  C17 UNL     1      18.976  32.578  16.263  1.00  0.00     0.228 C 
HETATM   23  O2  UNL     1      18.559  31.555  16.867  1.00  0.00    -0.273 OA
HETATM   24  N3  UNL     1      17.935  33.510  15.877  1.00  0.00    -0.347 N 
ATOM     25  H3  UNL     1      18.197  34.362  15.382  1.00  0.00     0.163 HD
BRANCH  24  26
HETATM   26  C18 UNL     1      16.550  33.280  16.166  1.00  0.00     0.177 C 
BRANCH  26  27
HETATM   27  C19 UNL     1      15.810  34.367  16.849  1.00  0.00     0.036 C 
BRANCH  27  28
HETATM   28  C20 UNL     1      16.371  35.727  16.870  1.00  0.00     0.022 C 
BRANCH  28  29
HETATM   29  C21 UNL     1      16.831  36.245  18.186  1.00  0.00     0.122 C 
BRANCH  29  30
HETATM   30  N4  UNL     1      18.099  36.966  17.983  1.00  0.00    -0.367 N 
HETATM   31  C22 UNL     1      19.231  36.386  18.235  1.00  0.00     0.196 C 
HETATM   32  N5  UNL     1      19.323  35.058  18.711  1.00  0.00    -0.067 NA
HETATM   33  N6  UNL     1      20.409  37.141  18.017  1.00  0.00    -0.067 NA
ATOM     34  H4  UNL     1      18.086  37.927  17.642  1.00  0.00     0.161 HD
ENDBRANCH  29  30
ENDBRANCH  28  29
ENDBRANCH  27  28
ENDBRANCH  26  27
BRANCH  26  35
HETATM   35  C23 UNL     1      15.792  33.035  14.865  1.00  0.00     0.244 C 
HETATM   36  O3  UNL     1      15.527  34.057  14.135  1.00  0.00    -0.271 OA
HETATM   37  N7  UNL     1      15.366  31.809  14.410  1.00  0.00    -0.337 N 
HETATM   38  C24 UNL     1      15.845  30.686  14.207  1.00  0.00     0.094 C 
ATOM     39  H7  UNL     1      14.375  31.832  14.174  1.00  0.00     0.167 HD
BRANCH  38  40
HETATM   40  C25 UNL     1      17.221  30.184  14.401  1.00  0.00     0.317 C 
BRANCH  40  41
HETATM   41  N8  UNL     1      17.733  29.521  13.206  1.00  0.00     0.096 N 
HETATM   42  C26 UNL     1      18.579  28.440  13.613  1.00  0.00     0.292 C 
HETATM   43  C27 UNL     1      19.186  27.687  12.471  1.00  0.00     0.156 C 
HETATM   44  N9  UNL     1      18.401  27.738  11.252  1.00  0.00    -0.353 N 
HETATM   45  C28 UNL     1      18.627  26.714  10.291  1.00  0.00     0.184 C 
HETATM   46  C29 UNL     1      17.418  28.767  10.976  1.00  0.00     0.156 C 
HETATM   47  N10 UNL     1      19.270  26.951   9.195  1.00  0.00    -0.374 N 
HETATM   48  N11 UNL     1      18.149  25.394  10.513  1.00  0.00    -0.064 NA
ATOM     49 2H10 UNL     1      19.612  27.899   9.036  1.00  0.00     0.158 HD
ATOM     50 1H10 UNL     1      19.432  26.217   8.506  1.00  0.00     0.158 HD
HETATM   51  C30 UNL     1      16.724  29.069  12.310  1.00  0.00     0.292 C 
ENDBRANCH  40  41
ENDBRANCH  38  40
ENDBRANCH  26  35
ENDBRANCH  24  26
ENDBRANCH  12  22
TORSDOF 12
ENDMDL
