MODEL 1
REMARK VINA RESULT: -7.025041160      0.000      0.000
REMARK  12 active torsions:
REMARK  status: ('A' for Active; 'I' for Inactive)
REMARK    1  A    between atoms: C3_3  and  C4_4 
REMARK    2  A    between atoms: C6_6  and  C7_7 
REMARK    3  A    between atoms: C7_7  and  C8_8 
REMARK    4  A    between atoms: C12_18  and  C13_19 
REMARK    5  A    between atoms: C13_19  and  C14_20 
REMARK    6  A    between atoms: C14_20  and  C15_21 
REMARK    7  A    between atoms: C15_21  and  N3_22 
REMARK    8  A    between atoms: C19_31  and  C20_32 
REMARK    9  A    between atoms: C20_32  and  C21_33 
REMARK   10  A    between atoms: C24_36  and  O3_37 
REMARK   11  A    between atoms: C25_41  and  C26_42 
REMARK   12  A    between atoms: C26_42  and  C27_43 
ROOT
HETATM    1  C1  UNL     1      17.847  31.623  15.414  1.00  0.00     0.012 C 
HETATM    2  C2  UNL     1      17.726  30.686  14.681  1.00  0.00    -0.111 C 
HETATM    3  C3  UNL     1      17.584  29.527  13.799  1.00  0.00     0.150 C 
ENDROOT
BRANCH   3   4
HETATM    4  C4  UNL     1      18.974  29.020  13.512  1.00  0.00     0.020 A 
HETATM    5  C5  UNL     1      19.576  28.970  12.275  1.00  0.00     0.034 A 
HETATM    6  C6  UNL     1      20.846  28.436  12.479  1.00  0.00    -0.037 A 
HETATM    7  C32 UNL     1      20.937  28.196  13.814  1.00  0.00     0.095 A 
HETATM    8  N9  UNL     1      19.819  28.544  14.435  1.00  0.00    -0.368 N 
ATOM      9  H9  UNL     1      19.636  28.463  15.436  1.00  0.00     0.165 HD
BRANCH   6  10
HETATM   10  C7  UNL     1      21.789  28.251  11.380  1.00  0.00     0.094 C 
BRANCH  10  11
HETATM   11  C8  UNL     1      21.961  26.881  10.823  1.00  0.00     0.293 C 
HETATM   12  N1  UNL     1      20.956  26.613   9.859  1.00  0.00    -0.041 N 
HETATM   13  C9  UNL     1      19.795  26.002  10.458  1.00  0.00     0.275 C 
ATOM     14  H12 UNL     1      20.707  27.453   9.337  1.00  0.00     0.280 HD
ATOM     15  H11 UNL     1      21.319  26.051   9.090  1.00  0.00     0.280 HD
HETATM   16  C10 UNL     1      20.075  24.562  10.904  1.00  0.00     0.050 C 
HETATM   17  C11 UNL     1      18.582  25.990   9.636  1.00  0.00     0.248 C 
HETATM   18  O1  UNL     1      17.713  25.106  10.024  1.00  0.00    -0.271 OA
HETATM   19  N2  UNL     1      18.201  26.743   8.536  1.00  0.00    -0.346 N 
HETATM   20  C12 UNL     1      18.813  26.886   7.243  1.00  0.00     0.177 C 
ATOM     21  H2  UNL     1      17.347  27.285   8.666  1.00  0.00     0.163 HD
HETATM   22  C17 UNL     1      18.523  25.724   6.325  1.00  0.00     0.246 C 
HETATM   23  O2  UNL     1      17.289  25.460   6.264  1.00  0.00    -0.271 OA
HETATM   24  N6  UNL     1      19.469  24.980   5.591  1.00  0.00    -0.320 N 
HETATM   25  C18 UNL     1      19.153  24.865   4.145  1.00  0.00     0.159 C 
HETATM   26  C19 UNL     1      20.682  24.354   6.071  1.00  0.00     0.065 C 
HETATM   27  C24 UNL     1      21.765  25.326   6.296  1.00  0.00     0.160 C 
HETATM   28  N7  UNL     1      22.550  25.718   7.347  1.00  0.00    -0.356 N 
HETATM   29  C25 UNL     1      23.204  24.946   8.410  1.00  0.00     0.176 C 
ATOM     30  H7  UNL     1      22.708  26.724   7.400  1.00  0.00     0.162 HD
HETATM   31  C30 UNL     1      23.825  25.981   9.316  1.00  0.00     0.243 C 
HETATM   32  O4  UNL     1      24.971  26.395   8.927  1.00  0.00    -0.271 OA
HETATM   33  N8  UNL     1      23.322  26.527  10.481  1.00  0.00    -0.326 N 
HETATM   34  C31 UNL     1      24.289  26.821  11.559  1.00  0.00     0.155 C 
BRANCH  20  35
HETATM   35  C13 UNL     1      18.448  28.201   6.586  1.00  0.00     0.036 C 
BRANCH  35  36
HETATM   36  C14 UNL     1      18.983  28.430   5.227  1.00  0.00     0.022 C 
BRANCH  36  37
HETATM   37  C15 UNL     1      17.939  29.171   4.379  1.00  0.00     0.122 C 
BRANCH  37  38
HETATM   38  N3  UNL     1      17.842  30.566   4.790  1.00  0.00    -0.367 N 
HETATM   39  C16 UNL     1      16.710  31.164   4.922  1.00  0.00     0.196 C 
HETATM   40  N4  UNL     1      15.501  30.478   4.670  1.00  0.00    -0.067 NA
HETATM   41  N5  UNL     1      16.740  32.524   5.331  1.00  0.00    -0.067 NA
ATOM     42  H3  UNL     1      18.698  31.085   4.980  1.00  0.00     0.161 HD
ENDBRANCH  37  38
ENDBRANCH  36  37
ENDBRANCH  35  36
ENDBRANCH  20  35
BRANCH  26  43
HETATM   43  C20 UNL     1      20.535  23.229   7.015  1.00  0.00     0.065 C 
BRANCH  43  44
HETATM   44  C21 UNL     1      20.248  21.870   6.509  1.00  0.00    -0.017 C 
HETATM   45  C22 UNL     1      21.167  21.351   5.432  1.00  0.00     0.010 C 
HETATM   46  C23 UNL     1      18.840  21.532   6.148  1.00  0.00     0.010 C 
ENDBRANCH  43  44
ENDBRANCH  26  43
BRANCH  27  47
HETATM   47  O3  UNL     1      22.022  25.975   5.185  1.00  0.00    -0.345 OA
ATOM     48  H3  UNL     1      22.914  25.801   4.908  1.00  0.00     0.219 HD
ENDBRANCH  27  47
BRANCH  29  49
HETATM   49  C26 UNL     1      24.312  24.126   7.821  1.00  0.00     0.038 C 
BRANCH  49  50
HETATM   50  C27 UNL     1      24.039  22.843   7.174  1.00  0.00    -0.020 C 
HETATM   51  C28 UNL     1      24.477  22.905   5.700  1.00  0.00     0.009 C 
HETATM   52  C29 UNL     1      24.408  21.558   7.793  1.00  0.00     0.009 C 
ENDBRANCH  49  50
ENDBRANCH  29  49
ENDBRANCH  10  11
ENDBRANCH   6  10
ENDBRANCH   3   4
TORSDOF 12
ENDMDL
MODEL 2
REMARK VINA RESULT: -6.983107086      9.089     15.671
REMARK  12 active torsions:
REMARK  status: ('A' for Active; 'I' for Inactive)
REMARK    1  A    between atoms: C3_3  and  C4_4 
REMARK    2  A    between atoms: C6_6  and  C7_7 
REMARK    3  A    between atoms: C7_7  and  C8_8 
REMARK    4  A    between atoms: C12_18  and  C13_19 
REMARK    5  A    between atoms: C13_19  and  C14_20 
REMARK    6  A    between atoms: C14_20  and  C15_21 
REMARK    7  A    between atoms: C15_21  and  N3_22 
REMARK    8  A    between atoms: C19_31  and  C20_32 
REMARK    9  A    between atoms: C20_32  and  C21_33 
REMARK   10  A    between atoms: C24_36  and  O3_37 
REMARK   11  A    between atoms: C25_41  and  C26_42 
REMARK   12  A    between atoms: C26_42  and  C27_43 
ROOT
HETATM    1  C1  UNL     1      22.290  28.840  13.626  1.00  0.00     0.012 C 
HETATM    2  C2  UNL     1      21.505  28.994  14.515  1.00  0.00    -0.111 C 
HETATM    3  C3  UNL     1      20.532  29.191  15.590  1.00  0.00     0.150 C 
ENDROOT
BRANCH   3   4
HETATM    4  C4  UNL     1      20.532  30.662  15.918  1.00  0.00     0.020 A 
HETATM    5  C5  UNL     1      19.680  31.607  15.392  1.00  0.00     0.034 A 
HETATM    6  C6  UNL     1      20.037  32.822  15.971  1.00  0.00    -0.037 A 
HETATM    7  C32 UNL     1      21.073  32.545  16.806  1.00  0.00     0.095 A 
HETATM    8  N9  UNL     1      21.372  31.253  16.777  1.00  0.00    -0.368 N 
ATOM      9  H9  UNL     1      22.110  30.794  17.312  1.00  0.00     0.165 HD
BRANCH   6  10
HETATM   10  C7  UNL     1      19.330  34.060  15.661  1.00  0.00     0.094 C 
BRANCH  10  11
HETATM   11  C8  UNL     1      19.047  35.008  16.774  1.00  0.00     0.293 C 
HETATM   12  N1  UNL     1      19.962  36.091  16.741  1.00  0.00    -0.041 N 
HETATM   13  C9  UNL     1      21.132  35.822  17.541  1.00  0.00     0.275 C 
ATOM     14  H12 UNL     1      20.213  36.338  15.784  1.00  0.00     0.280 HD
ATOM     15  H11 UNL     1      19.514  36.964  17.018  1.00  0.00     0.280 HD
HETATM   16  C10 UNL     1      20.814  35.835  19.040  1.00  0.00     0.050 C 
HETATM   17  C11 UNL     1      22.278  36.707  17.317  1.00  0.00     0.248 C 
HETATM   18  O1  UNL     1      23.128  36.698  18.299  1.00  0.00    -0.271 OA
HETATM   19  N2  UNL     1      22.613  37.539  16.259  1.00  0.00    -0.346 N 
HETATM   20  C12 UNL     1      21.915  38.660  15.694  1.00  0.00     0.177 C 
ATOM     21  H2  UNL     1      23.501  37.318  15.808  1.00  0.00     0.163 HD
HETATM   22  C17 UNL     1      22.076  39.922  16.505  1.00  0.00     0.246 C 
HETATM   23  O2  UNL     1      23.287  40.171  16.764  1.00  0.00    -0.271 OA
HETATM   24  N6  UNL     1      21.040  40.769  16.951  1.00  0.00    -0.320 N 
HETATM   25  C18 UNL     1      21.241  42.198  16.602  1.00  0.00     0.159 C 
HETATM   26  C19 UNL     1      19.837  40.410  17.669  1.00  0.00     0.065 C 
HETATM   27  C24 UNL     1      18.825  39.793  16.795  1.00  0.00     0.160 C 
HETATM   28  N7  UNL     1      18.141  38.608  16.743  1.00  0.00    -0.356 N 
HETATM   29  C25 UNL     1      17.530  37.793  17.800  1.00  0.00     0.176 C 
ATOM     30  H7  UNL     1      18.038  38.224  15.804  1.00  0.00     0.162 HD
HETATM   31  C30 UNL     1      17.032  36.555  17.097  1.00  0.00     0.243 C 
HETATM   32  O4  UNL     1      15.883  36.690  16.553  1.00  0.00    -0.271 OA
HETATM   33  N8  UNL     1      17.648  35.325  16.967  1.00  0.00    -0.326 N 
HETATM   34  C31 UNL     1      16.781  34.129  17.013  1.00  0.00     0.155 C 
BRANCH  20  35
HETATM   35  C13 UNL     1      22.295  38.894  14.245  1.00  0.00     0.036 C 
BRANCH  35  36
HETATM   36  C14 UNL     1      21.772  40.124  13.617  1.00  0.00     0.022 C 
BRANCH  36  37
HETATM   37  C15 UNL     1      22.816  40.693  12.646  1.00  0.00     0.122 C 
BRANCH  37  38
HETATM   38  N3  UNL     1      22.935  39.844  11.466  1.00  0.00    -0.367 N 
HETATM   39  C16 UNL     1      23.908  39.962  10.633  1.00  0.00     0.196 C 
HETATM   40  N4  UNL     1      24.914  40.934  10.834  1.00  0.00    -0.067 NA
HETATM   41  N5  UNL     1      23.920  39.077   9.521  1.00  0.00    -0.067 NA
ATOM     42  H3  UNL     1      22.224  39.134  11.296  1.00  0.00     0.161 HD
ENDBRANCH  37  38
ENDBRANCH  36  37
ENDBRANCH  35  36
ENDBRANCH  20  35
BRANCH  26  43
HETATM   43  C20 UNL     1      19.998  39.890  19.041  1.00  0.00     0.065 C 
BRANCH  43  44
HETATM   44  C21 UNL     1      20.145  40.826  20.175  1.00  0.00    -0.017 C 
HETATM   45  C22 UNL     1      19.107  41.914  20.282  1.00  0.00     0.010 C 
HETATM   46  C23 UNL     1      21.491  41.414  20.437  1.00  0.00     0.010 C 
ENDBRANCH  43  44
ENDBRANCH  26  43
BRANCH  27  47
HETATM   47  O3  UNL     1      18.518  40.613  15.818  1.00  0.00    -0.345 OA
ATOM     48  H3  UNL     1      17.978  40.166  15.177  1.00  0.00     0.219 HD
ENDBRANCH  27  47
BRANCH  29  49
HETATM   49  C26 UNL     1      16.341  38.514  18.361  1.00  0.00     0.038 C 
BRANCH  49  50
HETATM   50  C27 UNL     1      16.506  39.691  19.213  1.00  0.00    -0.020 C 
HETATM   51  C28 UNL     1      15.805  40.899  18.566  1.00  0.00     0.009 C 
HETATM   52  C29 UNL     1      16.270  39.645  20.667  1.00  0.00     0.009 C 
ENDBRANCH  49  50
ENDBRANCH  29  49
ENDBRANCH  10  11
ENDBRANCH   6  10
ENDBRANCH   3   4
TORSDOF 12
ENDMDL
MODEL 3
REMARK VINA RESULT: -6.722993913      9.422     15.979
REMARK  12 active torsions:
REMARK  status: ('A' for Active; 'I' for Inactive)
REMARK    1  A    between atoms: C3_3  and  C4_4 
REMARK    2  A    between atoms: C6_6  and  C7_7 
REMARK    3  A    between atoms: C7_7  and  C8_8 
REMARK    4  A    between atoms: C12_18  and  C13_19 
REMARK    5  A    between atoms: C13_19  and  C14_20 
REMARK    6  A    between atoms: C14_20  and  C15_21 
REMARK    7  A    between atoms: C15_21  and  N3_22 
REMARK    8  A    between atoms: C19_31  and  C20_32 
REMARK    9  A    between atoms: C20_32  and  C21_33 
REMARK   10  A    between atoms: C24_36  and  O3_37 
REMARK   11  A    between atoms: C25_41  and  C26_42 
REMARK   12  A    between atoms: C26_42  and  C27_43 
ROOT
HETATM    1  C1  UNL     1      22.200  28.891  13.549  1.00  0.00     0.012 C 
HETATM    2  C2  UNL     1      21.466  29.020  14.483  1.00  0.00    -0.111 C 
HETATM    3  C3  UNL     1      20.553  29.185  15.615  1.00  0.00     0.150 C 
ENDROOT
BRANCH   3   4
HETATM    4  C4  UNL     1      20.541  30.652  15.959  1.00  0.00     0.020 A 
HETATM    5  C5  UNL     1      19.713  31.604  15.406  1.00  0.00     0.034 A 
HETATM    6  C6  UNL     1      20.047  32.812  16.013  1.00  0.00    -0.037 A 
HETATM    7  C32 UNL     1      21.046  32.525  16.889  1.00  0.00     0.095 A 
HETATM    8  N9  UNL     1      21.345  31.233  16.859  1.00  0.00    -0.368 N 
ATOM      9  H9  UNL     1      22.058  30.767  17.419  1.00  0.00     0.165 HD
BRANCH   6  10
HETATM   10  C7  UNL     1      19.355  34.055  15.687  1.00  0.00     0.094 C 
BRANCH  10  11
HETATM   11  C8  UNL     1      19.062  35.010  16.791  1.00  0.00     0.293 C 
HETATM   12  N1  UNL     1      19.973  36.096  16.755  1.00  0.00    -0.041 N 
HETATM   13  C9  UNL     1      21.140  35.838  17.563  1.00  0.00     0.275 C 
ATOM     14  H12 UNL     1      20.229  36.337  15.798  1.00  0.00     0.280 HD
ATOM     15  H11 UNL     1      19.520  36.970  17.023  1.00  0.00     0.280 HD
HETATM   16  C10 UNL     1      20.813  35.861  19.061  1.00  0.00     0.050 C 
HETATM   17  C11 UNL     1      22.284  36.726  17.339  1.00  0.00     0.248 C 
HETATM   18  O1  UNL     1      23.128  36.727  18.325  1.00  0.00    -0.271 OA
HETATM   19  N2  UNL     1      22.621  37.551  16.277  1.00  0.00    -0.346 N 
HETATM   20  C12 UNL     1      21.921  38.666  15.699  1.00  0.00     0.177 C 
ATOM     21  H2  UNL     1      23.513  37.331  15.833  1.00  0.00     0.163 HD
HETATM   22  C17 UNL     1      22.073  39.934  16.502  1.00  0.00     0.246 C 
HETATM   23  O2  UNL     1      23.281  40.190  16.766  1.00  0.00    -0.271 OA
HETATM   24  N6  UNL     1      21.032  40.781  16.936  1.00  0.00    -0.320 N 
HETATM   25  C18 UNL     1      21.228  42.207  16.577  1.00  0.00     0.159 C 
HETATM   26  C19 UNL     1      19.826  40.421  17.650  1.00  0.00     0.065 C 
HETATM   27  C24 UNL     1      18.821  39.795  16.775  1.00  0.00     0.160 C 
HETATM   28  N7  UNL     1      18.142  38.606  16.728  1.00  0.00    -0.356 N 
HETATM   29  C25 UNL     1      17.529  37.797  17.788  1.00  0.00     0.176 C 
ATOM     30  H7  UNL     1      18.046  38.214  15.792  1.00  0.00     0.162 HD
HETATM   31  C30 UNL     1      17.039  36.551  17.091  1.00  0.00     0.243 C 
HETATM   32  O4  UNL     1      15.893  36.677  16.540  1.00  0.00    -0.271 OA
HETATM   33  N8  UNL     1      17.661  35.323  16.974  1.00  0.00    -0.326 N 
HETATM   34  C31 UNL     1      16.798  34.124  17.024  1.00  0.00     0.155 C 
BRANCH  20  35
HETATM   35  C13 UNL     1      22.308  38.890  14.251  1.00  0.00     0.036 C 
BRANCH  35  36
HETATM   36  C14 UNL     1      21.801  40.124  13.617  1.00  0.00     0.022 C 
BRANCH  36  37
HETATM   37  C15 UNL     1      22.958  40.867  12.933  1.00  0.00     0.122 C 
BRANCH  37  38
HETATM   38  N3  UNL     1      23.893  41.383  13.926  1.00  0.00    -0.367 N 
HETATM   39  C16 UNL     1      24.017  42.641  14.162  1.00  0.00     0.196 C 
HETATM   40  N4  UNL     1      23.237  43.585  13.457  1.00  0.00    -0.067 NA
HETATM   41  N5  UNL     1      24.959  43.025  15.154  1.00  0.00    -0.067 NA
ATOM     42  H3  UNL     1      24.469  40.724  14.450  1.00  0.00     0.161 HD
ENDBRANCH  37  38
ENDBRANCH  36  37
ENDBRANCH  35  36
ENDBRANCH  20  35
BRANCH  26  43
HETATM   43  C20 UNL     1      19.981  39.912  19.027  1.00  0.00     0.065 C 
BRANCH  43  44
HETATM   44  C21 UNL     1      20.103  40.857  20.156  1.00  0.00    -0.017 C 
HETATM   45  C22 UNL     1      19.054  41.937  20.240  1.00  0.00     0.010 C 
HETATM   46  C23 UNL     1      21.439  41.459  20.434  1.00  0.00     0.010 C 
ENDBRANCH  43  44
ENDBRANCH  26  43
BRANCH  27  47
HETATM   47  O3  UNL     1      18.516  40.606  15.790  1.00  0.00    -0.345 OA
ATOM     48  H3  UNL     1      19.111  41.347  15.785  1.00  0.00     0.219 HD
ENDBRANCH  27  47
BRANCH  29  49
HETATM   49  C26 UNL     1      16.334  38.517  18.336  1.00  0.00     0.038 C 
BRANCH  49  50
HETATM   50  C27 UNL     1      16.489  39.682  19.206  1.00  0.00    -0.020 C 
HETATM   51  C28 UNL     1      15.800  40.900  18.565  1.00  0.00     0.009 C 
HETATM   52  C29 UNL     1      16.233  39.619  20.656  1.00  0.00     0.009 C 
ENDBRANCH  49  50
ENDBRANCH  29  49
ENDBRANCH  10  11
ENDBRANCH   6  10
ENDBRANCH   3   4
TORSDOF 12
ENDMDL
MODEL 4
REMARK VINA RESULT: -6.648579025     11.592     18.312
REMARK  12 active torsions:
REMARK  status: ('A' for Active; 'I' for Inactive)
REMARK    1  A    between atoms: C3_3  and  C4_4 
REMARK    2  A    between atoms: C6_6  and  C7_7 
REMARK    3  A    between atoms: C7_7  and  C8_8 
REMARK    4  A    between atoms: C12_18  and  C13_19 
REMARK    5  A    between atoms: C13_19  and  C14_20 
REMARK    6  A    between atoms: C14_20  and  C15_21 
REMARK    7  A    between atoms: C15_21  and  N3_22 
REMARK    8  A    between atoms: C19_31  and  C20_32 
REMARK    9  A    between atoms: C20_32  and  C21_33 
REMARK   10  A    between atoms: C24_36  and  O3_37 
REMARK   11  A    between atoms: C25_41  and  C26_42 
REMARK   12  A    between atoms: C26_42  and  C27_43 
ROOT
HETATM    1  C1  UNL     1      15.737  31.756  14.890  1.00  0.00     0.012 C 
HETATM    2  C2  UNL     1      15.615  32.596  15.731  1.00  0.00    -0.111 C 
HETATM    3  C3  UNL     1      15.470  33.638  16.749  1.00  0.00     0.150 C 
ENDROOT
BRANCH   3   4
HETATM    4  C4  UNL     1      16.855  34.145  17.059  1.00  0.00     0.020 A 
HETATM    5  C5  UNL     1      17.158  35.286  17.767  1.00  0.00     0.034 A 
HETATM    6  C6  UNL     1      18.548  35.362  17.810  1.00  0.00    -0.037 A 
HETATM    7  C32 UNL     1      19.001  34.274  17.134  1.00  0.00     0.095 A 
HETATM    8  N9  UNL     1      17.991  33.543  16.682  1.00  0.00    -0.368 N 
ATOM      9  H9  UNL     1      18.065  32.678  16.145  1.00  0.00     0.165 HD
BRANCH   6  10
HETATM   10  C7  UNL     1      19.239  36.445  18.503  1.00  0.00     0.094 C 
BRANCH  10  11
HETATM   11  C8  UNL     1      19.427  37.735  17.784  1.00  0.00     0.293 C 
HETATM   12  N1  UNL     1      18.664  38.758  18.402  1.00  0.00    -0.041 N 
HETATM   13  C9  UNL     1      17.347  38.863  17.822  1.00  0.00     0.275 C 
ATOM     14  H12 UNL     1      18.617  38.629  19.413  1.00  0.00     0.280 HD
ATOM     15  H11 UNL     1      19.154  39.653  18.379  1.00  0.00     0.280 HD
HETATM   16  C10 UNL     1      17.394  39.437  16.402  1.00  0.00     0.050 C 
HETATM   17  C11 UNL     1      16.370  39.640  18.590  1.00  0.00     0.248 C 
HETATM   18  O1  UNL     1      15.364  40.041  17.873  1.00  0.00    -0.271 OA
HETATM   19  N2  UNL     1      16.327  40.015  19.924  1.00  0.00    -0.346 N 
HETATM   20  C12 UNL     1      17.240  40.805  20.703  1.00  0.00     0.177 C 
ATOM     21  H2  UNL     1      15.513  39.674  20.436  1.00  0.00     0.163 HD
HETATM   22  C17 UNL     1      17.085  42.287  20.464  1.00  0.00     0.246 C 
HETATM   23  O2  UNL     1      15.884  42.665  20.573  1.00  0.00    -0.271 OA
HETATM   24  N6  UNL     1      18.116  43.199  20.156  1.00  0.00    -0.320 N 
HETATM   25  C18 UNL     1      18.147  44.391  21.039  1.00  0.00     0.159 C 
HETATM   26  C19 UNL     1      19.123  43.094  19.123  1.00  0.00     0.065 C 
HETATM   27  C24 UNL     1      20.196  42.150  19.478  1.00  0.00     0.160 C 
HETATM   28  N7  UNL     1      20.735  41.009  18.947  1.00  0.00    -0.356 N 
HETATM   29  C25 UNL     1      21.050  40.638  17.562  1.00  0.00     0.176 C 
ATOM     30  H7  UNL     1      20.958  40.290  19.635  1.00  0.00     0.162 HD
HETATM   31  C30 UNL     1      21.518  39.206  17.640  1.00  0.00     0.243 C 
HETATM   32  O4  UNL     1      22.753  39.076  17.944  1.00  0.00    -0.271 OA
HETATM   33  N8  UNL     1      20.796  38.046  17.434  1.00  0.00    -0.326 N 
HETATM   34  C31 UNL     1      21.497  36.926  16.773  1.00  0.00     0.155 C 
BRANCH  20  35
HETATM   35  C13 UNL     1      17.153  40.481  22.180  1.00  0.00     0.036 C 
BRANCH  35  36
HETATM   36  C14 UNL     1      16.052  39.587  22.595  1.00  0.00     0.022 C 
BRANCH  36  37
HETATM   37  C15 UNL     1      14.901  40.419  23.179  1.00  0.00     0.122 C 
BRANCH  37  38
HETATM   38  N3  UNL     1      13.615  39.899  22.732  1.00  0.00    -0.367 N 
HETATM   39  C16 UNL     1      12.691  40.664  22.266  1.00  0.00     0.196 C 
HETATM   40  N4  UNL     1      12.894  42.059  22.168  1.00  0.00    -0.067 NA
HETATM   41  N5  UNL     1      11.480  40.043  21.859  1.00  0.00    -0.067 NA
ATOM     42  H3  UNL     1      13.441  38.896  22.791  1.00  0.00     0.161 HD
ENDBRANCH  37  38
ENDBRANCH  36  37
ENDBRANCH  35  36
ENDBRANCH  20  35
BRANCH  26  43
HETATM   43  C20 UNL     1      18.662  43.147  17.721  1.00  0.00     0.065 C 
BRANCH  43  44
HETATM   44  C21 UNL     1      17.637  44.131  17.315  1.00  0.00    -0.017 C 
HETATM   45  C22 UNL     1      16.267  43.581  17.010  1.00  0.00     0.010 C 
HETATM   46  C23 UNL     1      17.996  45.139  16.276  1.00  0.00     0.010 C 
ENDBRANCH  43  44
ENDBRANCH  26  43
BRANCH  27  47
HETATM   47  O3  UNL     1      20.764  42.520  20.601  1.00  0.00    -0.345 OA
ATOM     48  H3  UNL     1      21.630  42.869  20.426  1.00  0.00     0.219 HD
ENDBRANCH  27  47
BRANCH  29  49
HETATM   49  C26 UNL     1      22.196  41.471  17.071  1.00  0.00     0.038 C 
BRANCH  49  50
HETATM   50  C27 UNL     1      22.049  42.346  15.908  1.00  0.00    -0.020 C 
HETATM   51  C28 UNL     1      22.055  43.816  16.365  1.00  0.00     0.009 C 
HETATM   52  C29 UNL     1      22.843  42.159  14.681  1.00  0.00     0.009 C 
ENDBRANCH  49  50
ENDBRANCH  29  49
ENDBRANCH  10  11
ENDBRANCH   6  10
ENDBRANCH   3   4
TORSDOF 12
ENDMDL
MODEL 5
REMARK VINA RESULT: -6.611257029     14.230     19.373
REMARK  12 active torsions:
REMARK  status: ('A' for Active; 'I' for Inactive)
REMARK    1  A    between atoms: C3_3  and  C4_4 
REMARK    2  A    between atoms: C6_6  and  C7_7 
REMARK    3  A    between atoms: C7_7  and  C8_8 
REMARK    4  A    between atoms: C12_18  and  C13_19 
REMARK    5  A    between atoms: C13_19  and  C14_20 
REMARK    6  A    between atoms: C14_20  and  C15_21 
REMARK    7  A    between atoms: C15_21  and  N3_22 
REMARK    8  A    between atoms: C19_31  and  C20_32 
REMARK    9  A    between atoms: C20_32  and  C21_33 
REMARK   10  A    between atoms: C24_36  and  O3_37 
REMARK   11  A    between atoms: C25_41  and  C26_42 
REMARK   12  A    between atoms: C26_42  and  C27_43 
ROOT
HETATM    1  C1  UNL     1      22.657  35.091  18.585  1.00  0.00     0.012 C 
HETATM    2  C2  UNL     1      22.756  35.649  17.532  1.00  0.00    -0.111 C 
HETATM    3  C3  UNL     1      22.890  36.346  16.252  1.00  0.00     0.150 C 
ENDROOT
BRANCH   3   4
HETATM    4  C4  UNL     1      22.107  37.629  16.367  1.00  0.00     0.020 A 
HETATM    5  C5  UNL     1      22.588  38.894  16.115  1.00  0.00     0.034 A 
HETATM    6  C6  UNL     1      21.529  39.769  16.346  1.00  0.00    -0.037 A 
HETATM    7  C32 UNL     1      20.479  38.990  16.720  1.00  0.00     0.095 A 
HETATM    8  N9  UNL     1      20.821  37.709  16.734  1.00  0.00    -0.368 N 
ATOM      9  H9  UNL     1      20.215  36.926  16.980  1.00  0.00     0.165 HD
BRANCH   6  10
HETATM   10  C7  UNL     1      21.665  41.210  16.159  1.00  0.00     0.094 C 
BRANCH  10  11
HETATM   11  C8  UNL     1      21.401  42.099  17.323  1.00  0.00     0.293 C 
HETATM   12  N1  UNL     1      20.006  42.195  17.562  1.00  0.00    -0.041 N 
HETATM   13  C9  UNL     1      19.419  43.301  16.845  1.00  0.00     0.275 C 
ATOM     14  H12 UNL     1      19.531  41.318  17.349  1.00  0.00     0.280 HD
ATOM     15  H11 UNL     1      19.803  42.247  18.560  1.00  0.00     0.280 HD
HETATM   16  C10 UNL     1      19.846  44.651  17.431  1.00  0.00     0.050 C 
HETATM   17  C11 UNL     1      17.957  43.296  16.746  1.00  0.00     0.248 C 
HETATM   18  O1  UNL     1      17.462  44.463  16.466  1.00  0.00    -0.271 OA
HETATM   19  N2  UNL     1      17.023  42.282  16.892  1.00  0.00    -0.346 N 
HETATM   20  C12 UNL     1      16.731  41.434  18.015  1.00  0.00     0.177 C 
ATOM     21  H2  UNL     1      16.448  42.110  16.067  1.00  0.00     0.163 HD
HETATM   22  C17 UNL     1      15.891  42.119  19.065  1.00  0.00     0.246 C 
HETATM   23  O2  UNL     1      14.862  42.662  18.574  1.00  0.00    -0.271 OA
HETATM   24  N6  UNL     1      16.164  42.180  20.448  1.00  0.00    -0.320 N 
HETATM   25  C18 UNL     1      15.031  41.745  21.303  1.00  0.00     0.159 C 
HETATM   26  C19 UNL     1      17.389  42.586  21.101  1.00  0.00     0.065 C 
HETATM   27  C24 UNL     1      18.429  41.546  21.040  1.00  0.00     0.160 C 
HETATM   28  N7  UNL     1      19.708  41.442  20.561  1.00  0.00    -0.356 N 
HETATM   29  C25 UNL     1      20.837  42.380  20.596  1.00  0.00     0.176 C 
ATOM     30  H7  UNL     1      19.912  40.557  20.099  1.00  0.00     0.162 HD
HETATM   31  C30 UNL     1      21.926  41.707  19.799  1.00  0.00     0.243 C 
HETATM   32  O4  UNL     1      22.619  40.865  20.467  1.00  0.00    -0.271 OA
HETATM   33  N8  UNL     1      22.258  41.878  18.468  1.00  0.00    -0.326 N 
HETATM   34  C31 UNL     1      23.693  41.820  18.120  1.00  0.00     0.155 C 
BRANCH  20  35
HETATM   35  C13 UNL     1      16.104  40.123  17.588  1.00  0.00     0.036 C 
BRANCH  35  36
HETATM   36  C14 UNL     1      16.702  38.893  18.147  1.00  0.00     0.022 C 
BRANCH  36  37
HETATM   37  C15 UNL     1      16.867  37.846  17.035  1.00  0.00     0.122 C 
BRANCH  37  38
HETATM   38  N3  UNL     1      16.139  36.627  17.367  1.00  0.00    -0.367 N 
HETATM   39  C16 UNL     1      16.713  35.614  17.913  1.00  0.00     0.196 C 
HETATM   40  N4  UNL     1      18.093  35.646  18.217  1.00  0.00    -0.067 NA
HETATM   41  N5  UNL     1      15.901  34.482  18.193  1.00  0.00    -0.067 NA
ATOM     42  H3  UNL     1      15.142  36.576  17.159  1.00  0.00     0.161 HD
ENDBRANCH  37  38
ENDBRANCH  36  37
ENDBRANCH  35  36
ENDBRANCH  20  35
BRANCH  26  43
HETATM   43  C20 UNL     1      17.793  43.999  20.962  1.00  0.00     0.065 C 
BRANCH  43  44
HETATM   44  C21 UNL     1      17.018  45.060  21.640  1.00  0.00    -0.017 C 
HETATM   45  C22 UNL     1      16.575  44.766  23.050  1.00  0.00     0.010 C 
HETATM   46  C23 UNL     1      15.888  45.694  20.900  1.00  0.00     0.010 C 
ENDBRANCH  43  44
ENDBRANCH  26  43
BRANCH  27  47
HETATM   47  O3  UNL     1      17.990  40.440  21.592  1.00  0.00    -0.345 OA
ATOM     48  H3  UNL     1      18.722  39.890  21.842  1.00  0.00     0.219 HD
ENDBRANCH  27  47
BRANCH  29  49
HETATM   49  C26 UNL     1      21.321  42.523  22.008  1.00  0.00     0.038 C 
BRANCH  49  50
HETATM   50  C27 UNL     1      21.195  43.793  22.723  1.00  0.00    -0.020 C 
HETATM   51  C28 UNL     1      21.214  44.957  21.716  1.00  0.00     0.009 C 
HETATM   52  C29 UNL     1      20.183  44.003  23.773  1.00  0.00     0.009 C 
ENDBRANCH  49  50
ENDBRANCH  29  49
ENDBRANCH  10  11
ENDBRANCH   6  10
ENDBRANCH   3   4
TORSDOF 12
ENDMDL
