MODEL 1
REMARK VINA RESULT: -6.569122420      0.000      0.000
REMARK  11 active torsions:
REMARK  status: ('A' for Active; 'I' for Inactive)
REMARK    1  A    between atoms: C2_2  and  C4_4 
REMARK    2  A    between atoms: C4_4  and  C5_5 
REMARK    3  A    between atoms: C7_10  and  C8_11 
REMARK    4  A    between atoms: C8_11  and  C9_12 
REMARK    5  A    between atoms: C9_12  and  C10_13 
REMARK    6  A    between atoms: C10_13  and  N2_14 
REMARK    7  A    between atoms: C13_23  and  C14_24 
REMARK    8  A    between atoms: C14_24  and  C15_25 
REMARK    9  A    between atoms: C20_32  and  C21_33 
REMARK   10  A    between atoms: C25_40  and  C26_41 
REMARK   11  A    between atoms: C26_41  and  C27_42 
ROOT
HETATM    1  C5  UNL     1      23.982  22.875   3.752  1.00  0.00     0.177 C 
HETATM    2  N1  UNL     1      22.877  23.795   3.641  1.00  0.00    -0.346 N 
ATOM      3  H1  UNL     1      21.985  23.352   3.421  1.00  0.00     0.163 HD
HETATM    4  C6  UNL     1      22.808  25.167   3.779  1.00  0.00     0.241 C 
HETATM    5  O1  UNL     1      22.099  25.631   4.755  1.00  0.00    -0.271 OA
HETATM    6  C7  UNL     1      23.427  26.254   2.978  1.00  0.00     0.177 C 
HETATM    7  N5  UNL     1      24.017  27.215   3.878  1.00  0.00    -0.343 N 
ATOM      8  H5  UNL     1      23.763  27.079   4.856  1.00  0.00     0.163 HD
HETATM    9  C12 UNL     1      24.858  28.283   3.663  1.00  0.00     0.265 C 
HETATM   10  O2  UNL     1      24.436  29.432   4.089  1.00  0.00    -0.266 OA
HETATM   11  C13 UNL     1      26.209  28.363   3.009  1.00  0.00     0.082 C 
HETATM   12  N6  UNL     1      27.205  28.755   3.962  1.00  0.00    -0.319 N 
HETATM   13  C18 UNL     1      28.037  29.937   3.620  1.00  0.00     0.159 C 
HETATM   14  C19 UNL     1      27.498  28.219   5.229  1.00  0.00     0.247 C 
HETATM   15  O3  UNL     1      27.587  29.047   6.224  1.00  0.00    -0.271 OA
HETATM   16  C20 UNL     1      27.738  26.826   5.671  1.00  0.00     0.180 C 
HETATM   17  N7  UNL     1      26.537  26.234   6.236  1.00  0.00    -0.346 N 
ATOM     18  H7  UNL     1      25.807  26.902   6.484  1.00  0.00     0.163 HD
HETATM   19  C24 UNL     1      26.224  24.916   6.491  1.00  0.00     0.241 C 
HETATM   20  O4  UNL     1      25.711  24.687   7.662  1.00  0.00    -0.271 OA
HETATM   21  C25 UNL     1      26.357  23.696   5.686  1.00  0.00     0.182 C 
HETATM   22  N9  UNL     1      26.321  23.846   4.269  1.00  0.00    -0.346 N 
ATOM     23  H9  UNL     1      27.100  24.344   3.839  1.00  0.00     0.163 HD
HETATM   24  C31 UNL     1      25.295  23.365   3.389  1.00  0.00     0.241 C 
HETATM   25  O5  UNL     1      25.602  23.379   2.163  1.00  0.00    -0.271 OA
ENDROOT
BRANCH   6  26
HETATM   26  C8  UNL     1      22.395  26.925   2.066  1.00  0.00     0.036 C 
BRANCH  26  27
HETATM   27  C9  UNL     1      22.847  27.122   0.665  1.00  0.00     0.022 C 
BRANCH  27  28
HETATM   28  C10 UNL     1      23.588  25.826   0.266  1.00  0.00     0.122 C 
BRANCH  28  29
HETATM   29  N2  UNL     1      23.524  25.646  -1.169  1.00  0.00    -0.367 N 
HETATM   30  C11 UNL     1      24.305  24.857  -1.825  1.00  0.00     0.196 C 
HETATM   31  N3  UNL     1      24.145  24.764  -3.224  1.00  0.00    -0.067 NA
HETATM   32  N4  UNL     1      25.295  24.106  -1.145  1.00  0.00    -0.067 NA
ATOM     33  H2  UNL     1      22.822  26.172  -1.689  1.00  0.00     0.161 HD
ENDBRANCH  28  29
ENDBRANCH  27  28
ENDBRANCH  26  27
ENDBRANCH   6  26
BRANCH   1  34
HETATM   34  C4  UNL     1      23.622  21.666   2.866  1.00  0.00     0.038 C 
BRANCH  34  35
HETATM   35  C2  UNL     1      22.269  21.124   3.245  1.00  0.00    -0.020 C 
HETATM   36  C1  UNL     1      22.532  19.822   4.000  1.00  0.00     0.009 C 
HETATM   37  C3  UNL     1      21.542  20.786   1.960  1.00  0.00     0.009 C 
ENDBRANCH  34  35
ENDBRANCH   1  34
BRANCH  11  38
HETATM   38  C14 UNL     1      26.471  27.287   2.053  1.00  0.00     0.067 C 
BRANCH  38  39
HETATM   39  C15 UNL     1      27.013  27.634   0.695  1.00  0.00    -0.017 C 
HETATM   40  C16 UNL     1      26.183  28.614  -0.082  1.00  0.00     0.010 C 
HETATM   41  C17 UNL     1      28.479  27.813   0.566  1.00  0.00     0.010 C 
ENDBRANCH  38  39
ENDBRANCH  11  38
BRANCH  21  42
HETATM   42  C26 UNL     1      27.595  22.880   6.093  1.00  0.00     0.091 C 
BRANCH  42  43
HETATM   43  C27 UNL     1      27.355  22.021   7.265  1.00  0.00     0.011 A 
HETATM   44  C28 UNL     1      26.903  20.707   7.154  1.00  0.00     0.026 A 
HETATM   45  C29 UNL     1      26.800  20.202   8.435  1.00  0.00     0.019 A 
HETATM   46  C30 UNL     1      27.192  21.222   9.264  1.00  0.00     0.088 A 
HETATM   47  N8  UNL     1      27.527  22.323   8.554  1.00  0.00    -0.369 N 
ATOM     48  H8  UNL     1      27.850  23.215   8.931  1.00  0.00     0.165 HD
ENDBRANCH  42  43
ENDBRANCH  21  42
BRANCH  16  49
HETATM   49  C21 UNL     1      28.808  26.744   6.768  1.00  0.00     0.009 C 
HETATM   50  C22 UNL     1      29.790  25.649   6.591  1.00  0.00     0.012 C 
HETATM   51  C23 UNL     1      28.173  26.625   8.133  1.00  0.00     0.012 C 
ENDBRANCH  16  49
TORSDOF 11
ENDMDL
MODEL 2
REMARK VINA RESULT: -6.394055803      1.669      2.745
REMARK  11 active torsions:
REMARK  status: ('A' for Active; 'I' for Inactive)
REMARK    1  A    between atoms: C2_2  and  C4_4 
REMARK    2  A    between atoms: C4_4  and  C5_5 
REMARK    3  A    between atoms: C7_10  and  C8_11 
REMARK    4  A    between atoms: C8_11  and  C9_12 
REMARK    5  A    between atoms: C9_12  and  C10_13 
REMARK    6  A    between atoms: C10_13  and  N2_14 
REMARK    7  A    between atoms: C13_23  and  C14_24 
REMARK    8  A    between atoms: C14_24  and  C15_25 
REMARK    9  A    between atoms: C20_32  and  C21_33 
REMARK   10  A    between atoms: C25_40  and  C26_41 
REMARK   11  A    between atoms: C26_41  and  C27_42 
ROOT
HETATM    1  C5  UNL     1      23.943  22.884   3.732  1.00  0.00     0.177 C 
HETATM    2  N1  UNL     1      22.859  23.830   3.640  1.00  0.00    -0.346 N 
ATOM      3  H1  UNL     1      21.957  23.411   3.411  1.00  0.00     0.163 HD
HETATM    4  C6  UNL     1      22.820  25.200   3.805  1.00  0.00     0.241 C 
HETATM    5  O1  UNL     1      22.121  25.660   4.790  1.00  0.00    -0.271 OA
HETATM    6  C7  UNL     1      23.462  26.289   3.026  1.00  0.00     0.177 C 
HETATM    7  N5  UNL     1      24.073  27.219   3.944  1.00  0.00    -0.343 N 
ATOM      8  H5  UNL     1      23.817  27.068   4.920  1.00  0.00     0.163 HD
HETATM    9  C12 UNL     1      24.937  28.272   3.750  1.00  0.00     0.265 C 
HETATM   10  O2  UNL     1      24.541  29.421   4.200  1.00  0.00    -0.266 OA
HETATM   11  C13 UNL     1      26.290  28.336   3.098  1.00  0.00     0.082 C 
HETATM   12  N6  UNL     1      27.294  28.686   4.058  1.00  0.00    -0.319 N 
HETATM   13  C18 UNL     1      28.152  29.856   3.740  1.00  0.00     0.159 C 
HETATM   14  C19 UNL     1      27.576  28.118   5.314  1.00  0.00     0.247 C 
HETATM   15  O3  UNL     1      27.682  28.924   6.326  1.00  0.00    -0.271 OA
HETATM   16  C20 UNL     1      27.785  26.712   5.728  1.00  0.00     0.180 C 
HETATM   17  N7  UNL     1      26.571  26.135   6.281  1.00  0.00    -0.346 N 
ATOM     18  H7  UNL     1      25.855  26.814   6.543  1.00  0.00     0.163 HD
HETATM   19  C24 UNL     1      26.229  24.820   6.510  1.00  0.00     0.241 C 
HETATM   20  O4  UNL     1      25.711  24.579   7.676  1.00  0.00    -0.271 OA
HETATM   21  C25 UNL     1      26.335  23.613   5.681  1.00  0.00     0.182 C 
HETATM   22  N9  UNL     1      26.303  23.793   4.267  1.00  0.00    -0.346 N 
ATOM     23  H9  UNL     1      27.092  24.282   3.846  1.00  0.00     0.163 HD
HETATM   24  C31 UNL     1      25.266  23.352   3.378  1.00  0.00     0.241 C 
HETATM   25  O5  UNL     1      25.573  23.384   2.152  1.00  0.00    -0.271 OA
ENDROOT
BRANCH   6  26
HETATM   26  C8  UNL     1      22.445  27.001   2.128  1.00  0.00     0.036 C 
BRANCH  26  27
HETATM   27  C9  UNL     1      21.669  28.071   2.806  1.00  0.00     0.022 C 
BRANCH  27  28
HETATM   28  C10 UNL     1      20.180  27.747   2.555  1.00  0.00     0.122 C 
BRANCH  28  29
HETATM   29  N2  UNL     1      19.650  26.979   3.662  1.00  0.00    -0.367 N 
HETATM   30  C11 UNL     1      18.417  26.613   3.752  1.00  0.00     0.196 C 
HETATM   31  N3  UNL     1      18.019  25.865   4.881  1.00  0.00    -0.067 NA
HETATM   32  N4  UNL     1      17.494  26.961   2.736  1.00  0.00    -0.067 NA
ATOM     33  H2  UNL     1      20.288  26.713   4.412  1.00  0.00     0.161 HD
ENDBRANCH  28  29
ENDBRANCH  27  28
ENDBRANCH  26  27
ENDBRANCH   6  26
BRANCH   1  34
HETATM   34  C4  UNL     1      23.556  21.701   2.821  1.00  0.00     0.038 C 
BRANCH  34  35
HETATM   35  C2  UNL     1      22.212  21.150   3.222  1.00  0.00    -0.020 C 
HETATM   36  C1  UNL     1      22.495  19.841   3.957  1.00  0.00     0.009 C 
HETATM   37  C3  UNL     1      21.462  20.824   1.948  1.00  0.00     0.009 C 
ENDBRANCH  34  35
ENDBRANCH   1  34
BRANCH  11  38
HETATM   38  C14 UNL     1      26.529  27.273   2.120  1.00  0.00     0.067 C 
BRANCH  38  39
HETATM   39  C15 UNL     1      26.247  27.541   0.669  1.00  0.00    -0.017 C 
HETATM   40  C16 UNL     1      25.456  26.472  -0.026  1.00  0.00     0.010 C 
HETATM   41  C17 UNL     1      25.899  28.930   0.282  1.00  0.00     0.010 C 
ENDBRANCH  38  39
ENDBRANCH  11  38
BRANCH  21  42
HETATM   42  C26 UNL     1      27.555  22.763   6.070  1.00  0.00     0.091 C 
BRANCH  42  43
HETATM   43  C27 UNL     1      27.326  21.953   7.279  1.00  0.00     0.011 A 
HETATM   44  C28 UNL     1      26.877  20.634   7.227  1.00  0.00     0.026 A 
HETATM   45  C29 UNL     1      26.785  20.183   8.528  1.00  0.00     0.019 A 
HETATM   46  C30 UNL     1      27.178  21.238   9.312  1.00  0.00     0.088 A 
HETATM   47  N8  UNL     1      27.506  22.309   8.553  1.00  0.00    -0.369 N 
ATOM     48  H8  UNL     1      27.829  23.217   8.890  1.00  0.00     0.165 HD
ENDBRANCH  42  43
ENDBRANCH  21  42
BRANCH  16  49
HETATM   49  C21 UNL     1      28.853  26.584   6.823  1.00  0.00     0.009 C 
HETATM   50  C22 UNL     1      29.804  25.466   6.629  1.00  0.00     0.012 C 
HETATM   51  C23 UNL     1      28.216  26.462   8.186  1.00  0.00     0.012 C 
ENDBRANCH  16  49
TORSDOF 11
ENDMDL
MODEL 3
REMARK VINA RESULT: -6.279423853      1.452      1.958
REMARK  11 active torsions:
REMARK  status: ('A' for Active; 'I' for Inactive)
REMARK    1  A    between atoms: C2_2  and  C4_4 
REMARK    2  A    between atoms: C4_4  and  C5_5 
REMARK    3  A    between atoms: C7_10  and  C8_11 
REMARK    4  A    between atoms: C8_11  and  C9_12 
REMARK    5  A    between atoms: C9_12  and  C10_13 
REMARK    6  A    between atoms: C10_13  and  N2_14 
REMARK    7  A    between atoms: C13_23  and  C14_24 
REMARK    8  A    between atoms: C14_24  and  C15_25 
REMARK    9  A    between atoms: C20_32  and  C21_33 
REMARK   10  A    between atoms: C25_40  and  C26_41 
REMARK   11  A    between atoms: C26_41  and  C27_42 
ROOT
HETATM    1  C5  UNL     1      23.911  22.963   3.691  1.00  0.00     0.177 C 
HETATM    2  N1  UNL     1      22.823  23.909   3.651  1.00  0.00    -0.346 N 
ATOM      3  H1  UNL     1      21.921  23.498   3.410  1.00  0.00     0.163 HD
HETATM    4  C6  UNL     1      22.782  25.269   3.880  1.00  0.00     0.241 C 
HETATM    5  O1  UNL     1      22.089  25.681   4.890  1.00  0.00    -0.271 OA
HETATM    6  C7  UNL     1      23.415  26.395   3.146  1.00  0.00     0.177 C 
HETATM    7  N5  UNL     1      24.030  27.284   4.102  1.00  0.00    -0.343 N 
ATOM      8  H5  UNL     1      23.781  27.088   5.072  1.00  0.00     0.163 HD
HETATM    9  C12 UNL     1      24.890  28.348   3.950  1.00  0.00     0.265 C 
HETATM   10  O2  UNL     1      24.493  29.474   4.455  1.00  0.00    -0.266 OA
HETATM   11  C13 UNL     1      26.237  28.446   3.292  1.00  0.00     0.082 C 
HETATM   12  N6  UNL     1      27.247  28.755   4.259  1.00  0.00    -0.319 N 
HETATM   13  C18 UNL     1      28.099  29.941   3.988  1.00  0.00     0.159 C 
HETATM   14  C19 UNL     1      27.540  28.131   5.485  1.00  0.00     0.247 C 
HETATM   15  O3  UNL     1      27.652  28.890   6.532  1.00  0.00    -0.271 OA
HETATM   16  C20 UNL     1      27.756  26.709   5.832  1.00  0.00     0.180 C 
HETATM   17  N7  UNL     1      26.549  26.103   6.368  1.00  0.00    -0.346 N 
ATOM     18  H7  UNL     1      25.833  26.766   6.666  1.00  0.00     0.163 HD
HETATM   19  C24 UNL     1      26.212  24.777   6.539  1.00  0.00     0.241 C 
HETATM   20  O4  UNL     1      25.704  24.481   7.696  1.00  0.00    -0.271 OA
HETATM   21  C25 UNL     1      26.316  23.610   5.654  1.00  0.00     0.182 C 
HETATM   22  N9  UNL     1      26.272  23.854   4.250  1.00  0.00    -0.346 N 
ATOM     23  H9  UNL     1      27.057  24.365   3.847  1.00  0.00     0.163 HD
HETATM   24  C31 UNL     1      25.231  23.451   3.350  1.00  0.00     0.241 C 
HETATM   25  O5  UNL     1      25.528  23.540   2.124  1.00  0.00    -0.271 OA
ENDROOT
BRANCH   6  26
HETATM   26  C8  UNL     1      22.389  27.144   2.290  1.00  0.00     0.036 C 
BRANCH  26  27
HETATM   27  C9  UNL     1      22.104  26.511   0.976  1.00  0.00     0.022 C 
BRANCH  27  28
HETATM   28  C10 UNL     1      21.683  27.657   0.029  1.00  0.00     0.122 C 
BRANCH  28  29
HETATM   29  N2  UNL     1      20.574  27.229  -0.796  1.00  0.00    -0.367 N 
HETATM   30  C11 UNL     1      19.342  27.515  -0.542  1.00  0.00     0.196 C 
HETATM   31  N3  UNL     1      18.347  27.040  -1.423  1.00  0.00    -0.067 NA
HETATM   32  N4  UNL     1      19.011  28.287   0.598  1.00  0.00    -0.067 NA
ATOM     33  H2  UNL     1      20.778  26.670  -1.625  1.00  0.00     0.161 HD
ENDBRANCH  28  29
ENDBRANCH  27  28
ENDBRANCH  26  27
ENDBRANCH   6  26
BRANCH   1  34
HETATM   34  C4  UNL     1      23.521  21.822   2.731  1.00  0.00     0.038 C 
BRANCH  34  35
HETATM   35  C2  UNL     1      22.194  21.231   3.132  1.00  0.00    -0.020 C 
HETATM   36  C1  UNL     1      22.518  19.969   3.929  1.00  0.00     0.009 C 
HETATM   37  C3  UNL     1      21.483  20.817   1.860  1.00  0.00     0.009 C 
ENDBRANCH  34  35
ENDBRANCH   1  34
BRANCH  11  38
HETATM   38  C14 UNL     1      26.471  27.431   2.264  1.00  0.00     0.067 C 
BRANCH  38  39
HETATM   39  C15 UNL     1      26.124  27.744   0.836  1.00  0.00    -0.017 C 
HETATM   40  C16 UNL     1      25.575  26.587   0.054  1.00  0.00     0.010 C 
HETATM   41  C17 UNL     1      25.482  29.051   0.557  1.00  0.00     0.010 C 
ENDBRANCH  38  39
ENDBRANCH  11  38
BRANCH  21  42
HETATM   42  C26 UNL     1      27.542  22.747   5.995  1.00  0.00     0.091 C 
BRANCH  42  43
HETATM   43  C27 UNL     1      27.326  21.885   7.170  1.00  0.00     0.011 A 
HETATM   44  C28 UNL     1      26.793  20.601   7.073  1.00  0.00     0.026 A 
HETATM   45  C29 UNL     1      26.741  20.084   8.352  1.00  0.00     0.019 A 
HETATM   46  C30 UNL     1      27.241  21.067   9.167  1.00  0.00     0.088 A 
HETATM   47  N8  UNL     1      27.595  22.158   8.449  1.00  0.00    -0.369 N 
ATOM     48  H8  UNL     1      27.991  23.024   8.815  1.00  0.00     0.165 HD
ENDBRANCH  42  43
ENDBRANCH  21  42
BRANCH  16  49
HETATM   49  C21 UNL     1      28.834  26.534   6.912  1.00  0.00     0.009 C 
HETATM   50  C22 UNL     1      29.794  25.437   6.653  1.00  0.00     0.012 C 
HETATM   51  C23 UNL     1      28.207  26.334   8.271  1.00  0.00     0.012 C 
ENDBRANCH  16  49
TORSDOF 11
ENDMDL
MODEL 4
REMARK VINA RESULT: -6.191613645      2.438      6.751
REMARK  11 active torsions:
REMARK  status: ('A' for Active; 'I' for Inactive)
REMARK    1  A    between atoms: C2_2  and  C4_4 
REMARK    2  A    between atoms: C4_4  and  C5_5 
REMARK    3  A    between atoms: C7_10  and  C8_11 
REMARK    4  A    between atoms: C8_11  and  C9_12 
REMARK    5  A    between atoms: C9_12  and  C10_13 
REMARK    6  A    between atoms: C10_13  and  N2_14 
REMARK    7  A    between atoms: C13_23  and  C14_24 
REMARK    8  A    between atoms: C14_24  and  C15_25 
REMARK    9  A    between atoms: C20_32  and  C21_33 
REMARK   10  A    between atoms: C25_40  and  C26_41 
REMARK   11  A    between atoms: C26_41  and  C27_42 
ROOT
HETATM    1  C5  UNL     1      26.864  24.767   5.856  1.00  0.00     0.177 C 
HETATM    2  N1  UNL     1      28.050  25.548   5.602  1.00  0.00    -0.346 N 
ATOM      3  H1  UNL     1      28.891  25.190   6.056  1.00  0.00     0.163 HD
HETATM    4  C6  UNL     1      28.254  26.691   4.857  1.00  0.00     0.241 C 
HETATM    5  O1  UNL     1      29.024  26.597   3.824  1.00  0.00    -0.271 OA
HETATM    6  C7  UNL     1      27.726  28.069   5.032  1.00  0.00     0.177 C 
HETATM    7  N5  UNL     1      27.250  28.549   3.757  1.00  0.00    -0.343 N 
ATOM      8  H5  UNL     1      27.510  27.958   2.968  1.00  0.00     0.163 HD
HETATM    9  C12 UNL     1      26.512  29.656   3.407  1.00  0.00     0.265 C 
HETATM   10  O2  UNL     1      27.051  30.443   2.530  1.00  0.00    -0.266 OA
HETATM   11  C13 UNL     1      25.162  30.131   3.865  1.00  0.00     0.082 C 
HETATM   12  N6  UNL     1      24.228  30.114   2.778  1.00  0.00    -0.319 N 
HETATM   13  C18 UNL     1      23.507  31.379   2.488  1.00  0.00     0.159 C 
HETATM   14  C19 UNL     1      23.911  29.078   1.881  1.00  0.00     0.247 C 
HETATM   15  O3  UNL     1      23.923  29.357   0.614  1.00  0.00    -0.271 OA
HETATM   16  C20 UNL     1      23.547  27.661   2.111  1.00  0.00     0.180 C 
HETATM   17  N7  UNL     1      24.697  26.785   1.956  1.00  0.00    -0.346 N 
ATOM     18  H7  UNL     1      25.493  27.206   1.476  1.00  0.00     0.163 HD
HETATM   19  C24 UNL     1      24.887  25.478   2.352  1.00  0.00     0.241 C 
HETATM   20  O4  UNL     1      25.399  24.698   1.451  1.00  0.00    -0.271 OA
HETATM   21  C25 UNL     1      24.620  24.782   3.616  1.00  0.00     0.182 C 
HETATM   22  N9  UNL     1      24.641  25.565   4.806  1.00  0.00    -0.346 N 
ATOM     23  H9  UNL     1      23.905  26.263   4.912  1.00  0.00     0.163 HD
HETATM   24  C31 UNL     1      25.597  25.467   5.871  1.00  0.00     0.241 C 
HETATM   25  O5  UNL     1      25.268  26.069   6.934  1.00  0.00    -0.271 OA
ENDROOT
BRANCH   6  26
HETATM   26  C8  UNL     1      28.799  29.004   5.598  1.00  0.00     0.036 C 
BRANCH  26  27
HETATM   27  C9  UNL     1      29.164  28.737   7.014  1.00  0.00     0.022 C 
BRANCH  27  28
HETATM   28  C10 UNL     1      30.708  28.716   7.063  1.00  0.00     0.122 C 
BRANCH  28  29
HETATM   29  N2  UNL     1      31.218  27.766   6.097  1.00  0.00    -0.367 N 
HETATM   30  C11 UNL     1      31.622  26.581   6.406  1.00  0.00     0.196 C 
HETATM   31  N3  UNL     1      32.098  25.743   5.375  1.00  0.00    -0.067 NA
HETATM   32  N4  UNL     1      31.584  26.144   7.753  1.00  0.00    -0.067 NA
ATOM     33  H2  UNL     1      31.259  28.049   5.118  1.00  0.00     0.161 HD
ENDBRANCH  28  29
ENDBRANCH  27  28
ENDBRANCH  26  27
ENDBRANCH   6  26
BRANCH   1  34
HETATM   34  C4  UNL     1      27.088  24.079   7.218  1.00  0.00     0.038 C 
BRANCH  34  35
HETATM   35  C2  UNL     1      26.564  22.667   7.182  1.00  0.00    -0.020 C 
HETATM   36  C1  UNL     1      27.086  21.992   8.450  1.00  0.00     0.009 C 
HETATM   37  C3  UNL     1      27.196  21.983   5.988  1.00  0.00     0.009 C 
ENDBRANCH  34  35
ENDBRANCH   1  34
BRANCH  11  38
HETATM   38  C14 UNL     1      24.777  29.641   5.189  1.00  0.00     0.067 C 
BRANCH  38  39
HETATM   39  C15 UNL     1      25.052  30.497   6.392  1.00  0.00    -0.017 C 
HETATM   40  C16 UNL     1      23.993  31.517   6.694  1.00  0.00     0.010 C 
HETATM   41  C17 UNL     1      25.648  29.841   7.581  1.00  0.00     0.010 C 
ENDBRANCH  38  39
ENDBRANCH  11  38
BRANCH  21  42
HETATM   42  C26 UNL     1      23.317  23.967   3.551  1.00  0.00     0.091 C 
BRANCH  42  43
HETATM   43  C27 UNL     1      23.550  22.536   3.291  1.00  0.00     0.011 A 
HETATM   44  C28 UNL     1      23.138  21.908   2.117  1.00  0.00     0.026 A 
HETATM   45  C29 UNL     1      23.524  20.585   2.206  1.00  0.00     0.019 A 
HETATM   46  C30 UNL     1      24.150  20.465   3.420  1.00  0.00     0.088 A 
HETATM   47  N8  UNL     1      24.165  21.648   4.077  1.00  0.00    -0.369 N 
ATOM     48  H8  UNL     1      24.568  21.827   4.997  1.00  0.00     0.165 HD
ENDBRANCH  42  43
ENDBRANCH  21  42
BRANCH  16  49
HETATM   49  C21 UNL     1      22.497  27.163   1.108  1.00  0.00     0.009 C 
HETATM   50  C22 UNL     1      22.978  27.059  -0.288  1.00  0.00     0.012 C 
HETATM   51  C23 UNL     1      21.262  28.032   1.145  1.00  0.00     0.012 C 
ENDBRANCH  16  49
TORSDOF 11
ENDMDL
MODEL 5
REMARK VINA RESULT: -6.095897936      1.123      1.351
REMARK  11 active torsions:
REMARK  status: ('A' for Active; 'I' for Inactive)
REMARK    1  A    between atoms: C2_2  and  C4_4 
REMARK    2  A    between atoms: C4_4  and  C5_5 
REMARK    3  A    between atoms: C7_10  and  C8_11 
REMARK    4  A    between atoms: C8_11  and  C9_12 
REMARK    5  A    between atoms: C9_12  and  C10_13 
REMARK    6  A    between atoms: C10_13  and  N2_14 
REMARK    7  A    between atoms: C13_23  and  C14_24 
REMARK    8  A    between atoms: C14_24  and  C15_25 
REMARK    9  A    between atoms: C20_32  and  C21_33 
REMARK   10  A    between atoms: C25_40  and  C26_41 
REMARK   11  A    between atoms: C26_41  and  C27_42 
ROOT
HETATM    1  C5  UNL     1      23.949  22.941   3.713  1.00  0.00     0.177 C 
HETATM    2  N1  UNL     1      22.877  23.903   3.647  1.00  0.00    -0.346 N 
ATOM      3  H1  UNL     1      21.971  23.502   3.405  1.00  0.00     0.163 HD
HETATM    4  C6  UNL     1      22.854  25.268   3.852  1.00  0.00     0.241 C 
HETATM    5  O1  UNL     1      22.160  25.707   4.849  1.00  0.00    -0.271 OA
HETATM    6  C7  UNL     1      23.512  26.371   3.105  1.00  0.00     0.177 C 
HETATM    7  N5  UNL     1      24.132  27.267   4.051  1.00  0.00    -0.343 N 
ATOM      8  H5  UNL     1      23.872  27.091   5.021  1.00  0.00     0.163 HD
HETATM    9  C12 UNL     1      25.009  28.314   3.889  1.00  0.00     0.265 C 
HETATM   10  O2  UNL     1      24.626  29.455   4.370  1.00  0.00    -0.266 OA
HETATM   11  C13 UNL     1      26.364  28.380   3.240  1.00  0.00     0.082 C 
HETATM   12  N6  UNL     1      27.370  28.691   4.211  1.00  0.00    -0.319 N 
HETATM   13  C18 UNL     1      28.243  29.859   3.928  1.00  0.00     0.159 C 
HETATM   14  C19 UNL     1      27.643  28.083   5.451  1.00  0.00     0.247 C 
HETATM   15  O3  UNL     1      27.757  28.858   6.485  1.00  0.00    -0.271 OA
HETATM   16  C20 UNL     1      27.834  26.663   5.824  1.00  0.00     0.180 C 
HETATM   17  N7  UNL     1      26.612  26.086   6.359  1.00  0.00    -0.346 N 
ATOM     18  H7  UNL     1      25.905  26.765   6.640  1.00  0.00     0.163 HD
HETATM   19  C24 UNL     1      26.254  24.768   6.549  1.00  0.00     0.241 C 
HETATM   20  O4  UNL     1      25.731  24.500   7.707  1.00  0.00    -0.271 OA
HETATM   21  C25 UNL     1      26.347  23.585   5.685  1.00  0.00     0.182 C 
HETATM   22  N9  UNL     1      26.319  23.806   4.277  1.00  0.00    -0.346 N 
ATOM     23  H9  UNL     1      27.115  24.297   3.872  1.00  0.00     0.163 HD
HETATM   24  C31 UNL     1      25.279  23.403   3.375  1.00  0.00     0.241 C 
HETATM   25  O5  UNL     1      25.589  23.467   2.150  1.00  0.00    -0.271 OA
ENDROOT
BRANCH   6  26
HETATM   26  C8  UNL     1      22.505  27.121   2.227  1.00  0.00     0.036 C 
BRANCH  26  27
HETATM   27  C9  UNL     1      22.183  26.444   0.944  1.00  0.00     0.022 C 
BRANCH  27  28
HETATM   28  C10 UNL     1      21.429  27.484   0.086  1.00  0.00     0.122 C 
BRANCH  28  29
HETATM   29  N2  UNL     1      21.606  27.184  -1.319  1.00  0.00    -0.367 N 
HETATM   30  C11 UNL     1      22.338  27.890  -2.113  1.00  0.00     0.196 C 
HETATM   31  N3  UNL     1      22.434  27.496  -3.465  1.00  0.00    -0.067 NA
HETATM   32  N4  UNL     1      23.021  29.031  -1.626  1.00  0.00    -0.067 NA
ATOM     33  H2  UNL     1      21.127  26.369  -1.701  1.00  0.00     0.161 HD
ENDBRANCH  28  29
ENDBRANCH  27  28
ENDBRANCH  26  27
ENDBRANCH   6  26
BRANCH   1  34
HETATM   34  C4  UNL     1      23.550  21.790   2.768  1.00  0.00     0.038 C 
BRANCH  34  35
HETATM   35  C2  UNL     1      22.220  21.215   3.178  1.00  0.00    -0.020 C 
HETATM   36  C1  UNL     1      22.534  19.942   3.963  1.00  0.00     0.009 C 
HETATM   37  C3  UNL     1      21.490  20.820   1.911  1.00  0.00     0.009 C 
ENDBRANCH  34  35
ENDBRANCH   1  34
BRANCH  11  38
HETATM   38  C14 UNL     1      26.591  27.344   2.232  1.00  0.00     0.067 C 
BRANCH  38  39
HETATM   39  C15 UNL     1      26.591  27.727   0.780  1.00  0.00    -0.017 C 
HETATM   40  C16 UNL     1      27.947  28.018   0.206  1.00  0.00     0.010 C 
HETATM   41  C17 UNL     1      25.671  26.993  -0.123  1.00  0.00     0.010 C 
ENDBRANCH  38  39
ENDBRANCH  11  38
BRANCH  21  42
HETATM   42  C26 UNL     1      27.556  22.709   6.052  1.00  0.00     0.091 C 
BRANCH  42  43
HETATM   43  C27 UNL     1      27.321  21.879   7.246  1.00  0.00     0.011 A 
HETATM   44  C28 UNL     1      26.799  20.589   7.174  1.00  0.00     0.026 A 
HETATM   45  C29 UNL     1      26.723  20.108   8.466  1.00  0.00     0.019 A 
HETATM   46  C30 UNL     1      27.198  21.117   9.263  1.00  0.00     0.088 A 
HETATM   47  N8  UNL     1      27.560  22.190   8.523  1.00  0.00    -0.369 N 
ATOM     48  H8  UNL     1      27.944  23.068   8.872  1.00  0.00     0.165 HD
ENDBRANCH  42  43
ENDBRANCH  21  42
BRANCH  16  49
HETATM   49  C21 UNL     1      28.899  26.491   6.916  1.00  0.00     0.009 C 
HETATM   50  C22 UNL     1      29.844  25.375   6.685  1.00  0.00     0.012 C 
HETATM   51  C23 UNL     1      28.257  26.325   8.273  1.00  0.00     0.012 C 
ENDBRANCH  16  49
TORSDOF 11
ENDMDL
