MODEL 1
REMARK VINA RESULT: -10.428767319      0.000      0.000
REMARK  10 active torsions:
REMARK  status: ('A' for Active; 'I' for Inactive)
REMARK    1  A    between atoms: C2_2  and  C3_3 
REMARK    2  A    between atoms: C3_3  and  C4_4 
REMARK    3  A    between atoms: N2_9  and  C7_10 
REMARK    4  A    between atoms: C7_10  and  C8_11 
REMARK    5  A    between atoms: C8_11  and  C9_12 
REMARK    6  A    between atoms: C9_12  and  C10_13 
REMARK    7  A    between atoms: C10_13  and  C11_14 
REMARK    8  A    between atoms: C11_14  and  C12_15 
REMARK    9  A    between atoms: C25_38  and  C26_39 
REMARK   10  A    between atoms: C26_39  and  C27_40 
ROOT
HETATM    1  C12 UNL     1      22.853  16.777   4.196  1.00  0.00     0.006 C 
HETATM    2  C13 UNL     1      22.385  16.796   5.604  1.00  0.00     0.123 C 
HETATM    3  N3  UNL     1      22.173  18.095   6.137  1.00  0.00    -0.399 N 
ATOM      4  H3  UNL     1      21.506  18.200   6.901  1.00  0.00     0.158 HD
HETATM    5  C14 UNL     1      22.774  19.142   5.711  1.00  0.00     0.097 C 
HETATM    6  C15 UNL     1      23.759  19.108   4.611  1.00  0.00     0.151 C 
HETATM    7  C16 UNL     1      23.379  18.038   3.630  1.00  0.00     0.053 C 
HETATM    8  N4  UNL     1      25.089  18.817   5.085  1.00  0.00    -0.327 N 
ATOM      9  H4  UNL     1      25.866  18.905   4.430  1.00  0.00     0.171 HD
HETATM   10  C17 UNL     1      25.360  18.435   6.354  1.00  0.00     0.007 C 
HETATM   11  C18 UNL     1      25.570  18.130   7.413  1.00  0.00    -0.084 C 
HETATM   12  C19 UNL     1      25.807  17.739   8.739  1.00  0.00     0.096 C 
HETATM   13  C20 UNL     1      25.308  18.833   9.685  1.00  0.00     0.021 C 
HETATM   14  C21 UNL     1      25.997  20.135   9.400  1.00  0.00     0.103 C 
HETATM   15  C22 UNL     1      25.062  21.147   8.827  1.00  0.00     0.217 C 
HETATM   16  O1  UNL     1      23.835  20.806   8.777  1.00  0.00    -0.274 OA
HETATM   17  N5  UNL     1      25.499  22.409   8.364  1.00  0.00    -0.352 N 
ATOM     18  H5  UNL     1      24.789  23.071   8.051  1.00  0.00     0.162 HD
HETATM   19  C23 UNL     1      26.882  22.827   8.304  1.00  0.00     0.225 C 
HETATM   20  C24 UNL     1      27.628  22.268   7.157  1.00  0.00     0.236 C 
HETATM   21  O2  UNL     1      28.904  22.252   7.291  1.00  0.00    -0.272 OA
HETATM   22  N6  UNL     1      27.121  21.762   5.965  1.00  0.00    -0.346 N 
ATOM     23  H6  UNL     1      27.536  20.906   5.598  1.00  0.00     0.163 HD
HETATM   24  C25 UNL     1      26.010  22.389   5.185  1.00  0.00     0.177 C 
HETATM   25  C33 UNL     1      25.881  21.639   3.910  1.00  0.00     0.247 C 
HETATM   26  O3  UNL     1      26.995  21.450   3.299  1.00  0.00    -0.271 OA
HETATM   27  N7  UNL     1      24.723  21.133   3.327  1.00  0.00    -0.293 N 
ATOM     28  H7  UNL     1      24.627  21.322   2.330  1.00  0.00     0.171 HD
HETATM   29  C34 UNL     1      23.674  20.408   3.891  1.00  0.00     0.258 C 
HETATM   30  O4  UNL     1      22.486  20.886   3.795  1.00  0.00    -0.270 OA
ENDROOT
BRANCH   1  31
HETATM   31  C11 UNL     1      21.673  16.319   3.329  1.00  0.00     0.006 C 
BRANCH  31  32
HETATM   32  C10 UNL     1      21.232  14.923   3.716  1.00  0.00     0.000 C 
BRANCH  32  33
HETATM   33  C9  UNL     1      19.869  14.596   3.202  1.00  0.00     0.002 C 
BRANCH  33  34
HETATM   34  C8  UNL     1      19.131  13.666   4.156  1.00  0.00     0.020 C 
BRANCH  34  35
HETATM   35  C7  UNL     1      19.721  13.798   5.532  1.00  0.00     0.130 C 
BRANCH  35  36
HETATM   36  N2  UNL     1      19.895  12.541   6.225  1.00  0.00    -0.345 N 
HETATM   37  C4  UNL     1      20.269  12.369   7.503  1.00  0.00     0.028 A 
HETATM   38  C5  UNL     1      20.313  10.998   7.752  1.00  0.00     0.114 A 
HETATM   39  N1  UNL     1      19.964  10.400   6.611  1.00  0.00    -0.360 N 
HETATM   40  C6  UNL     1      19.710  11.311   5.686  1.00  0.00     0.183 A 
ATOM     41  H1  UNL     1      19.903   9.392   6.472  1.00  0.00     0.166 HD
BRANCH  37  42
HETATM   42  C3  UNL     1      20.622  13.367   8.536  1.00  0.00     0.058 C 
BRANCH  42  43
HETATM   43  C2  UNL     1      22.067  13.255   8.941  1.00  0.00     0.002 C 
HETATM   44  C1  UNL     1      22.917  13.851   7.835  1.00  0.00     0.005 C 
ENDBRANCH  42  43
ENDBRANCH  37  42
ENDBRANCH  35  36
ENDBRANCH  34  35
ENDBRANCH  33  34
ENDBRANCH  32  33
ENDBRANCH  31  32
ENDBRANCH   1  31
BRANCH  24  45
HETATM   45  C26 UNL     1      26.320  23.830   4.971  1.00  0.00     0.039 C 
BRANCH  45  46
HETATM   46  C27 UNL     1      25.469  24.871   5.559  1.00  0.00    -0.012 C 
HETATM   47  C28 UNL     1      24.581  25.643   4.660  1.00  0.00     0.005 C 
HETATM   48  C29 UNL     1      24.532  27.135   5.083  1.00  0.00     0.000 C 
HETATM   49  C30 UNL     1      25.836  27.801   4.721  1.00  0.00     0.000 C 
HETATM   50  C31 UNL     1      26.936  26.890   5.230  1.00  0.00     0.000 C 
HETATM   51  C32 UNL     1      26.390  25.904   6.243  1.00  0.00     0.005 C 
ENDBRANCH  45  46
ENDBRANCH  24  45
TORSDOF 10
ENDMDL
MODEL 2
REMARK VINA RESULT: -10.357344966      1.265      2.369
REMARK  10 active torsions:
REMARK  status: ('A' for Active; 'I' for Inactive)
REMARK    1  A    between atoms: C2_2  and  C3_3 
REMARK    2  A    between atoms: C3_3  and  C4_4 
REMARK    3  A    between atoms: N2_9  and  C7_10 
REMARK    4  A    between atoms: C7_10  and  C8_11 
REMARK    5  A    between atoms: C8_11  and  C9_12 
REMARK    6  A    between atoms: C9_12  and  C10_13 
REMARK    7  A    between atoms: C10_13  and  C11_14 
REMARK    8  A    between atoms: C11_14  and  C12_15 
REMARK    9  A    between atoms: C25_38  and  C26_39 
REMARK   10  A    between atoms: C26_39  and  C27_40 
ROOT
HETATM    1  C12 UNL     1      22.815  16.549   4.506  1.00  0.00     0.006 C 
HETATM    2  C13 UNL     1      22.374  16.636   5.920  1.00  0.00     0.123 C 
HETATM    3  N3  UNL     1      22.157  17.959   6.390  1.00  0.00    -0.399 N 
ATOM      4  H3  UNL     1      21.504  18.096   7.161  1.00  0.00     0.158 HD
HETATM    5  C14 UNL     1      22.737  18.988   5.899  1.00  0.00     0.097 C 
HETATM    6  C15 UNL     1      23.701  18.909   4.782  1.00  0.00     0.151 C 
HETATM    7  C16 UNL     1      23.315  17.786   3.866  1.00  0.00     0.053 C 
HETATM    8  N4  UNL     1      25.043  18.657   5.244  1.00  0.00    -0.327 N 
ATOM      9  H4  UNL     1      25.806  18.719   4.570  1.00  0.00     0.171 HD
HETATM   10  C17 UNL     1      25.344  18.343   6.525  1.00  0.00     0.007 C 
HETATM   11  C18 UNL     1      25.578  18.095   7.595  1.00  0.00    -0.084 C 
HETATM   12  C19 UNL     1      25.845  17.776   8.934  1.00  0.00     0.096 C 
HETATM   13  C20 UNL     1      25.352  18.911   9.832  1.00  0.00     0.021 C 
HETATM   14  C21 UNL     1      26.020  20.204   9.467  1.00  0.00     0.103 C 
HETATM   15  C22 UNL     1      25.062  21.176   8.862  1.00  0.00     0.217 C 
HETATM   16  O1  UNL     1      23.838  20.819   8.854  1.00  0.00    -0.274 OA
HETATM   17  N5  UNL     1      25.475  22.417   8.326  1.00  0.00    -0.352 N 
ATOM     18  H5  UNL     1      24.752  23.055   7.994  1.00  0.00     0.162 HD
HETATM   19  C23 UNL     1      26.851  22.846   8.217  1.00  0.00     0.225 C 
HETATM   20  C24 UNL     1      27.581  22.236   7.085  1.00  0.00     0.236 C 
HETATM   21  O2  UNL     1      28.861  22.241   7.194  1.00  0.00    -0.272 OA
HETATM   22  N6  UNL     1      27.058  21.665   5.932  1.00  0.00    -0.346 N 
ATOM     23  H6  UNL     1      27.475  20.795   5.600  1.00  0.00     0.163 HD
HETATM   24  C25 UNL     1      25.925  22.239   5.142  1.00  0.00     0.177 C 
HETATM   25  C33 UNL     1      25.779  21.423   3.911  1.00  0.00     0.247 C 
HETATM   26  O3  UNL     1      26.884  21.214   3.288  1.00  0.00    -0.271 OA
HETATM   27  N7  UNL     1      24.617  20.875   3.378  1.00  0.00    -0.293 N 
ATOM     28  H7  UNL     1      24.499  21.011   2.374  1.00  0.00     0.171 HD
HETATM   29  C34 UNL     1      23.587  20.169   3.999  1.00  0.00     0.258 C 
HETATM   30  O4  UNL     1      22.392  20.628   3.902  1.00  0.00    -0.270 OA
ENDROOT
BRANCH   1  31
HETATM   31  C11 UNL     1      21.624  16.035   3.688  1.00  0.00     0.006 C 
BRANCH  31  32
HETATM   32  C10 UNL     1      20.599  15.376   4.586  1.00  0.00     0.000 C 
BRANCH  32  33
HETATM   33  C9  UNL     1      20.616  13.888   4.470  1.00  0.00     0.002 C 
BRANCH  33  34
HETATM   34  C8  UNL     1      19.900  13.237   5.647  1.00  0.00     0.020 C 
BRANCH  34  35
HETATM   35  C7  UNL     1      19.612  11.800   5.319  1.00  0.00     0.130 C 
BRANCH  35  36
HETATM   36  N2  UNL     1      18.205  11.467   5.301  1.00  0.00    -0.345 N 
HETATM   37  C4  UNL     1      17.390  11.463   4.233  1.00  0.00     0.028 A 
HETATM   38  C5  UNL     1      16.120  11.087   4.669  1.00  0.00     0.114 A 
HETATM   39  N1  UNL     1      16.224  10.881   5.984  1.00  0.00    -0.360 N 
HETATM   40  C6  UNL     1      17.466  11.104   6.377  1.00  0.00     0.183 A 
ATOM     41  H1  UNL     1      15.458  10.595   6.594  1.00  0.00     0.166 HD
BRANCH  37  42
HETATM   42  C3  UNL     1      17.668  11.802   2.820  1.00  0.00     0.058 C 
BRANCH  42  43
HETATM   43  C2  UNL     1      17.563  13.284   2.578  1.00  0.00     0.002 C 
HETATM   44  C1  UNL     1      18.394  13.624   1.355  1.00  0.00     0.005 C 
ENDBRANCH  42  43
ENDBRANCH  37  42
ENDBRANCH  35  36
ENDBRANCH  34  35
ENDBRANCH  33  34
ENDBRANCH  32  33
ENDBRANCH  31  32
ENDBRANCH   1  31
BRANCH  24  45
HETATM   45  C26 UNL     1      26.214  23.670   4.849  1.00  0.00     0.039 C 
BRANCH  45  46
HETATM   46  C27 UNL     1      25.377  24.731   5.420  1.00  0.00    -0.012 C 
HETATM   47  C28 UNL     1      24.400  25.409   4.536  1.00  0.00     0.005 C 
HETATM   48  C29 UNL     1      24.336  26.927   4.848  1.00  0.00     0.000 C 
HETATM   49  C30 UNL     1      25.588  27.595   4.336  1.00  0.00     0.000 C 
HETATM   50  C31 UNL     1      26.751  26.756   4.826  1.00  0.00     0.000 C 
HETATM   51  C32 UNL     1      26.314  25.838   5.950  1.00  0.00     0.005 C 
ENDBRANCH  45  46
ENDBRANCH  24  45
TORSDOF 10
ENDMDL
MODEL 3
REMARK VINA RESULT: -9.864668762      0.983      1.518
REMARK  10 active torsions:
REMARK  status: ('A' for Active; 'I' for Inactive)
REMARK    1  A    between atoms: C2_2  and  C3_3 
REMARK    2  A    between atoms: C3_3  and  C4_4 
REMARK    3  A    between atoms: N2_9  and  C7_10 
REMARK    4  A    between atoms: C7_10  and  C8_11 
REMARK    5  A    between atoms: C8_11  and  C9_12 
REMARK    6  A    between atoms: C9_12  and  C10_13 
REMARK    7  A    between atoms: C10_13  and  C11_14 
REMARK    8  A    between atoms: C11_14  and  C12_15 
REMARK    9  A    between atoms: C25_38  and  C26_39 
REMARK   10  A    between atoms: C26_39  and  C27_40 
ROOT
HETATM    1  C12 UNL     1      22.814  16.779   4.368  1.00  0.00     0.006 C 
HETATM    2  C13 UNL     1      22.367  16.831   5.781  1.00  0.00     0.123 C 
HETATM    3  N3  UNL     1      22.168  18.142   6.289  1.00  0.00    -0.399 N 
ATOM      4  H3  UNL     1      21.513  18.266   7.060  1.00  0.00     0.158 HD
HETATM    5  C14 UNL     1      22.765  19.177   5.830  1.00  0.00     0.097 C 
HETATM    6  C15 UNL     1      23.734  19.115   4.717  1.00  0.00     0.151 C 
HETATM    7  C16 UNL     1      23.336  18.026   3.766  1.00  0.00     0.053 C 
HETATM    8  N4  UNL     1      25.070  18.830   5.177  1.00  0.00    -0.327 N 
ATOM      9  H4  UNL     1      25.837  18.900   4.509  1.00  0.00     0.171 HD
HETATM   10  C17 UNL     1      25.359  18.475   6.450  1.00  0.00     0.007 C 
HETATM   11  C18 UNL     1      25.584  18.192   7.513  1.00  0.00    -0.084 C 
HETATM   12  C19 UNL     1      25.840  17.830   8.843  1.00  0.00     0.096 C 
HETATM   13  C20 UNL     1      25.359  18.946   9.772  1.00  0.00     0.021 C 
HETATM   14  C21 UNL     1      26.047  20.239   9.448  1.00  0.00     0.103 C 
HETATM   15  C22 UNL     1      25.107  21.242   8.867  1.00  0.00     0.217 C 
HETATM   16  O1  UNL     1      23.878  20.904   8.843  1.00  0.00    -0.274 OA
HETATM   17  N5  UNL     1      25.541  22.492   8.370  1.00  0.00    -0.352 N 
ATOM     18  H5  UNL     1      24.829  23.150   8.053  1.00  0.00     0.162 HD
HETATM   19  C23 UNL     1      26.924  22.904   8.280  1.00  0.00     0.225 C 
HETATM   20  C24 UNL     1      27.651  22.316   7.134  1.00  0.00     0.236 C 
HETATM   21  O2  UNL     1      28.929  22.299   7.249  1.00  0.00    -0.272 OA
HETATM   22  N6  UNL     1      27.125  21.787   5.962  1.00  0.00    -0.346 N 
ATOM     23  H6  UNL     1      27.531  20.921   5.607  1.00  0.00     0.163 HD
HETATM   24  C25 UNL     1      26.004  22.400   5.184  1.00  0.00     0.177 C 
HETATM   25  C33 UNL     1      25.853  21.623   3.929  1.00  0.00     0.247 C 
HETATM   26  O3  UNL     1      26.957  21.416   3.305  1.00  0.00    -0.271 OA
HETATM   27  N7  UNL     1      24.685  21.108   3.375  1.00  0.00    -0.293 N 
ATOM     28  H7  UNL     1      24.574  21.276   2.375  1.00  0.00     0.171 HD
HETATM   29  C34 UNL     1      23.642  20.399   3.970  1.00  0.00     0.258 C 
HETATM   30  O4  UNL     1      22.455  20.879   3.881  1.00  0.00    -0.270 OA
ENDROOT
BRANCH   1  31
HETATM   31  C11 UNL     1      21.619  16.306   3.529  1.00  0.00     0.006 C 
BRANCH  31  32
HETATM   32  C10 UNL     1      21.467  14.802   3.610  1.00  0.00     0.000 C 
BRANCH  32  33
HETATM   33  C9  UNL     1      20.114  14.394   4.091  1.00  0.00     0.002 C 
BRANCH  33  34
HETATM   34  C8  UNL     1      20.216  13.362   5.207  1.00  0.00     0.020 C 
BRANCH  34  35
HETATM   35  C7  UNL     1      20.201  14.065   6.535  1.00  0.00     0.130 C 
BRANCH  35  36
HETATM   36  N2  UNL     1      21.327  13.750   7.385  1.00  0.00    -0.345 N 
HETATM   37  C4  UNL     1      21.289  13.419   8.686  1.00  0.00     0.028 A 
HETATM   38  C5  UNL     1      22.601  13.203   9.108  1.00  0.00     0.114 A 
HETATM   39  N1  UNL     1      23.375  13.415   8.042  1.00  0.00    -0.360 N 
HETATM   40  C6  UNL     1      22.627  13.743   7.001  1.00  0.00     0.183 A 
ATOM     41  H1  UNL     1      24.392  13.336   8.031  1.00  0.00     0.166 HD
BRANCH  37  42
HETATM   42  C3  UNL     1      20.138  13.301   9.607  1.00  0.00     0.058 C 
BRANCH  42  43
HETATM   43  C2  UNL     1      19.646  11.882   9.697  1.00  0.00     0.002 C 
HETATM   44  C1  UNL     1      19.183  11.629  11.120  1.00  0.00     0.005 C 
ENDBRANCH  42  43
ENDBRANCH  37  42
ENDBRANCH  35  36
ENDBRANCH  34  35
ENDBRANCH  33  34
ENDBRANCH  32  33
ENDBRANCH  31  32
ENDBRANCH   1  31
BRANCH  24  45
HETATM   45  C26 UNL     1      26.316  23.835   4.934  1.00  0.00     0.039 C 
BRANCH  45  46
HETATM   46  C27 UNL     1      25.496  24.892   5.538  1.00  0.00    -0.012 C 
HETATM   47  C28 UNL     1      24.581  25.659   4.663  1.00  0.00     0.005 C 
HETATM   48  C29 UNL     1      24.560  27.157   5.066  1.00  0.00     0.000 C 
HETATM   49  C30 UNL     1      25.856  27.806   4.643  1.00  0.00     0.000 C 
HETATM   50  C31 UNL     1      26.966  26.893   5.123  1.00  0.00     0.000 C 
HETATM   51  C32 UNL     1      26.452  25.926   6.171  1.00  0.00     0.005 C 
ENDBRANCH  45  46
ENDBRANCH  24  45
TORSDOF 10
ENDMDL
MODEL 4
REMARK VINA RESULT: -9.789238471      0.769      1.696
REMARK  10 active torsions:
REMARK  status: ('A' for Active; 'I' for Inactive)
REMARK    1  A    between atoms: C2_2  and  C3_3 
REMARK    2  A    between atoms: C3_3  and  C4_4 
REMARK    3  A    between atoms: N2_9  and  C7_10 
REMARK    4  A    between atoms: C7_10  and  C8_11 
REMARK    5  A    between atoms: C8_11  and  C9_12 
REMARK    6  A    between atoms: C9_12  and  C10_13 
REMARK    7  A    between atoms: C10_13  and  C11_14 
REMARK    8  A    between atoms: C11_14  and  C12_15 
REMARK    9  A    between atoms: C25_38  and  C26_39 
REMARK   10  A    between atoms: C26_39  and  C27_40 
ROOT
HETATM    1  C12 UNL     1      22.930  16.757   4.309  1.00  0.00     0.006 C 
HETATM    2  C13 UNL     1      22.465  16.799   5.716  1.00  0.00     0.123 C 
HETATM    3  N3  UNL     1      22.242  18.106   6.224  1.00  0.00    -0.399 N 
ATOM      4  H3  UNL     1      21.576  18.220   6.988  1.00  0.00     0.158 HD
HETATM    5  C14 UNL     1      22.832  19.150   5.777  1.00  0.00     0.097 C 
HETATM    6  C15 UNL     1      23.815  19.104   4.675  1.00  0.00     0.151 C 
HETATM    7  C16 UNL     1      23.444  18.012   3.716  1.00  0.00     0.053 C 
HETATM    8  N4  UNL     1      25.149  18.835   5.152  1.00  0.00    -0.327 N 
ATOM      9  H4  UNL     1      25.923  18.917   4.493  1.00  0.00     0.171 HD
HETATM   10  C17 UNL     1      25.427  18.480   6.427  1.00  0.00     0.007 C 
HETATM   11  C18 UNL     1      25.642  18.197   7.492  1.00  0.00    -0.084 C 
HETATM   12  C19 UNL     1      25.885  17.835   8.825  1.00  0.00     0.096 C 
HETATM   13  C20 UNL     1      25.378  18.942   9.750  1.00  0.00     0.021 C 
HETATM   14  C21 UNL     1      26.054  20.245   9.438  1.00  0.00     0.103 C 
HETATM   15  C22 UNL     1      25.108  21.237   8.848  1.00  0.00     0.217 C 
HETATM   16  O1  UNL     1      23.884  20.883   8.808  1.00  0.00    -0.274 OA
HETATM   17  N5  UNL     1      25.532  22.494   8.360  1.00  0.00    -0.352 N 
ATOM     18  H5  UNL     1      24.815  23.143   8.035  1.00  0.00     0.162 HD
HETATM   19  C23 UNL     1      26.911  22.924   8.288  1.00  0.00     0.225 C 
HETATM   20  C24 UNL     1      27.659  22.349   7.150  1.00  0.00     0.236 C 
HETATM   21  O2  UNL     1      28.936  22.348   7.281  1.00  0.00    -0.272 OA
HETATM   22  N6  UNL     1      27.155  21.816   5.970  1.00  0.00    -0.346 N 
ATOM     23  H6  UNL     1      27.577  20.956   5.618  1.00  0.00     0.163 HD
HETATM   24  C25 UNL     1      26.037  22.417   5.180  1.00  0.00     0.177 C 
HETATM   25  C33 UNL     1      25.911  21.641   3.921  1.00  0.00     0.247 C 
HETATM   26  O3  UNL     1      27.026  21.450   3.310  1.00  0.00    -0.271 OA
HETATM   27  N7  UNL     1      24.757  21.113   3.350  1.00  0.00    -0.293 N 
ATOM     28  H7  UNL     1      24.657  21.281   2.349  1.00  0.00     0.171 HD
HETATM   29  C34 UNL     1      23.716  20.389   3.931  1.00  0.00     0.258 C 
HETATM   30  O4  UNL     1      22.524  20.853   3.828  1.00  0.00    -0.270 OA
ENDROOT
BRANCH   1  31
HETATM   31  C11 UNL     1      21.753  16.271   3.453  1.00  0.00     0.006 C 
BRANCH  31  32
HETATM   32  C10 UNL     1      21.455  14.812   3.727  1.00  0.00     0.000 C 
BRANCH  32  33
HETATM   33  C9  UNL     1      19.995  14.552   3.893  1.00  0.00     0.002 C 
BRANCH  33  34
HETATM   34  C8  UNL     1      19.600  14.559   5.364  1.00  0.00     0.020 C 
BRANCH  34  35
HETATM   35  C7  UNL     1      20.662  13.863   6.166  1.00  0.00     0.130 C 
BRANCH  35  36
HETATM   36  N2  UNL     1      20.149  12.942   7.156  1.00  0.00    -0.345 N 
HETATM   37  C4  UNL     1      19.549  11.763   6.927  1.00  0.00     0.028 A 
HETATM   38  C5  UNL     1      19.211  11.210   8.162  1.00  0.00     0.114 A 
HETATM   39  N1  UNL     1      19.622  12.083   9.084  1.00  0.00    -0.360 N 
HETATM   40  C6  UNL     1      20.186  13.125   8.498  1.00  0.00     0.183 A 
ATOM     41  H1  UNL     1      19.516  11.963  10.092  1.00  0.00     0.166 HD
BRANCH  37  42
HETATM   42  C3  UNL     1      19.228  11.088   5.650  1.00  0.00     0.058 C 
BRANCH  42  43
HETATM   43  C2  UNL     1      17.821  11.388   5.207  1.00  0.00     0.002 C 
HETATM   44  C1  UNL     1      17.794  11.404   3.690  1.00  0.00     0.005 C 
ENDBRANCH  42  43
ENDBRANCH  37  42
ENDBRANCH  35  36
ENDBRANCH  34  35
ENDBRANCH  33  34
ENDBRANCH  32  33
ENDBRANCH  31  32
ENDBRANCH   1  31
BRANCH  24  45
HETATM   45  C26 UNL     1      26.332  23.856   4.937  1.00  0.00     0.039 C 
BRANCH  45  46
HETATM   46  C27 UNL     1      25.497  24.900   5.540  1.00  0.00    -0.012 C 
HETATM   47  C28 UNL     1      24.505  25.590   4.683  1.00  0.00     0.005 C 
HETATM   48  C29 UNL     1      24.437  27.101   5.026  1.00  0.00     0.000 C 
HETATM   49  C30 UNL     1      25.679  27.787   4.513  1.00  0.00     0.000 C 
HETATM   50  C31 UNL     1      26.852  26.945   4.972  1.00  0.00     0.000 C 
HETATM   51  C32 UNL     1      26.434  26.001   6.082  1.00  0.00     0.005 C 
ENDBRANCH  45  46
ENDBRANCH  24  45
TORSDOF 10
ENDMDL
MODEL 5
REMARK VINA RESULT: -9.580920392      1.053      1.538
REMARK  10 active torsions:
REMARK  status: ('A' for Active; 'I' for Inactive)
REMARK    1  A    between atoms: C2_2  and  C3_3 
REMARK    2  A    between atoms: C3_3  and  C4_4 
REMARK    3  A    between atoms: N2_9  and  C7_10 
REMARK    4  A    between atoms: C7_10  and  C8_11 
REMARK    5  A    between atoms: C8_11  and  C9_12 
REMARK    6  A    between atoms: C9_12  and  C10_13 
REMARK    7  A    between atoms: C10_13  and  C11_14 
REMARK    8  A    between atoms: C11_14  and  C12_15 
REMARK    9  A    between atoms: C25_38  and  C26_39 
REMARK   10  A    between atoms: C26_39  and  C27_40 
ROOT
HETATM    1  C12 UNL     1      22.877  16.563   4.478  1.00  0.00     0.006 C 
HETATM    2  C13 UNL     1      22.421  16.650   5.887  1.00  0.00     0.123 C 
HETATM    3  N3  UNL     1      22.193  17.973   6.352  1.00  0.00    -0.399 N 
ATOM      4  H3  UNL     1      21.531  18.108   7.115  1.00  0.00     0.158 HD
HETATM    5  C14 UNL     1      22.774  19.004   5.865  1.00  0.00     0.097 C 
HETATM    6  C15 UNL     1      23.751  18.926   4.759  1.00  0.00     0.151 C 
HETATM    7  C16 UNL     1      23.379  17.800   3.840  1.00  0.00     0.053 C 
HETATM    8  N4  UNL     1      25.089  18.681   5.236  1.00  0.00    -0.327 N 
ATOM      9  H4  UNL     1      25.859  18.745   4.570  1.00  0.00     0.171 HD
HETATM   10  C17 UNL     1      25.377  18.371   6.521  1.00  0.00     0.007 C 
HETATM   11  C18 UNL     1      25.600  18.126   7.594  1.00  0.00    -0.084 C 
HETATM   12  C19 UNL     1      25.854  17.810   8.936  1.00  0.00     0.096 C 
HETATM   13  C20 UNL     1      25.346  18.945   9.827  1.00  0.00     0.021 C 
HETATM   14  C21 UNL     1      26.012  20.240   9.467  1.00  0.00     0.103 C 
HETATM   15  C22 UNL     1      25.056  21.206   8.849  1.00  0.00     0.217 C 
HETATM   16  O1  UNL     1      23.835  20.845   8.829  1.00  0.00    -0.274 OA
HETATM   17  N5  UNL     1      25.470  22.449   8.316  1.00  0.00    -0.352 N 
ATOM     18  H5  UNL     1      24.748  23.083   7.975  1.00  0.00     0.162 HD
HETATM   19  C23 UNL     1      26.846  22.884   8.222  1.00  0.00     0.225 C 
HETATM   20  C24 UNL     1      27.591  22.275   7.098  1.00  0.00     0.236 C 
HETATM   21  O2  UNL     1      28.869  22.286   7.222  1.00  0.00    -0.272 OA
HETATM   22  N6  UNL     1      27.082  21.699   5.940  1.00  0.00    -0.346 N 
ATOM     23  H6  UNL     1      27.507  20.830   5.615  1.00  0.00     0.163 HD
HETATM   24  C25 UNL     1      25.956  22.267   5.137  1.00  0.00     0.177 C 
HETATM   25  C33 UNL     1      25.827  21.448   3.906  1.00  0.00     0.247 C 
HETATM   26  O3  UNL     1      26.939  21.243   3.295  1.00  0.00    -0.271 OA
HETATM   27  N7  UNL     1      24.673  20.894   3.361  1.00  0.00    -0.293 N 
ATOM     28  H7  UNL     1      24.565  21.028   2.356  1.00  0.00     0.171 HD
HETATM   29  C34 UNL     1      23.639  20.185   3.973  1.00  0.00     0.258 C 
HETATM   30  O4  UNL     1      22.444  20.639   3.862  1.00  0.00    -0.270 OA
ENDROOT
BRANCH   1  31
HETATM   31  C11 UNL     1      21.697  16.042   3.647  1.00  0.00     0.006 C 
BRANCH  31  32
HETATM   32  C10 UNL     1      21.365  14.613   4.022  1.00  0.00     0.000 C 
BRANCH  32  33
HETATM   33  C9  UNL     1      19.949  14.458   4.466  1.00  0.00     0.002 C 
BRANCH  33  34
HETATM   34  C8  UNL     1      19.046  14.082   3.298  1.00  0.00     0.020 C 
BRANCH  34  35
HETATM   35  C7  UNL     1      18.895  12.588   3.249  1.00  0.00     0.130 C 
BRANCH  35  36
HETATM   36  N2  UNL     1      17.992  12.051   4.243  1.00  0.00    -0.345 N 
HETATM   37  C4  UNL     1      18.326  11.399   5.368  1.00  0.00     0.028 A 
HETATM   38  C5  UNL     1      17.146  11.057   6.028  1.00  0.00     0.114 A 
HETATM   39  N1  UNL     1      16.149  11.518   5.269  1.00  0.00    -0.360 N 
HETATM   40  C6  UNL     1      16.640  12.116   4.197  1.00  0.00     0.183 A 
ATOM     41  H1  UNL     1      15.157  11.422   5.485  1.00  0.00     0.166 HD
BRANCH  37  42
HETATM   42  C3  UNL     1      19.657  11.030   5.898  1.00  0.00     0.058 C 
BRANCH  42  43
HETATM   43  C2  UNL     1      19.749  11.274   7.380  1.00  0.00     0.002 C 
HETATM   44  C1  UNL     1      20.388  12.633   7.599  1.00  0.00     0.005 C 
ENDBRANCH  42  43
ENDBRANCH  37  42
ENDBRANCH  35  36
ENDBRANCH  34  35
ENDBRANCH  33  34
ENDBRANCH  32  33
ENDBRANCH  31  32
ENDBRANCH   1  31
BRANCH  24  45
HETATM   45  C26 UNL     1      26.242  23.699   4.844  1.00  0.00     0.039 C 
BRANCH  45  46
HETATM   46  C27 UNL     1      25.380  24.756   5.385  1.00  0.00    -0.012 C 
HETATM   47  C28 UNL     1      24.314  25.307   4.517  1.00  0.00     0.005 C 
HETATM   48  C29 UNL     1      24.181  26.840   4.714  1.00  0.00     0.000 C 
HETATM   49  C30 UNL     1      25.359  27.531   4.074  1.00  0.00     0.000 C 
HETATM   50  C31 UNL     1      26.596  26.797   4.551  1.00  0.00     0.000 C 
HETATM   51  C32 UNL     1      26.281  25.950   5.768  1.00  0.00     0.005 C 
ENDBRANCH  45  46
ENDBRANCH  24  45
TORSDOF 10
ENDMDL
