MODEL 1
REMARK VINA RESULT: -6.870692885      0.000      0.000
REMARK  12 active torsions:
REMARK  status: ('A' for Active; 'I' for Inactive)
REMARK    1  A    between atoms: C2_2  and  C3_3 
REMARK    2  A    between atoms: C3_3  and  C4_4 
REMARK    3  A    between atoms: C4_4  and  C5_5 
REMARK    4  A    between atoms: C4_4  and  C7_7 
REMARK    5  A    between atoms: C9_12  and  C10_13 
REMARK    6  A    between atoms: C10_13  and  S1_14 
REMARK    7  A    between atoms: C13_17  and  C14_18 
REMARK    8  A    between atoms: C14_18  and  C15_19 
REMARK    9  A    between atoms: C22_32  and  C23_33 
REMARK   10  A    between atoms: C25_39  and  C26_40 
REMARK   11  A    between atoms: C26_40  and  C27_41 
REMARK   12  A    between atoms: C31_49  and  O6_50 
ROOT
HETATM    1  C7  UNL     1      17.865  -5.245   6.979  1.00  0.00     0.088 C 
HETATM    2  N1  UNL     1      16.981  -6.344   6.629  1.00  0.00    -0.319 N 
ATOM      3  H1  UNL     1      16.369  -6.617   7.398  1.00  0.00     0.169 HD
HETATM    4  C8  UNL     1      16.780  -7.103   5.494  1.00  0.00     0.254 C 
HETATM    5  O1  UNL     1      15.707  -6.766   4.843  1.00  0.00    -0.268 OA
HETATM    6  C9  UNL     1      17.511  -8.208   4.855  1.00  0.00     0.034 C 
HETATM    7  C13 UNL     1      16.918  -9.440   4.415  1.00  0.00     0.041 C 
HETATM    8  C18 UNL     1      17.451  -9.838   3.052  1.00  0.00     0.252 C 
HETATM    9  O2  UNL     1      18.532 -10.521   2.922  1.00  0.00    -0.268 OA
HETATM   10  N2  UNL     1      16.842  -9.515   1.831  1.00  0.00    -0.344 N 
ATOM     11  H2  UNL     1      16.694 -10.287   1.181  1.00  0.00     0.163 HD
HETATM   12  C19 UNL     1      16.398  -8.205   1.387  1.00  0.00     0.172 C 
HETATM   13  C20 UNL     1      15.250  -8.347   0.403  1.00  0.00     0.042 C 
HETATM   14  C21 UNL     1      17.579  -7.558   0.757  1.00  0.00     0.242 C 
HETATM   15  O3  UNL     1      18.085  -8.252  -0.203  1.00  0.00    -0.271 OA
HETATM   16  N3  UNL     1      18.158  -6.327   1.097  1.00  0.00    -0.332 N 
ATOM     17  H3  UNL     1      19.132  -6.382   1.397  1.00  0.00     0.165 HD
HETATM   18  C22 UNL     1      17.612  -5.012   1.093  1.00  0.00     0.249 C 
HETATM   19  N4  UNL     1      16.695  -4.697   2.158  1.00  0.00    -0.332 N 
ATOM     20  H4  UNL     1      15.926  -5.355   2.284  1.00  0.00     0.165 HD
HETATM   21  C24 UNL     1      16.713  -3.611   3.047  1.00  0.00     0.242 C 
HETATM   22  O5  UNL     1      15.677  -2.826   3.064  1.00  0.00    -0.271 OA
HETATM   23  C25 UNL     1      17.779  -3.220   3.998  1.00  0.00     0.181 C 
HETATM   24  N6  UNL     1      18.481  -4.326   4.603  1.00  0.00    -0.355 N 
ATOM     25  H6  UNL     1      18.893  -4.967   3.924  1.00  0.00     0.162 HD
HETATM   26  C31 UNL     1      18.711  -4.698   5.933  1.00  0.00     0.164 C 
ENDROOT
BRANCH  23  27
HETATM   27  C26 UNL     1      18.793  -2.275   3.311  1.00  0.00     0.091 C 
BRANCH  27  28
HETATM   28  C27 UNL     1      18.655  -0.944   3.899  1.00  0.00     0.011 A 
HETATM   29  C28 UNL     1      18.075  -0.673   5.144  1.00  0.00     0.026 A 
HETATM   30  C29 UNL     1      18.110   0.684   5.387  1.00  0.00     0.019 A 
HETATM   31  C30 UNL     1      18.714   1.239   4.285  1.00  0.00     0.088 A 
HETATM   32  N5  UNL     1      19.025   0.254   3.426  1.00  0.00    -0.369 N 
ATOM     33  H5  UNL     1      19.484   0.400   2.527  1.00  0.00     0.165 HD
ENDBRANCH  27  28
ENDBRANCH  23  27
BRANCH  26  34
HETATM   34  O6  UNL     1      19.965  -4.507   6.283  1.00  0.00    -0.345 OA
ATOM     35  H6  UNL     1      20.134  -3.681   6.721  1.00  0.00     0.219 HD
ENDBRANCH  26  34
BRANCH  18  36
HETATM   36  C23 UNL     1      16.883  -4.661  -0.177  1.00  0.00     0.277 C 
HETATM   37  O4  UNL     1      17.446  -4.609  -1.237  1.00  0.00    -0.303 OA
ENDBRANCH  18  36
BRANCH   1  38
HETATM   38  C4  UNL     1      17.261  -4.304   7.984  1.00  0.00    -0.049 C 
BRANCH  38  39
HETATM   39  C3  UNL     1      17.420  -4.777   9.396  1.00  0.00     0.036 C 
BRANCH  39  40
HETATM   40  C2  UNL     1      18.780  -5.375   9.645  1.00  0.00    -0.000 C 
HETATM   41  C1  UNL     1      19.783  -4.387  10.145  1.00  0.00     0.005 C 
ENDBRANCH  39  40
ENDBRANCH  38  39
BRANCH  38  42
HETATM   42  C5  UNL     1      17.358  -2.849   7.752  1.00  0.00     0.032 C 
HETATM   43  C6  UNL     1      17.406  -1.919   8.895  1.00  0.00     0.010 C 
ENDBRANCH  38  42
ENDBRANCH   1  38
BRANCH   6  44
HETATM   44  C10 UNL     1      18.892  -8.434   5.399  1.00  0.00     0.108 C 
BRANCH  44  45
HETATM   45  S1  UNL     1      19.161  -8.749   7.054  1.00  0.00    -0.223 SA
HETATM   46  C11 UNL     1      20.699  -7.855   7.461  1.00  0.00     0.078 C 
HETATM   47  C12 UNL     1      19.501 -10.405   7.531  1.00  0.00     0.078 C 
ENDBRANCH  44  45
ENDBRANCH   6  44
BRANCH   7  48
HETATM   48  C14 UNL     1      15.598 -10.000   4.557  1.00  0.00    -0.005 C 
BRANCH  48  49
HETATM   49  C15 UNL     1      15.019 -10.461   5.838  1.00  0.00     0.001 C 
HETATM   50  C16 UNL     1      13.855  -9.475   6.127  1.00  0.00     0.013 C 
HETATM   51  C17 UNL     1      15.818 -10.544   7.065  1.00  0.00     0.013 C 
ENDBRANCH  48  49
ENDBRANCH   7  48
TORSDOF 12
ENDMDL
MODEL 2
REMARK VINA RESULT: -6.441492885      0.639      1.271
REMARK  12 active torsions:
REMARK  status: ('A' for Active; 'I' for Inactive)
REMARK    1  A    between atoms: C2_2  and  C3_3 
REMARK    2  A    between atoms: C3_3  and  C4_4 
REMARK    3  A    between atoms: C4_4  and  C5_5 
REMARK    4  A    between atoms: C4_4  and  C7_7 
REMARK    5  A    between atoms: C9_12  and  C10_13 
REMARK    6  A    between atoms: C10_13  and  S1_14 
REMARK    7  A    between atoms: C13_17  and  C14_18 
REMARK    8  A    between atoms: C14_18  and  C15_19 
REMARK    9  A    between atoms: C22_32  and  C23_33 
REMARK   10  A    between atoms: C25_39  and  C26_40 
REMARK   11  A    between atoms: C26_40  and  C27_41 
REMARK   12  A    between atoms: C31_49  and  O6_50 
ROOT
HETATM    1  C7  UNL     1      18.058  -5.105   7.061  1.00  0.00     0.088 C 
HETATM    2  N1  UNL     1      17.102  -6.168   6.800  1.00  0.00    -0.319 N 
ATOM      3  H1  UNL     1      16.542  -6.403   7.620  1.00  0.00     0.169 HD
HETATM    4  C8  UNL     1      16.780  -6.932   5.698  1.00  0.00     0.254 C 
HETATM    5  O1  UNL     1      15.674  -6.557   5.127  1.00  0.00    -0.268 OA
HETATM    6  C9  UNL     1      17.408  -8.078   5.023  1.00  0.00     0.034 C 
HETATM    7  C13 UNL     1      16.729  -9.288   4.651  1.00  0.00     0.041 C 
HETATM    8  C18 UNL     1      17.134  -9.728   3.258  1.00  0.00     0.252 C 
HETATM    9  O2  UNL     1      18.171 -10.461   3.055  1.00  0.00    -0.268 OA
HETATM   10  N2  UNL     1      16.445  -9.395   2.083  1.00  0.00    -0.344 N 
ATOM     11  H2  UNL     1      16.213 -10.169   1.460  1.00  0.00     0.163 HD
HETATM   12  C19 UNL     1      16.025  -8.073   1.653  1.00  0.00     0.172 C 
HETATM   13  C20 UNL     1      14.798  -8.176   0.765  1.00  0.00     0.042 C 
HETATM   14  C21 UNL     1      17.179  -7.488   0.921  1.00  0.00     0.242 C 
HETATM   15  O3  UNL     1      17.578  -8.216  -0.063  1.00  0.00    -0.271 OA
HETATM   16  N3  UNL     1      17.837  -6.279   1.194  1.00  0.00    -0.332 N 
ATOM     17  H3  UNL     1      18.828  -6.374   1.417  1.00  0.00     0.165 HD
HETATM   18  C22 UNL     1      17.350  -4.942   1.210  1.00  0.00     0.249 C 
HETATM   19  N4  UNL     1      16.535  -4.571   2.339  1.00  0.00    -0.332 N 
ATOM     20  H4  UNL     1      15.750  -5.192   2.536  1.00  0.00     0.165 HD
HETATM   21  C24 UNL     1      16.671  -3.475   3.205  1.00  0.00     0.242 C 
HETATM   22  O5  UNL     1      15.675  -2.644   3.289  1.00  0.00    -0.271 OA
HETATM   23  C25 UNL     1      17.825  -3.119   4.062  1.00  0.00     0.181 C 
HETATM   24  N6  UNL     1      18.524  -4.247   4.629  1.00  0.00    -0.355 N 
ATOM     25  H6  UNL     1      18.853  -4.915   3.931  1.00  0.00     0.162 HD
HETATM   26  C31 UNL     1      18.842  -4.611   5.943  1.00  0.00     0.164 C 
ENDROOT
BRANCH  23  27
HETATM   27  C26 UNL     1      18.821  -2.230   3.281  1.00  0.00     0.091 C 
BRANCH  27  28
HETATM   28  C27 UNL     1      18.721  -0.864   3.793  1.00  0.00     0.011 A 
HETATM   29  C28 UNL     1      18.386  -0.524   5.109  1.00  0.00     0.026 A 
HETATM   30  C29 UNL     1      18.383   0.848   5.247  1.00  0.00     0.019 A 
HETATM   31  C30 UNL     1      18.718   1.342   4.009  1.00  0.00     0.088 A 
HETATM   32  N5  UNL     1      18.911   0.309   3.174  1.00  0.00    -0.369 N 
ATOM     33  H5  UNL     1      19.170   0.404   2.192  1.00  0.00     0.165 HD
ENDBRANCH  27  28
ENDBRANCH  23  27
BRANCH  26  34
HETATM   34  O6  UNL     1      20.126  -4.471   6.190  1.00  0.00    -0.345 OA
ATOM     35  H6  UNL     1      20.649  -4.207   5.442  1.00  0.00     0.219 HD
ENDBRANCH  26  34
BRANCH  18  36
HETATM   36  C23 UNL     1      16.539  -4.575  -0.004  1.00  0.00     0.277 C 
HETATM   37  O4  UNL     1      17.031  -4.505  -1.098  1.00  0.00    -0.303 OA
ENDBRANCH  18  36
BRANCH   1  38
HETATM   38  C4  UNL     1      17.577  -4.125   8.095  1.00  0.00    -0.049 C 
BRANCH  38  39
HETATM   39  C3  UNL     1      17.346  -2.754   7.537  1.00  0.00     0.036 C 
BRANCH  39  40
HETATM   40  C2  UNL     1      17.728  -1.672   8.513  1.00  0.00    -0.000 C 
HETATM   41  C1  UNL     1      19.201  -1.445   8.603  1.00  0.00     0.005 C 
ENDBRANCH  39  40
ENDBRANCH  38  39
BRANCH  38  42
HETATM   42  C5  UNL     1      16.642  -4.587   9.140  1.00  0.00     0.032 C 
HETATM   43  C6  UNL     1      17.153  -5.290  10.331  1.00  0.00     0.010 C 
ENDBRANCH  38  42
ENDBRANCH   1  38
BRANCH   6  44
HETATM   44  C10 UNL     1      18.817  -8.358   5.461  1.00  0.00     0.108 C 
BRANCH  44  45
HETATM   45  S1  UNL     1      19.186  -8.781   7.072  1.00  0.00    -0.223 SA
HETATM   46  C11 UNL     1      20.789  -7.979   7.415  1.00  0.00     0.078 C 
HETATM   47  C12 UNL     1      19.479 -10.475   7.431  1.00  0.00     0.078 C 
ENDBRANCH  44  45
ENDBRANCH   6  44
BRANCH   7  48
HETATM   48  C14 UNL     1      15.402  -9.786   4.907  1.00  0.00    -0.005 C 
BRANCH  48  49
HETATM   49  C15 UNL     1      14.864 -10.084   6.253  1.00  0.00     0.001 C 
HETATM   50  C16 UNL     1      15.794 -11.191   6.818  1.00  0.00     0.013 C 
HETATM   51  C17 UNL     1      13.487 -10.545   6.452  1.00  0.00     0.013 C 
ENDBRANCH  48  49
ENDBRANCH   7  48
TORSDOF 12
ENDMDL
MODEL 3
REMARK VINA RESULT: -6.360550467      1.121      1.711
REMARK  12 active torsions:
REMARK  status: ('A' for Active; 'I' for Inactive)
REMARK    1  A    between atoms: C2_2  and  C3_3 
REMARK    2  A    between atoms: C3_3  and  C4_4 
REMARK    3  A    between atoms: C4_4  and  C5_5 
REMARK    4  A    between atoms: C4_4  and  C7_7 
REMARK    5  A    between atoms: C9_12  and  C10_13 
REMARK    6  A    between atoms: C10_13  and  S1_14 
REMARK    7  A    between atoms: C13_17  and  C14_18 
REMARK    8  A    between atoms: C14_18  and  C15_19 
REMARK    9  A    between atoms: C22_32  and  C23_33 
REMARK   10  A    between atoms: C25_39  and  C26_40 
REMARK   11  A    between atoms: C26_40  and  C27_41 
REMARK   12  A    between atoms: C31_49  and  O6_50 
ROOT
HETATM    1  C7  UNL     1      18.720  -5.253   6.945  1.00  0.00     0.088 C 
HETATM    2  N1  UNL     1      17.661  -6.230   6.766  1.00  0.00    -0.319 N 
ATOM      3  H1  UNL     1      17.262  -6.545   7.650  1.00  0.00     0.169 HD
HETATM    4  C8  UNL     1      17.070  -6.830   5.673  1.00  0.00     0.254 C 
HETATM    5  O1  UNL     1      15.900  -6.336   5.394  1.00  0.00    -0.268 OA
HETATM    6  C9  UNL     1      17.469  -7.904   4.750  1.00  0.00     0.034 C 
HETATM    7  C13 UNL     1      16.646  -9.025   4.388  1.00  0.00     0.041 C 
HETATM    8  C18 UNL     1      16.731  -9.297   2.898  1.00  0.00     0.252 C 
HETATM    9  O2  UNL     1      17.652 -10.041   2.398  1.00  0.00    -0.268 OA
HETATM   10  N2  UNL     1      15.844  -8.784   1.941  1.00  0.00    -0.344 N 
ATOM     11  H2  UNL     1      15.438  -9.460   1.293  1.00  0.00     0.163 HD
HETATM   12  C19 UNL     1      15.438  -7.400   1.768  1.00  0.00     0.172 C 
HETATM   13  C20 UNL     1      14.053  -7.335   1.150  1.00  0.00     0.042 C 
HETATM   14  C21 UNL     1      16.458  -6.776   0.886  1.00  0.00     0.242 C 
HETATM   15  O3  UNL     1      16.598  -7.386  -0.239  1.00  0.00    -0.271 OA
HETATM   16  N3  UNL     1      17.240  -5.642   1.156  1.00  0.00    -0.332 N 
ATOM     17  H3  UNL     1      18.246  -5.808   1.155  1.00  0.00     0.165 HD
HETATM   18  C22 UNL     1      16.859  -4.299   1.433  1.00  0.00     0.249 C 
HETATM   19  N4  UNL     1      16.317  -4.043   2.742  1.00  0.00    -0.332 N 
ATOM     20  H4  UNL     1      15.547  -4.650   3.024  1.00  0.00     0.165 HD
HETATM   21  C24 UNL     1      16.699  -3.076   3.684  1.00  0.00     0.242 C 
HETATM   22  O5  UNL     1      15.801  -2.221   4.073  1.00  0.00    -0.271 OA
HETATM   23  C25 UNL     1      18.024  -2.885   4.318  1.00  0.00     0.181 C 
HETATM   24  N6  UNL     1      18.744  -4.106   4.588  1.00  0.00    -0.355 N 
ATOM     25  H6  UNL     1      18.878  -4.691   3.763  1.00  0.00     0.162 HD
HETATM   26  C31 UNL     1      19.295  -4.652   5.754  1.00  0.00     0.164 C 
ENDROOT
BRANCH  23  27
HETATM   27  C26 UNL     1      18.902  -1.945   3.457  1.00  0.00     0.091 C 
BRANCH  27  28
HETATM   28  C27 UNL     1      18.793  -0.590   3.995  1.00  0.00     0.011 A 
HETATM   29  C28 UNL     1      18.457  -0.277   5.317  1.00  0.00     0.026 A 
HETATM   30  C29 UNL     1      18.445   1.092   5.480  1.00  0.00     0.019 A 
HETATM   31  C30 UNL     1      18.775   1.611   4.252  1.00  0.00     0.088 A 
HETATM   32  N5  UNL     1      18.975   0.595   3.397  1.00  0.00    -0.369 N 
ATOM     33  H5  UNL     1      19.232   0.711   2.417  1.00  0.00     0.165 HD
ENDBRANCH  27  28
ENDBRANCH  23  27
BRANCH  26  34
HETATM   34  O6  UNL     1      20.609  -4.601   5.743  1.00  0.00    -0.345 OA
ATOM     35  H6  UNL     1      20.988  -4.270   4.937  1.00  0.00     0.219 HD
ENDBRANCH  26  34
BRANCH  18  36
HETATM   36  C23 UNL     1      15.847  -3.742   0.467  1.00  0.00     0.277 C 
HETATM   37  O4  UNL     1      14.665  -3.836   0.663  1.00  0.00    -0.303 OA
ENDBRANCH  18  36
BRANCH   1  38
HETATM   38  C4  UNL     1      18.527  -4.395   8.165  1.00  0.00    -0.049 C 
BRANCH  38  39
HETATM   39  C3  UNL     1      17.256  -3.603   8.127  1.00  0.00     0.036 C 
BRANCH  39  40
HETATM   40  C2  UNL     1      17.507  -2.122   8.237  1.00  0.00    -0.000 C 
HETATM   41  C1  UNL     1      17.291  -1.582   9.613  1.00  0.00     0.005 C 
ENDBRANCH  39  40
ENDBRANCH  38  39
BRANCH  38  42
HETATM   42  C5  UNL     1      18.951  -4.915   9.480  1.00  0.00     0.032 C 
HETATM   43  C6  UNL     1      19.971  -4.197  10.266  1.00  0.00     0.010 C 
ENDBRANCH  38  42
ENDBRANCH   1  38
BRANCH   6  44
HETATM   44  C10 UNL     1      18.914  -8.300   4.847  1.00  0.00     0.108 C 
BRANCH  44  45
HETATM   45  S1  UNL     1      19.454  -9.442   5.994  1.00  0.00    -0.223 SA
HETATM   46  C11 UNL     1      19.443 -11.039   5.110  1.00  0.00     0.078 C 
HETATM   47  C12 UNL     1      18.443  -9.734   7.400  1.00  0.00     0.078 C 
ENDBRANCH  44  45
ENDBRANCH   6  44
BRANCH   7  48
HETATM   48  C14 UNL     1      15.367  -9.495   4.854  1.00  0.00    -0.005 C 
BRANCH  48  49
HETATM   49  C15 UNL     1      15.169 -10.318   6.067  1.00  0.00     0.001 C 
HETATM   50  C16 UNL     1      15.738 -11.714   5.699  1.00  0.00     0.013 C 
HETATM   51  C17 UNL     1      13.839 -10.541   6.643  1.00  0.00     0.013 C 
ENDBRANCH  48  49
ENDBRANCH   7  48
TORSDOF 12
ENDMDL
MODEL 4
REMARK VINA RESULT: -6.061656345      1.068      1.270
REMARK  12 active torsions:
REMARK  status: ('A' for Active; 'I' for Inactive)
REMARK    1  A    between atoms: C2_2  and  C3_3 
REMARK    2  A    between atoms: C3_3  and  C4_4 
REMARK    3  A    between atoms: C4_4  and  C5_5 
REMARK    4  A    between atoms: C4_4  and  C7_7 
REMARK    5  A    between atoms: C9_12  and  C10_13 
REMARK    6  A    between atoms: C10_13  and  S1_14 
REMARK    7  A    between atoms: C13_17  and  C14_18 
REMARK    8  A    between atoms: C14_18  and  C15_19 
REMARK    9  A    between atoms: C22_32  and  C23_33 
REMARK   10  A    between atoms: C25_39  and  C26_40 
REMARK   11  A    between atoms: C26_40  and  C27_41 
REMARK   12  A    between atoms: C31_49  and  O6_50 
ROOT
HETATM    1  C7  UNL     1      17.458  -4.839   7.534  1.00  0.00     0.088 C 
HETATM    2  N1  UNL     1      16.473  -5.882   7.304  1.00  0.00    -0.319 N 
ATOM      3  H1  UNL     1      15.820  -5.984   8.081  1.00  0.00     0.169 HD
HETATM    4  C8  UNL     1      16.220  -6.767   6.276  1.00  0.00     0.254 C 
HETATM    5  O1  UNL     1      15.202  -6.418   5.547  1.00  0.00    -0.268 OA
HETATM    6  C9  UNL     1      16.846  -8.017   5.819  1.00  0.00     0.034 C 
HETATM    7  C13 UNL     1      16.138  -9.233   5.529  1.00  0.00     0.041 C 
HETATM    8  C18 UNL     1      16.657  -9.866   4.252  1.00  0.00     0.252 C 
HETATM    9  O2  UNL     1      17.664 -10.665   4.255  1.00  0.00    -0.268 OA
HETATM   10  N2  UNL     1      16.112  -9.656   2.978  1.00  0.00    -0.344 N 
ATOM     11  H2  UNL     1      15.900 -10.493   2.433  1.00  0.00     0.163 HD
HETATM   12  C19 UNL     1      15.816  -8.383   2.344  1.00  0.00     0.172 C 
HETATM   13  C20 UNL     1      14.682  -8.545   1.348  1.00  0.00     0.042 C 
HETATM   14  C21 UNL     1      17.071  -7.950   1.676  1.00  0.00     0.242 C 
HETATM   15  O3  UNL     1      17.524  -8.816   0.838  1.00  0.00    -0.271 OA
HETATM   16  N3  UNL     1      17.767  -6.747   1.867  1.00  0.00    -0.332 N 
ATOM     17  H3  UNL     1      18.723  -6.857   2.206  1.00  0.00     0.165 HD
HETATM   18  C22 UNL     1      17.360  -5.398   1.666  1.00  0.00     0.249 C 
HETATM   19  N4  UNL     1      16.458  -4.849   2.645  1.00  0.00    -0.332 N 
ATOM     20  H4  UNL     1      15.622  -5.403   2.831  1.00  0.00     0.165 HD
HETATM   21  C24 UNL     1      16.568  -3.657   3.379  1.00  0.00     0.242 C 
HETATM   22  O5  UNL     1      15.620  -2.778   3.251  1.00  0.00    -0.271 OA
HETATM   23  C25 UNL     1      17.648  -3.247   4.306  1.00  0.00     0.181 C 
HETATM   24  N6  UNL     1      18.219  -4.323   5.080  1.00  0.00    -0.355 N 
ATOM     25  H6  UNL     1      18.577  -5.089   4.509  1.00  0.00     0.162 HD
HETATM   26  C31 UNL     1      18.379  -4.529   6.455  1.00  0.00     0.164 C 
ENDROOT
BRANCH  23  27
HETATM   27  C26 UNL     1      18.769  -2.511   3.534  1.00  0.00     0.091 C 
BRANCH  27  28
HETATM   28  C27 UNL     1      18.724  -1.095   3.892  1.00  0.00     0.011 A 
HETATM   29  C28 UNL     1      18.423  -0.599   5.166  1.00  0.00     0.026 A 
HETATM   30  C29 UNL     1      18.469   0.779   5.149  1.00  0.00     0.019 A 
HETATM   31  C30 UNL     1      18.799   1.121   3.861  1.00  0.00     0.088 A 
HETATM   32  N5  UNL     1      18.944  -0.006   3.143  1.00  0.00    -0.369 N 
ATOM     33  H5  UNL     1      19.189  -0.029   2.154  1.00  0.00     0.165 HD
ENDBRANCH  27  28
ENDBRANCH  23  27
BRANCH  26  34
HETATM   34  O6  UNL     1      19.638  -4.417   6.821  1.00  0.00    -0.345 OA
ATOM     35  H6  UNL     1      20.264  -4.793   6.214  1.00  0.00     0.219 HD
ENDBRANCH  26  34
BRANCH  18  36
HETATM   36  C23 UNL     1      16.700  -5.154   0.335  1.00  0.00     0.277 C 
HETATM   37  O4  UNL     1      15.505  -5.175   0.207  1.00  0.00    -0.303 OA
ENDBRANCH  18  36
BRANCH   1  38
HETATM   38  C4  UNL     1      16.932  -3.713   8.381  1.00  0.00    -0.049 C 
BRANCH  38  39
HETATM   39  C3  UNL     1      16.965  -4.019   9.846  1.00  0.00     0.036 C 
BRANCH  39  40
HETATM   40  C2  UNL     1      18.196  -4.794  10.237  1.00  0.00    -0.000 C 
HETATM   41  C1  UNL     1      19.367  -3.927  10.566  1.00  0.00     0.005 C 
ENDBRANCH  39  40
ENDBRANCH  38  39
BRANCH  38  42
HETATM   42  C5  UNL     1      17.224  -2.321   7.982  1.00  0.00     0.032 C 
HETATM   43  C6  UNL     1      17.306  -1.261   9.004  1.00  0.00     0.010 C 
ENDBRANCH  38  42
ENDBRANCH   1  38
BRANCH   6  44
HETATM   44  C10 UNL     1      18.184  -8.302   6.439  1.00  0.00     0.108 C 
BRANCH  44  45
HETATM   45  S1  UNL     1      19.625  -7.657   5.792  1.00  0.00    -0.223 SA
HETATM   46  C11 UNL     1      20.158  -8.864   4.531  1.00  0.00     0.078 C 
HETATM   47  C12 UNL     1      21.015  -7.521   6.856  1.00  0.00     0.078 C 
ENDBRANCH  44  45
ENDBRANCH   6  44
BRANCH   7  48
HETATM   48  C14 UNL     1      14.765  -9.633   5.698  1.00  0.00    -0.005 C 
BRANCH  48  49
HETATM   49  C15 UNL     1      14.326 -11.019   5.973  1.00  0.00     0.001 C 
HETATM   50  C16 UNL     1      13.053 -11.213   5.106  1.00  0.00     0.013 C 
HETATM   51  C17 UNL     1      13.989 -11.471   7.327  1.00  0.00     0.013 C 
ENDBRANCH  48  49
ENDBRANCH   7  48
TORSDOF 12
ENDMDL
MODEL 5
REMARK VINA RESULT: -5.956635413      0.868      1.097
REMARK  12 active torsions:
REMARK  status: ('A' for Active; 'I' for Inactive)
REMARK    1  A    between atoms: C2_2  and  C3_3 
REMARK    2  A    between atoms: C3_3  and  C4_4 
REMARK    3  A    between atoms: C4_4  and  C5_5 
REMARK    4  A    between atoms: C4_4  and  C7_7 
REMARK    5  A    between atoms: C9_12  and  C10_13 
REMARK    6  A    between atoms: C10_13  and  S1_14 
REMARK    7  A    between atoms: C13_17  and  C14_18 
REMARK    8  A    between atoms: C14_18  and  C15_19 
REMARK    9  A    between atoms: C22_32  and  C23_33 
REMARK   10  A    between atoms: C25_39  and  C26_40 
REMARK   11  A    between atoms: C26_40  and  C27_41 
REMARK   12  A    between atoms: C31_49  and  O6_50 
ROOT
HETATM    1  C7  UNL     1      18.203  -4.979   6.688  1.00  0.00     0.088 C 
HETATM    2  N1  UNL     1      17.465  -6.206   6.447  1.00  0.00    -0.319 N 
ATOM      3  H1  UNL     1      16.946  -6.521   7.267  1.00  0.00     0.169 HD
HETATM    4  C8  UNL     1      17.304  -7.043   5.362  1.00  0.00     0.254 C 
HETATM    5  O1  UNL     1      16.155  -6.893   4.772  1.00  0.00    -0.268 OA
HETATM    6  C9  UNL     1      18.142  -8.069   4.723  1.00  0.00     0.034 C 
HETATM    7  C13 UNL     1      17.704  -9.392   4.377  1.00  0.00     0.041 C 
HETATM    8  C18 UNL     1      18.203  -9.782   2.999  1.00  0.00     0.252 C 
HETATM    9  O2  UNL     1      19.360 -10.315   2.825  1.00  0.00    -0.268 OA
HETATM   10  N2  UNL     1      17.480  -9.611   1.810  1.00  0.00    -0.344 N 
ATOM     11  H2  UNL     1      17.403 -10.429   1.205  1.00  0.00     0.163 HD
HETATM   12  C19 UNL     1      16.828  -8.400   1.341  1.00  0.00     0.172 C 
HETATM   13  C20 UNL     1      15.654  -8.751   0.446  1.00  0.00     0.042 C 
HETATM   14  C21 UNL     1      17.864  -7.630   0.605  1.00  0.00     0.242 C 
HETATM   15  O3  UNL     1      18.403  -8.295  -0.356  1.00  0.00    -0.271 OA
HETATM   16  N3  UNL     1      18.283  -6.314   0.852  1.00  0.00    -0.332 N 
ATOM     17  H3  UNL     1      19.271  -6.218   1.086  1.00  0.00     0.165 HD
HETATM   18  C22 UNL     1      17.556  -5.090   0.829  1.00  0.00     0.249 C 
HETATM   19  N4  UNL     1      16.672  -4.850   1.940  1.00  0.00    -0.332 N 
ATOM     20  H4  UNL     1      16.013  -5.600   2.147  1.00  0.00     0.165 HD
HETATM   21  C24 UNL     1      16.591  -3.727   2.779  1.00  0.00     0.242 C 
HETATM   22  O5  UNL     1      15.457  -3.093   2.832  1.00  0.00    -0.271 OA
HETATM   23  C25 UNL     1      17.647  -3.143   3.637  1.00  0.00     0.181 C 
HETATM   24  N6  UNL     1      18.535  -4.108   4.239  1.00  0.00    -0.355 N 
ATOM     25  H6  UNL     1      18.991  -4.720   3.561  1.00  0.00     0.162 HD
HETATM   26  C31 UNL     1      18.898  -4.375   5.565  1.00  0.00     0.164 C 
ENDROOT
BRANCH  23  27
HETATM   27  C26 UNL     1      18.473  -2.103   2.842  1.00  0.00     0.091 C 
BRANCH  27  28
HETATM   28  C27 UNL     1      18.462  -0.842   3.581  1.00  0.00     0.011 A 
HETATM   29  C28 UNL     1      17.627  -0.558   4.668  1.00  0.00     0.026 A 
HETATM   30  C29 UNL     1      17.880   0.719   5.125  1.00  0.00     0.019 A 
HETATM   31  C30 UNL     1      18.873   1.210   4.312  1.00  0.00     0.088 A 
HETATM   32  N5  UNL     1      19.195   0.267   3.412  1.00  0.00    -0.369 N 
ATOM     33  H5  UNL     1      19.907   0.380   2.692  1.00  0.00     0.165 HD
ENDBRANCH  27  28
ENDBRANCH  23  27
BRANCH  26  34
HETATM   34  O6  UNL     1      20.130  -3.994   5.820  1.00  0.00    -0.345 OA
ATOM     35  H6  UNL     1      20.214  -3.100   6.131  1.00  0.00     0.219 HD
ENDBRANCH  26  34
BRANCH  18  36
HETATM   36  C23 UNL     1      16.708  -4.909  -0.401  1.00  0.00     0.277 C 
HETATM   37  O4  UNL     1      17.182  -4.925  -1.506  1.00  0.00    -0.303 OA
ENDBRANCH  18  36
BRANCH   1  38
HETATM   38  C4  UNL     1      17.535  -4.080   7.692  1.00  0.00    -0.049 C 
BRANCH  38  39
HETATM   39  C3  UNL     1      17.404  -4.709   9.044  1.00  0.00     0.036 C 
BRANCH  39  40
HETATM   40  C2  UNL     1      18.743  -4.990   9.673  1.00  0.00    -0.000 C 
HETATM   41  C1  UNL     1      19.021  -4.156  10.881  1.00  0.00     0.005 C 
ENDBRANCH  39  40
ENDBRANCH  38  39
BRANCH  38  42
HETATM   42  C5  UNL     1      17.817  -2.631   7.654  1.00  0.00     0.032 C 
HETATM   43  C6  UNL     1      17.408  -1.768   8.778  1.00  0.00     0.010 C 
ENDBRANCH  38  42
ENDBRANCH   1  38
BRANCH   6  44
HETATM   44  C10 UNL     1      19.573  -8.072   5.180  1.00  0.00     0.108 C 
BRANCH  44  45
HETATM   45  S1  UNL     1      20.028  -8.724   6.690  1.00  0.00    -0.223 SA
HETATM   46  C11 UNL     1      18.545  -9.602   7.291  1.00  0.00     0.078 C 
HETATM   47  C12 UNL     1      20.406  -7.603   7.988  1.00  0.00     0.078 C 
ENDBRANCH  44  45
ENDBRANCH   6  44
BRANCH   7  48
HETATM   48  C14 UNL     1      16.489 -10.121   4.633  1.00  0.00    -0.005 C 
BRANCH  48  49
HETATM   49  C15 UNL     1      16.349 -11.588   4.499  1.00  0.00     0.001 C 
HETATM   50  C16 UNL     1      15.149 -11.788   3.536  1.00  0.00     0.013 C 
HETATM   51  C17 UNL     1      16.110 -12.453   5.660  1.00  0.00     0.013 C 
ENDBRANCH  48  49
ENDBRANCH   7  48
TORSDOF 12
ENDMDL
