MODEL 1
REMARK VINA RESULT: -5.352821369      0.000      0.000
REMARK  15 active torsions:
REMARK  status: ('A' for Active; 'I' for Inactive)
REMARK    1  A    between atoms: C3_3  and  C4_4 
REMARK    2  A    between atoms: C5_5  and  C6_6 
REMARK    3  A    between atoms: C15_19  and  C16_20 
REMARK    4  A    between atoms: C16_20  and  C17_21 
REMARK    5  A    between atoms: C18_22  and  C19_23 
REMARK    6  A    between atoms: C19_23  and  C20_24 
REMARK    7  A    between atoms: C20_24  and  C21_25 
REMARK    8  A    between atoms: C21_25  and  C22_26 
REMARK    9  A    between atoms: C25_30  and  O2_31 
REMARK   10  A    between atoms: C26_33  and  C27_34 
REMARK   11  A    between atoms: C27_34  and  C28_35 
REMARK   12  A    between atoms: C28_35  and  C29_36 
REMARK   13  A    between atoms: C29_36  and  N4_37 
REMARK   14  A    between atoms: C31_44  and  O3_45 
REMARK   15  A    between atoms: C32_47  and  C33_48 
ROOT
HETATM    1  C1  UNL     1      19.013   3.393   9.554  1.00  0.00     0.113 C 
HETATM    2  C2  UNL     1      18.762   2.214   8.740  1.00  0.00    -0.097 C 
HETATM    3  C3  UNL     1      18.543   1.236   8.085  1.00  0.00    -0.015 C 
ENDROOT
BRANCH   3   4
HETATM    4  C4  UNL     1      18.265   0.081   7.335  1.00  0.00    -0.008 C 
HETATM    5  C5  UNL     1      18.002  -0.921   6.667  1.00  0.00    -0.035 C 
BRANCH   5   6
HETATM    6  C6  UNL     1      17.665  -2.147   5.885  1.00  0.00     0.085 C 
HETATM    7  C7  UNL     1      17.645  -1.942   4.597  1.00  0.00     0.031 C 
HETATM    8  C8  UNL     1      17.360  -2.867   3.479  1.00  0.00     0.149 C 
HETATM    9  N1  UNL     1      16.249  -3.709   3.694  1.00  0.00    -0.397 N 
HETATM   10  C9  UNL     1      15.734  -4.601   2.993  1.00  0.00     0.081 C 
ATOM     11  H1  UNL     1      15.780  -3.561   4.587  1.00  0.00     0.159 HD
HETATM   12  C10 UNL     1      16.009  -5.174   1.694  1.00  0.00     0.125 C 
HETATM   13  C11 UNL     1      16.719  -4.409   0.659  1.00  0.00     0.032 C 
HETATM   14  N2  UNL     1      16.811  -6.384   1.861  1.00  0.00    -0.341 N 
HETATM   15  C12 UNL     1      18.150  -4.927   0.555  1.00  0.00     0.022 C 
HETATM   16  C13 UNL     1      18.178  -6.008   1.584  1.00  0.00     0.127 C 
HETATM   17  C14 UNL     1      16.216  -7.650   2.220  1.00  0.00     0.243 C 
HETATM   18  O1  UNL     1      17.000  -8.634   2.185  1.00  0.00    -0.271 OA
HETATM   19  C15 UNL     1      14.840  -7.829   2.594  1.00  0.00     0.181 C 
HETATM   20  N3  UNL     1      14.474  -8.124   3.940  1.00  0.00    -0.354 N 
HETATM   21  C24 UNL     1      12.979  -8.282   4.078  1.00  0.00     0.152 C 
HETATM   22  C25 UNL     1      15.187  -8.304   5.109  1.00  0.00     0.137 C 
HETATM   23  C26 UNL     1      16.456  -7.667   5.607  1.00  0.00     0.158 C 
HETATM   24  N7  UNL     1      16.184  -6.477   6.374  1.00  0.00    -0.357 N 
HETATM   25  C31 UNL     1      16.977  -5.589   7.094  1.00  0.00     0.159 C 
ATOM     26  H7  UNL     1      15.194  -6.233   6.394  1.00  0.00     0.162 HD
HETATM   27  C32 UNL     1      17.996  -4.606   6.721  1.00  0.00     0.060 C 
HETATM   28  N8  UNL     1      17.425  -3.295   6.636  1.00  0.00    -0.349 N 
ATOM     29  H8  UNL     1      16.650  -3.171   7.288  1.00  0.00     0.166 HD
BRANCH  19  30
HETATM   30  C16 UNL     1      14.323  -9.020   1.730  1.00  0.00     0.062 C 
BRANCH  30  31
HETATM   31  C17 UNL     1      13.607  -8.452   0.540  1.00  0.00    -0.028 C 
HETATM   32  C18 UNL     1      13.063  -7.258   0.569  1.00  0.00    -0.031 C 
BRANCH  32  33
HETATM   33  C19 UNL     1      12.366  -6.747  -0.642  1.00  0.00     0.027 C 
BRANCH  33  34
HETATM   34  C20 UNL     1      13.325  -6.832  -1.784  1.00  0.00     0.004 C 
BRANCH  34  35
HETATM   35  C21 UNL     1      14.255  -5.631  -1.863  1.00  0.00    -0.000 C 
BRANCH  35  36
HETATM   36  C22 UNL     1      15.573  -5.968  -2.497  1.00  0.00    -0.005 C 
HETATM   37  C23 UNL     1      16.146  -7.154  -1.761  1.00  0.00     0.005 C 
ENDBRANCH  35  36
ENDBRANCH  34  35
ENDBRANCH  33  34
ENDBRANCH  32  33
ENDBRANCH  30  31
ENDBRANCH  19  30
BRANCH  22  38
HETATM   38  O2  UNL     1      14.681  -9.176   5.941  1.00  0.00    -0.348 OA
ATOM     39  H2  UNL     1      14.831  -8.992   6.861  1.00  0.00     0.219 HD
ENDBRANCH  22  38
BRANCH  23  40
HETATM   40  C27 UNL     1      17.193  -8.746   6.387  1.00  0.00     0.035 C 
BRANCH  40  41
HETATM   41  C28 UNL     1      17.986  -9.619   5.458  1.00  0.00     0.022 C 
BRANCH  41  42
HETATM   42  C29 UNL     1      19.436  -9.187   5.374  1.00  0.00     0.122 C 
BRANCH  42  43
HETATM   43  N4  UNL     1      19.668  -8.700   4.028  1.00  0.00    -0.367 N 
HETATM   44  C30 UNL     1      20.259  -9.422   3.137  1.00  0.00     0.196 C 
HETATM   45  N5  UNL     1      20.449  -8.876   1.846  1.00  0.00    -0.067 NA
HETATM   46  N6  UNL     1      20.709 -10.721   3.425  1.00  0.00    -0.067 NA
ATOM     47  H4  UNL     1      19.356  -7.762   3.779  1.00  0.00     0.161 HD
ENDBRANCH  42  43
ENDBRANCH  41  42
ENDBRANCH  40  41
ENDBRANCH  23  40
BRANCH  25  48
HETATM   48  O3  UNL     1      16.771  -5.625   8.382  1.00  0.00    -0.345 OA
ATOM     49  H3  UNL     1      17.495  -5.992   8.876  1.00  0.00     0.219 HD
ENDBRANCH  25  48
BRANCH  27  50
HETATM   50  C33 UNL     1      19.059  -4.982   5.774  1.00  0.00     0.057 C 
HETATM   51  C34 UNL     1      20.152  -5.823   6.393  1.00  0.00     0.011 C 
ENDBRANCH  27  50
ENDBRANCH   5   6
ENDBRANCH   3   4
TORSDOF 15
ENDMDL
MODEL 2
REMARK VINA RESULT: -5.179601909      0.891      1.753
REMARK  15 active torsions:
REMARK  status: ('A' for Active; 'I' for Inactive)
REMARK    1  A    between atoms: C3_3  and  C4_4 
REMARK    2  A    between atoms: C5_5  and  C6_6 
REMARK    3  A    between atoms: C15_19  and  C16_20 
REMARK    4  A    between atoms: C16_20  and  C17_21 
REMARK    5  A    between atoms: C18_22  and  C19_23 
REMARK    6  A    between atoms: C19_23  and  C20_24 
REMARK    7  A    between atoms: C20_24  and  C21_25 
REMARK    8  A    between atoms: C21_25  and  C22_26 
REMARK    9  A    between atoms: C25_30  and  O2_31 
REMARK   10  A    between atoms: C26_33  and  C27_34 
REMARK   11  A    between atoms: C27_34  and  C28_35 
REMARK   12  A    between atoms: C28_35  and  C29_36 
REMARK   13  A    between atoms: C29_36  and  N4_37 
REMARK   14  A    between atoms: C31_44  and  O3_45 
REMARK   15  A    between atoms: C32_47  and  C33_48 
ROOT
HETATM    1  C1  UNL     1      19.060   3.356   9.528  1.00  0.00     0.113 C 
HETATM    2  C2  UNL     1      18.726   2.191   8.724  1.00  0.00    -0.097 C 
HETATM    3  C3  UNL     1      18.471   1.224   8.065  1.00  0.00    -0.015 C 
ENDROOT
BRANCH   3   4
HETATM    4  C4  UNL     1      18.196   0.077   7.301  1.00  0.00    -0.008 C 
HETATM    5  C5  UNL     1      17.931  -0.924   6.633  1.00  0.00    -0.035 C 
BRANCH   5   6
HETATM    6  C6  UNL     1      17.611  -2.156   5.853  1.00  0.00     0.085 C 
HETATM    7  C7  UNL     1      17.575  -1.950   4.566  1.00  0.00     0.031 C 
HETATM    8  C8  UNL     1      17.298  -2.880   3.450  1.00  0.00     0.149 C 
HETATM    9  N1  UNL     1      16.205  -3.745   3.674  1.00  0.00    -0.397 N 
HETATM   10  C9  UNL     1      15.702  -4.646   2.977  1.00  0.00     0.081 C 
ATOM     11  H1  UNL     1      15.742  -3.606   4.572  1.00  0.00     0.159 HD
HETATM   12  C10 UNL     1      15.976  -5.212   1.675  1.00  0.00     0.125 C 
HETATM   13  C11 UNL     1      16.661  -4.433   0.635  1.00  0.00     0.032 C 
HETATM   14  N2  UNL     1      16.804  -6.407   1.834  1.00  0.00    -0.341 N 
HETATM   15  C12 UNL     1      18.101  -4.923   0.517  1.00  0.00     0.022 C 
HETATM   16  C13 UNL     1      18.160  -6.003   1.545  1.00  0.00     0.127 C 
HETATM   17  C14 UNL     1      16.237  -7.684   2.198  1.00  0.00     0.243 C 
HETATM   18  O1  UNL     1      17.040  -8.653   2.155  1.00  0.00    -0.271 OA
HETATM   19  C15 UNL     1      14.869  -7.890   2.584  1.00  0.00     0.181 C 
HETATM   20  N3  UNL     1      14.521  -8.194   3.933  1.00  0.00    -0.354 N 
HETATM   21  C24 UNL     1      13.031  -8.382   4.085  1.00  0.00     0.152 C 
HETATM   22  C25 UNL     1      15.249  -8.360   5.096  1.00  0.00     0.137 C 
HETATM   23  C26 UNL     1      16.509  -7.699   5.583  1.00  0.00     0.158 C 
HETATM   24  N7  UNL     1      16.221  -6.515   6.353  1.00  0.00    -0.357 N 
HETATM   25  C31 UNL     1      17.003  -5.611   7.066  1.00  0.00     0.159 C 
ATOM     26  H7  UNL     1      15.226  -6.291   6.382  1.00  0.00     0.162 HD
HETATM   27  C32 UNL     1      17.998  -4.609   6.685  1.00  0.00     0.060 C 
HETATM   28  N8  UNL     1      17.401  -3.309   6.606  1.00  0.00    -0.349 N 
ATOM     29  H8  UNL     1      16.630  -3.201   7.265  1.00  0.00     0.166 HD
BRANCH  19  30
HETATM   30  C16 UNL     1      14.367  -9.091   1.725  1.00  0.00     0.062 C 
BRANCH  30  31
HETATM   31  C17 UNL     1      13.703  -8.537   0.498  1.00  0.00    -0.028 C 
HETATM   32  C18 UNL     1      13.075  -7.385   0.517  1.00  0.00    -0.031 C 
BRANCH  32  33
HETATM   33  C19 UNL     1      12.436  -6.886  -0.731  1.00  0.00     0.027 C 
BRANCH  33  34
HETATM   34  C20 UNL     1      10.977  -6.723  -0.456  1.00  0.00     0.004 C 
BRANCH  34  35
HETATM   35  C21 UNL     1      10.228  -8.046  -0.449  1.00  0.00    -0.000 C 
BRANCH  35  36
HETATM   36  C22 UNL     1       9.418  -8.239   0.801  1.00  0.00    -0.005 C 
HETATM   37  C23 UNL     1      10.090  -9.315   1.620  1.00  0.00     0.005 C 
ENDBRANCH  35  36
ENDBRANCH  34  35
ENDBRANCH  33  34
ENDBRANCH  32  33
ENDBRANCH  30  31
ENDBRANCH  19  30
BRANCH  22  38
HETATM   38  O2  UNL     1      14.768  -9.243   5.931  1.00  0.00    -0.348 OA
ATOM     39  H2  UNL     1      13.829  -9.381   5.877  1.00  0.00     0.219 HD
ENDBRANCH  22  38
BRANCH  23  40
HETATM   40  C27 UNL     1      17.275  -8.763   6.355  1.00  0.00     0.035 C 
BRANCH  40  41
HETATM   41  C28 UNL     1      18.052  -9.639   5.415  1.00  0.00     0.022 C 
BRANCH  41  42
HETATM   42  C29 UNL     1      19.502  -9.214   5.314  1.00  0.00     0.122 C 
BRANCH  42  43
HETATM   43  N4  UNL     1      19.721  -8.729   3.964  1.00  0.00    -0.367 N 
HETATM   44  C30 UNL     1      20.319  -9.444   3.073  1.00  0.00     0.196 C 
HETATM   45  N5  UNL     1      20.495  -8.899   1.780  1.00  0.00    -0.067 NA
HETATM   46  N6  UNL     1      20.791 -10.735   3.363  1.00  0.00    -0.067 NA
ATOM     47  H4  UNL     1      19.393  -7.797   3.714  1.00  0.00     0.161 HD
ENDBRANCH  42  43
ENDBRANCH  41  42
ENDBRANCH  40  41
ENDBRANCH  23  40
BRANCH  25  48
HETATM   48  O3  UNL     1      16.809  -5.653   8.357  1.00  0.00    -0.345 OA
ATOM     49  H3  UNL     1      17.416  -6.221   8.816  1.00  0.00     0.219 HD
ENDBRANCH  25  48
BRANCH  27  50
HETATM   50  C33 UNL     1      19.060  -4.963   5.727  1.00  0.00     0.057 C 
HETATM   51  C34 UNL     1      20.134  -5.849   6.315  1.00  0.00     0.011 C 
ENDBRANCH  27  50
ENDBRANCH   5   6
ENDBRANCH   3   4
TORSDOF 15
ENDMDL
MODEL 3
REMARK VINA RESULT: -5.178413282      1.120      1.467
REMARK  15 active torsions:
REMARK  status: ('A' for Active; 'I' for Inactive)
REMARK    1  A    between atoms: C3_3  and  C4_4 
REMARK    2  A    between atoms: C5_5  and  C6_6 
REMARK    3  A    between atoms: C15_19  and  C16_20 
REMARK    4  A    between atoms: C16_20  and  C17_21 
REMARK    5  A    between atoms: C18_22  and  C19_23 
REMARK    6  A    between atoms: C19_23  and  C20_24 
REMARK    7  A    between atoms: C20_24  and  C21_25 
REMARK    8  A    between atoms: C21_25  and  C22_26 
REMARK    9  A    between atoms: C25_30  and  O2_31 
REMARK   10  A    between atoms: C26_33  and  C27_34 
REMARK   11  A    between atoms: C27_34  and  C28_35 
REMARK   12  A    between atoms: C28_35  and  C29_36 
REMARK   13  A    between atoms: C29_36  and  N4_37 
REMARK   14  A    between atoms: C31_44  and  O3_45 
REMARK   15  A    between atoms: C32_47  and  C33_48 
ROOT
HETATM    1  C1  UNL     1      18.989   3.537   9.485  1.00  0.00     0.113 C 
HETATM    2  C2  UNL     1      18.754   2.335   8.701  1.00  0.00    -0.097 C 
HETATM    3  C3  UNL     1      18.539   1.346   8.062  1.00  0.00    -0.015 C 
ENDROOT
BRANCH   3   4
HETATM    4  C4  UNL     1      18.259   0.188   7.316  1.00  0.00    -0.008 C 
HETATM    5  C5  UNL     1      17.991  -0.820   6.660  1.00  0.00    -0.035 C 
BRANCH   5   6
HETATM    6  C6  UNL     1      17.661  -2.059   5.896  1.00  0.00     0.085 C 
HETATM    7  C7  UNL     1      17.649  -1.874   4.605  1.00  0.00     0.031 C 
HETATM    8  C8  UNL     1      17.372  -2.818   3.500  1.00  0.00     0.149 C 
HETATM    9  N1  UNL     1      16.261  -3.658   3.721  1.00  0.00    -0.397 N 
HETATM   10  C9  UNL     1      15.751  -4.561   3.031  1.00  0.00     0.081 C 
ATOM     11  H1  UNL     1      15.786  -3.496   4.609  1.00  0.00     0.159 HD
HETATM   12  C10 UNL     1      16.036  -5.155   1.743  1.00  0.00     0.125 C 
HETATM   13  C11 UNL     1      16.751  -4.406   0.701  1.00  0.00     0.032 C 
HETATM   14  N2  UNL     1      16.839  -6.361   1.935  1.00  0.00    -0.341 N 
HETATM   15  C12 UNL     1      18.184  -4.924   0.615  1.00  0.00     0.022 C 
HETATM   16  C13 UNL     1      18.207  -5.987   1.661  1.00  0.00     0.127 C 
HETATM   17  C14 UNL     1      16.242  -7.622   2.310  1.00  0.00     0.243 C 
HETATM   18  O1  UNL     1      17.028  -8.605   2.297  1.00  0.00    -0.271 OA
HETATM   19  C15 UNL     1      14.865  -7.796   2.678  1.00  0.00     0.181 C 
HETATM   20  N3  UNL     1      14.490  -8.070   4.026  1.00  0.00    -0.354 N 
HETATM   21  C24 UNL     1      12.995  -8.229   4.157  1.00  0.00     0.152 C 
HETATM   22  C25 UNL     1      15.196  -8.231   5.203  1.00  0.00     0.137 C 
HETATM   23  C26 UNL     1      16.460  -7.585   5.699  1.00  0.00     0.158 C 
HETATM   24  N7  UNL     1      16.182  -6.383   6.445  1.00  0.00    -0.357 N 
HETATM   25  C31 UNL     1      16.969  -5.482   7.156  1.00  0.00     0.159 C 
ATOM     26  H7  UNL     1      15.191  -6.140   6.454  1.00  0.00     0.162 HD
HETATM   27  C32 UNL     1      17.989  -4.504   6.774  1.00  0.00     0.060 C 
HETATM   28  N8  UNL     1      17.417  -3.195   6.664  1.00  0.00    -0.349 N 
ATOM     29  H8  UNL     1      16.638  -3.062   7.308  1.00  0.00     0.166 HD
BRANCH  19  30
HETATM   30  C16 UNL     1      14.355  -9.002   1.830  1.00  0.00     0.062 C 
BRANCH  30  31
HETATM   31  C17 UNL     1      13.821  -8.464   0.534  1.00  0.00    -0.028 C 
HETATM   32  C18 UNL     1      13.163  -7.331   0.479  1.00  0.00    -0.031 C 
BRANCH  32  33
HETATM   33  C19 UNL     1      12.658  -6.847  -0.835  1.00  0.00     0.027 C 
BRANCH  33  34
HETATM   34  C20 UNL     1      13.621  -5.821  -1.337  1.00  0.00     0.004 C 
BRANCH  34  35
HETATM   35  C21 UNL     1      14.410  -6.297  -2.547  1.00  0.00    -0.000 C 
BRANCH  35  36
HETATM   36  C22 UNL     1      15.887  -6.073  -2.391  1.00  0.00    -0.005 C 
HETATM   37  C23 UNL     1      16.468  -7.299  -1.728  1.00  0.00     0.005 C 
ENDBRANCH  35  36
ENDBRANCH  34  35
ENDBRANCH  33  34
ENDBRANCH  32  33
ENDBRANCH  30  31
ENDBRANCH  19  30
BRANCH  22  38
HETATM   38  O2  UNL     1      14.685  -9.090   6.045  1.00  0.00    -0.348 OA
ATOM     39  H2  UNL     1      15.195  -9.236   6.833  1.00  0.00     0.219 HD
ENDBRANCH  22  38
BRANCH  23  40
HETATM   40  C27 UNL     1      17.194  -8.650   6.501  1.00  0.00     0.035 C 
BRANCH  40  41
HETATM   41  C28 UNL     1      18.321  -9.231   5.698  1.00  0.00     0.022 C 
BRANCH  41  42
HETATM   42  C29 UNL     1      18.226 -10.739   5.596  1.00  0.00     0.122 C 
BRANCH  42  43
HETATM   43  N4  UNL     1      17.654 -11.053   4.300  1.00  0.00    -0.367 N 
HETATM   44  C30 UNL     1      16.485 -11.584   4.184  1.00  0.00     0.196 C 
HETATM   45  N5  UNL     1      15.997 -11.861   2.885  1.00  0.00    -0.067 NA
HETATM   46  N6  UNL     1      15.700 -11.887   5.309  1.00  0.00    -0.067 NA
ATOM     47  H4  UNL     1      18.192 -10.848   3.458  1.00  0.00     0.161 HD
ENDBRANCH  42  43
ENDBRANCH  41  42
ENDBRANCH  40  41
ENDBRANCH  23  40
BRANCH  25  48
HETATM   48  O3  UNL     1      16.755  -5.498   8.443  1.00  0.00    -0.345 OA
ATOM     49  H3  UNL     1      17.479  -5.159   8.956  1.00  0.00     0.219 HD
ENDBRANCH  25  48
BRANCH  27  50
HETATM   50  C33 UNL     1      19.059  -4.893   5.839  1.00  0.00     0.057 C 
HETATM   51  C34 UNL     1      19.999  -5.939   6.397  1.00  0.00     0.011 C 
ENDBRANCH  27  50
ENDBRANCH   5   6
ENDBRANCH   3   4
TORSDOF 15
ENDMDL
MODEL 4
REMARK VINA RESULT: -5.076219677      1.512      1.842
REMARK  15 active torsions:
REMARK  status: ('A' for Active; 'I' for Inactive)
REMARK    1  A    between atoms: C3_3  and  C4_4 
REMARK    2  A    between atoms: C5_5  and  C6_6 
REMARK    3  A    between atoms: C15_19  and  C16_20 
REMARK    4  A    between atoms: C16_20  and  C17_21 
REMARK    5  A    between atoms: C18_22  and  C19_23 
REMARK    6  A    between atoms: C19_23  and  C20_24 
REMARK    7  A    between atoms: C20_24  and  C21_25 
REMARK    8  A    between atoms: C21_25  and  C22_26 
REMARK    9  A    between atoms: C25_30  and  O2_31 
REMARK   10  A    between atoms: C26_33  and  C27_34 
REMARK   11  A    between atoms: C27_34  and  C28_35 
REMARK   12  A    between atoms: C28_35  and  C29_36 
REMARK   13  A    between atoms: C29_36  and  N4_37 
REMARK   14  A    between atoms: C31_44  and  O3_45 
REMARK   15  A    between atoms: C32_47  and  C33_48 
ROOT
HETATM    1  C1  UNL     1      19.012   3.456   9.493  1.00  0.00     0.113 C 
HETATM    2  C2  UNL     1      18.761   2.234   8.745  1.00  0.00    -0.097 C 
HETATM    3  C3  UNL     1      18.537   1.238   8.120  1.00  0.00    -0.015 C 
ENDROOT
BRANCH   3   4
HETATM    4  C4  UNL     1      18.257   0.084   7.369  1.00  0.00    -0.008 C 
HETATM    5  C5  UNL     1      17.992  -0.917   6.701  1.00  0.00    -0.035 C 
BRANCH   5   6
HETATM    6  C6  UNL     1      17.654  -2.143   5.919  1.00  0.00     0.085 C 
HETATM    7  C7  UNL     1      17.664  -1.945   4.630  1.00  0.00     0.031 C 
HETATM    8  C8  UNL     1      17.389  -2.873   3.512  1.00  0.00     0.149 C 
HETATM    9  N1  UNL     1      16.260  -3.697   3.708  1.00  0.00    -0.397 N 
HETATM   10  C9  UNL     1      15.747  -4.585   3.001  1.00  0.00     0.081 C 
ATOM     11  H1  UNL     1      15.776  -3.536   4.590  1.00  0.00     0.159 HD
HETATM   12  C10 UNL     1      16.041  -5.170   1.712  1.00  0.00     0.125 C 
HETATM   13  C11 UNL     1      16.784  -4.423   0.688  1.00  0.00     0.032 C 
HETATM   14  N2  UNL     1      16.821  -6.392   1.903  1.00  0.00    -0.341 N 
HETATM   15  C12 UNL     1      18.209  -4.963   0.618  1.00  0.00     0.022 C 
HETATM   16  C13 UNL     1      18.200  -6.037   1.654  1.00  0.00     0.127 C 
HETATM   17  C14 UNL     1      16.199  -7.646   2.257  1.00  0.00     0.243 C 
HETATM   18  O1  UNL     1      16.969  -8.642   2.245  1.00  0.00    -0.271 OA
HETATM   19  C15 UNL     1      14.813  -7.802   2.603  1.00  0.00     0.181 C 
HETATM   20  N3  UNL     1      14.415  -8.083   3.942  1.00  0.00    -0.354 N 
HETATM   21  C24 UNL     1      12.915  -8.218   4.049  1.00  0.00     0.152 C 
HETATM   22  C25 UNL     1      15.100  -8.266   5.128  1.00  0.00     0.137 C 
HETATM   23  C26 UNL     1      16.367  -7.646   5.649  1.00  0.00     0.158 C 
HETATM   24  N7  UNL     1      16.098  -6.447   6.403  1.00  0.00    -0.357 N 
HETATM   25  C31 UNL     1      16.888  -5.566   7.134  1.00  0.00     0.159 C 
ATOM     26  H7  UNL     1      15.111  -6.188   6.400  1.00  0.00     0.162 HD
HETATM   27  C32 UNL     1      17.930  -4.602   6.777  1.00  0.00     0.060 C 
HETATM   28  N8  UNL     1      17.380  -3.282   6.672  1.00  0.00    -0.349 N 
ATOM     29  H8  UNL     1      16.594  -3.143   7.306  1.00  0.00     0.166 HD
BRANCH  19  30
HETATM   30  C16 UNL     1      14.297  -8.991   1.735  1.00  0.00     0.062 C 
BRANCH  30  31
HETATM   31  C17 UNL     1      13.828  -8.436   0.422  1.00  0.00    -0.028 C 
HETATM   32  C18 UNL     1      13.128  -7.328   0.354  1.00  0.00    -0.031 C 
BRANCH  32  33
HETATM   33  C19 UNL     1      12.691  -6.826  -0.977  1.00  0.00     0.027 C 
BRANCH  33  34
HETATM   34  C20 UNL     1      13.696  -5.818  -1.430  1.00  0.00     0.004 C 
BRANCH  34  35
HETATM   35  C21 UNL     1      14.478  -6.274  -2.652  1.00  0.00    -0.000 C 
BRANCH  35  36
HETATM   36  C22 UNL     1      15.958  -6.072  -2.492  1.00  0.00    -0.005 C 
HETATM   37  C23 UNL     1      16.510  -7.281  -1.778  1.00  0.00     0.005 C 
ENDBRANCH  35  36
ENDBRANCH  34  35
ENDBRANCH  33  34
ENDBRANCH  32  33
ENDBRANCH  30  31
ENDBRANCH  19  30
BRANCH  22  38
HETATM   38  O2  UNL     1      14.563  -9.126   5.953  1.00  0.00    -0.348 OA
ATOM     39  H2  UNL     1      14.896  -9.094   6.843  1.00  0.00     0.219 HD
ENDBRANCH  22  38
BRANCH  23  40
HETATM   40  C27 UNL     1      17.072  -8.731   6.450  1.00  0.00     0.035 C 
BRANCH  40  41
HETATM   41  C28 UNL     1      18.219  -9.302   5.670  1.00  0.00     0.022 C 
BRANCH  41  42
HETATM   42  C29 UNL     1      19.327  -9.802   6.574  1.00  0.00     0.122 C 
BRANCH  42  43
HETATM   43  N4  UNL     1      18.782 -10.880   7.377  1.00  0.00    -0.367 N 
HETATM   44  C30 UNL     1      19.379 -11.306   8.438  1.00  0.00     0.196 C 
HETATM   45  N5  UNL     1      18.784 -12.361   9.167  1.00  0.00    -0.067 NA
HETATM   46  N6  UNL     1      20.591 -10.745   8.873  1.00  0.00    -0.067 NA
ATOM     47  H4  UNL     1      17.903 -11.313   7.094  1.00  0.00     0.161 HD
ENDBRANCH  42  43
ENDBRANCH  41  42
ENDBRANCH  40  41
ENDBRANCH  23  40
BRANCH  25  48
HETATM   48  O3  UNL     1      16.654  -5.591   8.418  1.00  0.00    -0.345 OA
ATOM     49  H3  UNL     1      16.973  -6.375   8.850  1.00  0.00     0.219 HD
ENDBRANCH  25  48
BRANCH  27  50
HETATM   50  C33 UNL     1      19.007  -4.999   5.855  1.00  0.00     0.057 C 
HETATM   51  C34 UNL     1      19.945  -6.036   6.431  1.00  0.00     0.011 C 
ENDBRANCH  27  50
ENDBRANCH   5   6
ENDBRANCH   3   4
TORSDOF 15
ENDMDL
MODEL 5
REMARK VINA RESULT: -4.982441282      1.774      2.541
REMARK  15 active torsions:
REMARK  status: ('A' for Active; 'I' for Inactive)
REMARK    1  A    between atoms: C3_3  and  C4_4 
REMARK    2  A    between atoms: C5_5  and  C6_6 
REMARK    3  A    between atoms: C15_19  and  C16_20 
REMARK    4  A    between atoms: C16_20  and  C17_21 
REMARK    5  A    between atoms: C18_22  and  C19_23 
REMARK    6  A    between atoms: C19_23  and  C20_24 
REMARK    7  A    between atoms: C20_24  and  C21_25 
REMARK    8  A    between atoms: C21_25  and  C22_26 
REMARK    9  A    between atoms: C25_30  and  O2_31 
REMARK   10  A    between atoms: C26_33  and  C27_34 
REMARK   11  A    between atoms: C27_34  and  C28_35 
REMARK   12  A    between atoms: C28_35  and  C29_36 
REMARK   13  A    between atoms: C29_36  and  N4_37 
REMARK   14  A    between atoms: C31_44  and  O3_45 
REMARK   15  A    between atoms: C32_47  and  C33_48 
ROOT
HETATM    1  C1  UNL     1      18.999   3.368   9.364  1.00  0.00     0.113 C 
HETATM    2  C2  UNL     1      18.743   2.125   8.653  1.00  0.00    -0.097 C 
HETATM    3  C3  UNL     1      18.514   1.111   8.059  1.00  0.00    -0.015 C 
ENDROOT
BRANCH   3   4
HETATM    4  C4  UNL     1      18.226  -0.065   7.347  1.00  0.00    -0.008 C 
HETATM    5  C5  UNL     1      17.973  -1.084   6.701  1.00  0.00    -0.035 C 
BRANCH   5   6
HETATM    6  C6  UNL     1      17.632  -2.314   5.927  1.00  0.00     0.085 C 
HETATM    7  C7  UNL     1      17.638  -2.123   4.637  1.00  0.00     0.031 C 
HETATM    8  C8  UNL     1      17.360  -3.056   3.524  1.00  0.00     0.149 C 
HETATM    9  N1  UNL     1      16.232  -3.880   3.728  1.00  0.00    -0.397 N 
HETATM   10  C9  UNL     1      15.716  -4.771   3.028  1.00  0.00     0.081 C 
ATOM     11  H1  UNL     1      15.750  -3.714   4.611  1.00  0.00     0.159 HD
HETATM   12  C10 UNL     1      16.007  -5.363   1.740  1.00  0.00     0.125 C 
HETATM   13  C11 UNL     1      16.746  -4.621   0.710  1.00  0.00     0.032 C 
HETATM   14  N2  UNL     1      16.787  -6.583   1.935  1.00  0.00    -0.341 N 
HETATM   15  C12 UNL     1      18.172  -5.162   0.639  1.00  0.00     0.022 C 
HETATM   16  C13 UNL     1      18.165  -6.230   1.680  1.00  0.00     0.127 C 
HETATM   17  C14 UNL     1      16.166  -7.836   2.298  1.00  0.00     0.243 C 
HETATM   18  O1  UNL     1      16.936  -8.832   2.289  1.00  0.00    -0.271 OA
HETATM   19  C15 UNL     1      14.782  -7.990   2.648  1.00  0.00     0.181 C 
HETATM   20  N3  UNL     1      14.387  -8.264   3.990  1.00  0.00    -0.354 N 
HETATM   21  C24 UNL     1      12.887  -8.399   4.103  1.00  0.00     0.152 C 
HETATM   22  C25 UNL     1      15.076  -8.441   5.175  1.00  0.00     0.137 C 
HETATM   23  C26 UNL     1      16.344  -7.818   5.689  1.00  0.00     0.158 C 
HETATM   24  N7  UNL     1      16.077  -6.616   6.437  1.00  0.00    -0.357 N 
HETATM   25  C31 UNL     1      16.870  -5.731   7.162  1.00  0.00     0.159 C 
ATOM     26  H7  UNL     1      15.090  -6.356   6.436  1.00  0.00     0.162 HD
HETATM   27  C32 UNL     1      17.910  -4.768   6.797  1.00  0.00     0.060 C 
HETATM   28  N8  UNL     1      17.361  -3.449   6.686  1.00  0.00    -0.349 N 
ATOM     29  H8  UNL     1      16.576  -3.306   7.322  1.00  0.00     0.166 HD
BRANCH  19  30
HETATM   30  C16 UNL     1      14.262  -9.183   1.789  1.00  0.00     0.062 C 
BRANCH  30  31
HETATM   31  C17 UNL     1      13.649  -8.621   0.539  1.00  0.00    -0.028 C 
HETATM   32  C18 UNL     1      13.116  -7.423   0.513  1.00  0.00    -0.031 C 
BRANCH  32  33
HETATM   33  C19 UNL     1      12.523  -6.918  -0.755  1.00  0.00     0.027 C 
BRANCH  33  34
HETATM   34  C20 UNL     1      11.141  -6.443  -0.450  1.00  0.00     0.004 C 
BRANCH  34  35
HETATM   35  C21 UNL     1      10.082  -7.500  -0.722  1.00  0.00    -0.000 C 
BRANCH  35  36
HETATM   36  C22 UNL     1       9.303  -7.861   0.510  1.00  0.00    -0.005 C 
HETATM   37  C23 UNL     1       9.880  -9.142   1.059  1.00  0.00     0.005 C 
ENDBRANCH  35  36
ENDBRANCH  34  35
ENDBRANCH  33  34
ENDBRANCH  32  33
ENDBRANCH  30  31
ENDBRANCH  19  30
BRANCH  22  38
HETATM   38  O2  UNL     1      14.541  -9.296   6.006  1.00  0.00    -0.348 OA
ATOM     39  H2  UNL     1      14.212  -8.922   6.815  1.00  0.00     0.219 HD
ENDBRANCH  22  38
BRANCH  23  40
HETATM   40  C27 UNL     1      17.051  -8.899   6.494  1.00  0.00     0.035 C 
BRANCH  40  41
HETATM   41  C28 UNL     1      18.162  -9.512   5.692  1.00  0.00     0.022 C 
BRANCH  41  42
HETATM   42  C29 UNL     1      19.207 -10.162   6.576  1.00  0.00     0.122 C 
BRANCH  42  43
HETATM   43  N4  UNL     1      18.557 -11.237   7.301  1.00  0.00    -0.367 N 
HETATM   44  C30 UNL     1      19.056 -11.724   8.386  1.00  0.00     0.196 C 
HETATM   45  N5  UNL     1      18.363 -12.772   9.034  1.00  0.00    -0.067 NA
HETATM   46  N6  UNL     1      20.258 -11.236   8.925  1.00  0.00    -0.067 NA
ATOM     47  H4  UNL     1      17.682 -11.619   6.942  1.00  0.00     0.161 HD
ENDBRANCH  42  43
ENDBRANCH  41  42
ENDBRANCH  40  41
ENDBRANCH  23  40
BRANCH  25  48
HETATM   48  O3  UNL     1      16.640  -5.749   8.447  1.00  0.00    -0.345 OA
ATOM     49  H3  UNL     1      16.084  -5.039   8.746  1.00  0.00     0.219 HD
ENDBRANCH  25  48
BRANCH  27  50
HETATM   50  C33 UNL     1      18.984  -5.170   5.873  1.00  0.00     0.057 C 
HETATM   51  C34 UNL     1      19.985  -6.122   6.488  1.00  0.00     0.011 C 
ENDBRANCH  27  50
ENDBRANCH   5   6
ENDBRANCH   3   4
TORSDOF 15
ENDMDL
