MODEL 1
REMARK VINA RESULT: -7.789102971      0.000      0.000
REMARK  18 active torsions:
REMARK  status: ('A' for Active; 'I' for Inactive)
REMARK    1  A    between atoms: C2_2  and  N1_3 
REMARK       I    between atoms: N2_6  and  C5_7 
REMARK    2  A    between atoms: N4_9  and  O1_11 
REMARK    3  A    between atoms: O1_11  and  C6_12 
REMARK    4  A    between atoms: C6_12  and  C7_13 
REMARK    5  A    between atoms: C7_13  and  C8_14 
REMARK    6  A    between atoms: C8_14  and  C9_15 
REMARK    7  A    between atoms: C9_15  and  N5_16 
REMARK    8  A    between atoms: N5_16  and  C10_18 
REMARK    9  A    between atoms: C10_18  and  C11_20 
REMARK       I    between atoms: N6_22  and  C13_23 
REMARK   10  A    between atoms: C13_23  and  C14_25 
REMARK   11  A    between atoms: C14_25  and  N7_26 
REMARK   12  A    between atoms: C14_25  and  C15_30 
REMARK   13  A    between atoms: C15_30  and  C16_31 
REMARK   14  A    between atoms: C16_31  and  C17_32 
REMARK   15  A    between atoms: C17_32  and  N8_33 
REMARK       I    between atoms: N8_33  and  C18_35 
REMARK   16  A    between atoms: C20_41  and  N11_42 
REMARK   17  A    between atoms: N11_42  and  C21_43 
REMARK   18  A    between atoms: N11_42  and  C23_45 
ROOT
HETATM    1  C11 UNL     1       4.330  13.054  39.420  1.00  0.00     0.089 C 
HETATM    2  C12 UNL     1       3.509  12.500  40.526  1.00  0.00     0.139 C 
HETATM    3  N6  UNL     1       4.273  11.450  41.153  1.00  0.00    -0.348 N 
HETATM    4  C13 UNL     1       3.791  10.717  42.282  1.00  0.00     0.250 C 
HETATM    5  O2  UNL     1       2.665  11.100  42.752  1.00  0.00    -0.271 OA
HETATM    6  C19 UNL     1       5.518  11.309  40.496  1.00  0.00     0.152 C 
HETATM    7  C20 UNL     1       5.453  12.139  39.227  1.00  0.00     0.113 C 
ENDROOT
BRANCH   1   8
HETATM    8  C10 UNL     1       3.441  13.244  38.207  1.00  0.00     0.081 C 
HETATM    9  S1  UNL     1       2.215  12.204  37.998  1.00  0.00    -0.065 SA
BRANCH   8  10
HETATM   10  N5  UNL     1       3.651  14.273  37.295  1.00  0.00    -0.384 N 
ATOM     11  H5  UNL     1       3.572  15.207  37.697  1.00  0.00     0.160 HD
BRANCH  10  12
HETATM   12  C9  UNL     1       3.954  14.267  35.908  1.00  0.00     0.120 C 
BRANCH  12  13
HETATM   13  C8  UNL     1       2.817  14.745  35.057  1.00  0.00     0.022 C 
BRANCH  13  14
HETATM   14  C7  UNL     1       3.144  15.808  34.086  1.00  0.00     0.030 C 
BRANCH  14  15
HETATM   15  C6  UNL     1       4.533  16.214  33.878  1.00  0.00     0.201 C 
BRANCH  15  16
HETATM   16  O1  UNL     1       5.183  15.622  32.774  1.00  0.00    -0.278 OA
BRANCH  16  17
HETATM   17  N4  UNL     1       6.327  14.974  32.931  1.00  0.00    -0.238 N 
HETATM   18  C5  UNL     1       7.125  14.464  32.101  1.00  0.00     0.210 C 
HETATM   19  N2  UNL     1       8.333  13.801  32.551  1.00  0.00    -0.351 N 
HETATM   20  N3  UNL     1       6.847  14.522  30.713  1.00  0.00    -0.062 NA
HETATM   21  C4  UNL     1       9.163  13.140  31.606  1.00  0.00     0.156 C 
HETATM   22  C25 UNL     1       8.672  13.833  33.945  1.00  0.00     0.156 C 
HETATM   23  C3  UNL     1       9.679  11.849  32.148  1.00  0.00     0.292 C 
HETATM   24  N1  UNL     1      10.086  11.887  33.514  1.00  0.00     0.091 N 
HETATM   25  C26 UNL     1      10.028  13.179  34.116  1.00  0.00     0.292 C 
ATOM     26  H4  UNL     1       6.615  14.868  33.903  1.00  0.00     0.197 HD
BRANCH  24  27
HETATM   27  C2  UNL     1       9.506  10.820  34.302  1.00  0.00     0.268 C 
HETATM   28  C1  UNL     1       9.458   9.567  33.471  1.00  0.00     0.037 C 
ENDBRANCH  24  27
ENDBRANCH  16  17
ENDBRANCH  15  16
ENDBRANCH  14  15
ENDBRANCH  13  14
ENDBRANCH  12  13
ENDBRANCH  10  12
ENDBRANCH   8  10
ENDBRANCH   1   8
BRANCH   7  29
HETATM   29  N11 UNL     1       6.740  12.630  38.953  1.00  0.00    -0.387 N 
BRANCH  29  30
HETATM   30  C21 UNL     1       7.261  12.400  37.633  1.00  0.00     0.118 C 
HETATM   31  C22 UNL     1       8.054  11.114  37.666  1.00  0.00     0.026 C 
ENDBRANCH  29  30
BRANCH  29  32
HETATM   32  C23 UNL     1       7.242  13.756  39.614  1.00  0.00     0.054 C 
HETATM   33  C24 UNL     1       8.204  14.559  38.793  1.00  0.00     0.054 C 
ENDBRANCH  29  32
ENDBRANCH   7  29
BRANCH   4  34
HETATM   34  C14 UNL     1       4.424   9.590  42.956  1.00  0.00     0.275 C 
BRANCH  34  35
HETATM   35  N7  UNL     1       5.108  10.065  44.159  1.00  0.00    -0.067 N 
ATOM     36  H73 UNL     1       5.928  10.631  43.938  1.00  0.00     0.275 HD
ATOM     37  H72 UNL     1       4.569  10.775  44.654  1.00  0.00     0.275 HD
ATOM     38  H71 UNL     1       5.338   9.269  44.755  1.00  0.00     0.275 HD
ENDBRANCH  34  35
BRANCH  34  39
HETATM   39  C15 UNL     1       3.573   8.417  43.232  1.00  0.00     0.044 C 
BRANCH  39  40
HETATM   40  C16 UNL     1       3.408   8.215  44.731  1.00  0.00     0.022 C 
BRANCH  40  41
HETATM   41  C17 UNL     1       2.025   8.593  45.151  1.00  0.00     0.122 C 
BRANCH  41  42
HETATM   42  N8  UNL     1       1.115   8.494  44.004  1.00  0.00    -0.365 N 
HETATM   43  C18 UNL     1       0.040   9.405  43.884  1.00  0.00     0.181 C 
HETATM   44  N9  UNL     1       0.066  10.507  44.539  1.00  0.00    -0.374 N 
HETATM   45  N10 UNL     1      -1.048   9.106  43.056  1.00  0.00    -0.064 NA
ATOM     46  H92 UNL     1       0.859  10.725  45.143  1.00  0.00     0.158 HD
ATOM     47  H91 UNL     1      -0.709  11.165  44.453  1.00  0.00     0.158 HD
ATOM     48  H8  UNL     1       1.257   7.772  43.297  1.00  0.00     0.162 HD
ENDBRANCH  41  42
ENDBRANCH  40  41
ENDBRANCH  39  40
ENDBRANCH  34  39
ENDBRANCH   4  34
TORSDOF 18
ENDMDL
MODEL 2
REMARK VINA RESULT: -7.538752550      2.107     11.039
REMARK  18 active torsions:
REMARK  status: ('A' for Active; 'I' for Inactive)
REMARK    1  A    between atoms: C2_2  and  N1_3 
REMARK       I    between atoms: N2_6  and  C5_7 
REMARK    2  A    between atoms: N4_9  and  O1_11 
REMARK    3  A    between atoms: O1_11  and  C6_12 
REMARK    4  A    between atoms: C6_12  and  C7_13 
REMARK    5  A    between atoms: C7_13  and  C8_14 
REMARK    6  A    between atoms: C8_14  and  C9_15 
REMARK    7  A    between atoms: C9_15  and  N5_16 
REMARK    8  A    between atoms: N5_16  and  C10_18 
REMARK    9  A    between atoms: C10_18  and  C11_20 
REMARK       I    between atoms: N6_22  and  C13_23 
REMARK   10  A    between atoms: C13_23  and  C14_25 
REMARK   11  A    between atoms: C14_25  and  N7_26 
REMARK   12  A    between atoms: C14_25  and  C15_30 
REMARK   13  A    between atoms: C15_30  and  C16_31 
REMARK   14  A    between atoms: C16_31  and  C17_32 
REMARK   15  A    between atoms: C17_32  and  N8_33 
REMARK       I    between atoms: N8_33  and  C18_35 
REMARK   16  A    between atoms: C20_41  and  N11_42 
REMARK   17  A    between atoms: N11_42  and  C21_43 
REMARK   18  A    between atoms: N11_42  and  C23_45 
ROOT
HETATM    1  C11 UNL     1       4.007  13.507  38.153  1.00  0.00     0.089 C 
HETATM    2  C12 UNL     1       5.288  13.035  38.737  1.00  0.00     0.139 C 
HETATM    3  N6  UNL     1       6.261  12.988  37.674  1.00  0.00    -0.348 N 
HETATM    4  C13 UNL     1       7.620  12.602  37.891  1.00  0.00     0.250 C 
HETATM    5  O2  UNL     1       7.943  12.371  39.107  1.00  0.00    -0.271 OA
HETATM    6  C19 UNL     1       5.659  13.391  36.458  1.00  0.00     0.152 C 
HETATM    7  C20 UNL     1       4.162  13.464  36.701  1.00  0.00     0.113 C 
ENDROOT
BRANCH   1   8
HETATM    8  C10 UNL     1       2.883  12.654  38.704  1.00  0.00     0.081 C 
HETATM    9  S1  UNL     1       2.587  11.233  37.981  1.00  0.00    -0.065 SA
BRANCH   8  10
HETATM   10  N5  UNL     1       2.120  13.056  39.797  1.00  0.00    -0.384 N 
ATOM     11  H5  UNL     1       1.571  13.900  39.632  1.00  0.00     0.160 HD
BRANCH  10  12
HETATM   12  C9  UNL     1       1.964  12.512  41.098  1.00  0.00     0.120 C 
BRANCH  12  13
HETATM   13  C8  UNL     1       3.266  12.343  41.823  1.00  0.00     0.022 C 
BRANCH  13  14
HETATM   14  C7  UNL     1       3.899  11.015  41.704  1.00  0.00     0.030 C 
BRANCH  14  15
HETATM   15  C6  UNL     1       4.757  10.509  42.775  1.00  0.00     0.201 C 
BRANCH  15  16
HETATM   16  O1  UNL     1       4.098   9.804  43.803  1.00  0.00    -0.278 OA
BRANCH  16  17
HETATM   17  N4  UNL     1       2.780   9.680  43.800  1.00  0.00    -0.238 N 
HETATM   18  C5  UNL     1       1.966   9.318  44.691  1.00  0.00     0.210 C 
HETATM   19  N2  UNL     1       0.544   9.274  44.418  1.00  0.00    -0.351 N 
HETATM   20  N3  UNL     1       2.433   8.937  45.973  1.00  0.00    -0.062 NA
HETATM   21  C4  UNL     1      -0.343   8.760  45.402  1.00  0.00     0.156 C 
HETATM   22  C25 UNL     1       0.057   9.759  43.158  1.00  0.00     0.156 C 
HETATM   23  C3  UNL     1      -1.410   7.919  44.783  1.00  0.00     0.292 C 
HETATM   24  N1  UNL     1      -1.952   8.429  43.566  1.00  0.00     0.091 N 
HETATM   25  C26 UNL     1      -1.458   9.712  43.186  1.00  0.00     0.292 C 
ATOM     26  H4  UNL     1       2.341   9.922  42.912  1.00  0.00     0.197 HD
BRANCH  24  27
HETATM   27  C2  UNL     1      -1.971   7.444  42.506  1.00  0.00     0.268 C 
HETATM   28  C1  UNL     1      -3.396   7.063  42.214  1.00  0.00     0.037 C 
ENDBRANCH  24  27
ENDBRANCH  16  17
ENDBRANCH  15  16
ENDBRANCH  14  15
ENDBRANCH  13  14
ENDBRANCH  12  13
ENDBRANCH  10  12
ENDBRANCH   8  10
ENDBRANCH   1   8
BRANCH   7  29
HETATM   29  N11 UNL     1       3.632  14.482  35.892  1.00  0.00    -0.387 N 
BRANCH  29  30
HETATM   30  C21 UNL     1       4.570  15.335  35.214  1.00  0.00     0.118 C 
HETATM   31  C22 UNL     1       3.833  16.036  34.096  1.00  0.00     0.026 C 
ENDBRANCH  29  30
BRANCH  29  32
HETATM   32  C23 UNL     1       2.386  14.340  35.272  1.00  0.00     0.054 C 
HETATM   33  C24 UNL     1       2.196  13.017  34.596  1.00  0.00     0.054 C 
ENDBRANCH  29  32
ENDBRANCH   7  29
BRANCH   4  34
HETATM   34  C14 UNL     1       8.676  12.438  36.899  1.00  0.00     0.275 C 
BRANCH  34  35
HETATM   35  N7  UNL     1       8.335  11.333  36.003  1.00  0.00    -0.067 N 
ATOM     36  H73 UNL     1       8.091  10.484  36.513  1.00  0.00     0.275 HD
ATOM     37  H72 UNL     1       7.442  11.481  35.531  1.00  0.00     0.275 HD
ATOM     38  H71 UNL     1       9.099  11.182  35.345  1.00  0.00     0.275 HD
ENDBRANCH  34  35
BRANCH  34  39
HETATM   39  C15 UNL     1       9.082  13.645  36.156  1.00  0.00     0.044 C 
BRANCH  39  40
HETATM   40  C16 UNL     1       9.008  13.403  34.656  1.00  0.00     0.022 C 
BRANCH  40  41
HETATM   41  C17 UNL     1       8.171  14.456  34.005  1.00  0.00     0.122 C 
BRANCH  41  42
HETATM   42  N8  UNL     1       7.836  14.044  32.637  1.00  0.00    -0.365 N 
HETATM   43  C18 UNL     1       7.006  14.870  31.843  1.00  0.00     0.181 C 
HETATM   44  N9  UNL     1       6.851  16.104  32.157  1.00  0.00    -0.374 N 
HETATM   45  N10 UNL     1       6.355  14.344  30.721  1.00  0.00    -0.064 NA
ATOM     46  H92 UNL     1       7.325  16.487  32.975  1.00  0.00     0.158 HD
ATOM     47  H91 UNL     1       6.252  16.699  31.585  1.00  0.00     0.158 HD
ATOM     48  H8  UNL     1       8.200  13.169  32.260  1.00  0.00     0.162 HD
ENDBRANCH  41  42
ENDBRANCH  40  41
ENDBRANCH  39  40
ENDBRANCH  34  39
ENDBRANCH   4  34
TORSDOF 18
ENDMDL
MODEL 3
REMARK VINA RESULT: -7.429069892      2.557      5.025
REMARK  18 active torsions:
REMARK  status: ('A' for Active; 'I' for Inactive)
REMARK    1  A    between atoms: C2_2  and  N1_3 
REMARK       I    between atoms: N2_6  and  C5_7 
REMARK    2  A    between atoms: N4_9  and  O1_11 
REMARK    3  A    between atoms: O1_11  and  C6_12 
REMARK    4  A    between atoms: C6_12  and  C7_13 
REMARK    5  A    between atoms: C7_13  and  C8_14 
REMARK    6  A    between atoms: C8_14  and  C9_15 
REMARK    7  A    between atoms: C9_15  and  N5_16 
REMARK    8  A    between atoms: N5_16  and  C10_18 
REMARK    9  A    between atoms: C10_18  and  C11_20 
REMARK       I    between atoms: N6_22  and  C13_23 
REMARK   10  A    between atoms: C13_23  and  C14_25 
REMARK   11  A    between atoms: C14_25  and  N7_26 
REMARK   12  A    between atoms: C14_25  and  C15_30 
REMARK   13  A    between atoms: C15_30  and  C16_31 
REMARK   14  A    between atoms: C16_31  and  C17_32 
REMARK   15  A    between atoms: C17_32  and  N8_33 
REMARK       I    between atoms: N8_33  and  C18_35 
REMARK   16  A    between atoms: C20_41  and  N11_42 
REMARK   17  A    between atoms: N11_42  and  C21_43 
REMARK   18  A    between atoms: N11_42  and  C23_45 
ROOT
HETATM    1  C11 UNL     1       5.627  12.761  36.904  1.00  0.00     0.089 C 
HETATM    2  C12 UNL     1       5.421  12.035  38.183  1.00  0.00     0.139 C 
HETATM    3  N6  UNL     1       4.231  12.568  38.800  1.00  0.00    -0.348 N 
HETATM    4  C13 UNL     1       3.720  12.072  40.040  1.00  0.00     0.250 C 
HETATM    5  O2  UNL     1       4.343  11.071  40.535  1.00  0.00    -0.271 OA
HETATM    6  C19 UNL     1       3.690  13.591  37.987  1.00  0.00     0.152 C 
HETATM    7  C20 UNL     1       4.718  13.905  36.916  1.00  0.00     0.113 C 
ENDROOT
BRANCH   1   8
HETATM    8  C10 UNL     1       7.096  13.110  36.779  1.00  0.00     0.081 C 
HETATM    9  S1  UNL     1       7.786  13.929  37.997  1.00  0.00    -0.065 SA
BRANCH   8  10
HETATM   10  N5  UNL     1       7.848  12.745  35.666  1.00  0.00    -0.384 N 
ATOM     11  H5  UNL     1       7.627  13.276  34.824  1.00  0.00     0.160 HD
BRANCH  10  12
HETATM   12  C9  UNL     1       8.864  11.771  35.484  1.00  0.00     0.120 C 
BRANCH  12  13
HETATM   13  C8  UNL     1      10.247  12.336  35.612  1.00  0.00     0.022 C 
BRANCH  13  14
HETATM   14  C7  UNL     1      11.144  12.104  34.464  1.00  0.00     0.030 C 
BRANCH  14  15
HETATM   15  C6  UNL     1      11.898  13.213  33.881  1.00  0.00     0.201 C 
BRANCH  15  16
HETATM   16  O1  UNL     1      11.185  14.419  33.722  1.00  0.00    -0.278 OA
BRANCH  16  17
HETATM   17  N4  UNL     1      10.481  14.648  32.624  1.00  0.00    -0.238 N 
HETATM   18  C5  UNL     1       9.255  14.869  32.440  1.00  0.00     0.210 C 
HETATM   19  N2  UNL     1       8.737  15.095  31.105  1.00  0.00    -0.351 N 
HETATM   20  N3  UNL     1       8.360  14.887  33.538  1.00  0.00    -0.062 NA
HETATM   21  C4  UNL     1       7.337  15.234  30.911  1.00  0.00     0.156 C 
HETATM   22  C25 UNL     1       9.653  15.183  30.004  1.00  0.00     0.156 C 
HETATM   23  C3  UNL     1       6.889  14.529  29.675  1.00  0.00     0.292 C 
HETATM   24  N1  UNL     1       7.757  14.669  28.551  1.00  0.00     0.091 N 
HETATM   25  C26 UNL     1       8.865  15.542  28.761  1.00  0.00     0.292 C 
ATOM     26  H4  UNL     1      11.035  14.646  31.767  1.00  0.00     0.197 HD
BRANCH  24  27
HETATM   27  C2  UNL     1       8.088  13.400  27.938  1.00  0.00     0.268 C 
HETATM   28  C1  UNL     1       8.794  13.655  26.634  1.00  0.00     0.037 C 
ENDBRANCH  24  27
ENDBRANCH  16  17
ENDBRANCH  15  16
ENDBRANCH  14  15
ENDBRANCH  13  14
ENDBRANCH  12  13
ENDBRANCH  10  12
ENDBRANCH   8  10
ENDBRANCH   1   8
BRANCH   7  29
HETATM   29  N11 UNL     1       4.038  14.293  35.751  1.00  0.00    -0.387 N 
BRANCH  29  30
HETATM   30  C21 UNL     1       2.623  14.043  35.703  1.00  0.00     0.118 C 
HETATM   31  C22 UNL     1       2.384  12.919  34.720  1.00  0.00     0.026 C 
ENDBRANCH  29  30
BRANCH  29  32
HETATM   32  C23 UNL     1       4.488  15.364  34.971  1.00  0.00     0.054 C 
HETATM   33  C24 UNL     1       3.406  16.034  34.181  1.00  0.00     0.054 C 
ENDBRANCH  29  32
ENDBRANCH   7  29
BRANCH   4  34
HETATM   34  C14 UNL     1       2.582  12.569  40.804  1.00  0.00     0.275 C 
BRANCH  34  35
HETATM   35  N7  UNL     1       2.829  13.956  41.197  1.00  0.00    -0.067 N 
ATOM     36  H73 UNL     1       3.543  14.400  40.619  1.00  0.00     0.275 HD
ATOM     37  H72 UNL     1       2.048  14.569  40.961  1.00  0.00     0.275 HD
ATOM     38  H71 UNL     1       3.060  13.991  42.191  1.00  0.00     0.275 HD
ENDBRANCH  34  35
BRANCH  34  39
HETATM   39  C15 UNL     1       1.249  12.397  40.198  1.00  0.00     0.044 C 
BRANCH  39  40
HETATM   40  C16 UNL     1       0.282  11.775  41.195  1.00  0.00     0.022 C 
BRANCH  40  41
HETATM   41  C17 UNL     1       0.800  10.451  41.656  1.00  0.00     0.122 C 
BRANCH  41  42
HETATM   42  N8  UNL     1       0.879  10.434  43.121  1.00  0.00    -0.365 N 
HETATM   43  C18 UNL     1       2.037   9.925  43.752  1.00  0.00     0.181 C 
HETATM   44  N9  UNL     1       3.130   9.825  43.089  1.00  0.00    -0.374 N 
HETATM   45  N10 UNL     1       1.993   9.530  45.095  1.00  0.00    -0.064 NA
ATOM     46  H92 UNL     1       3.163  10.113  42.110  1.00  0.00     0.158 HD
ATOM     47  H91 UNL     1       3.966   9.457  43.543  1.00  0.00     0.158 HD
ATOM     48  H8  UNL     1       0.103  10.788  43.681  1.00  0.00     0.162 HD
ENDBRANCH  41  42
ENDBRANCH  40  41
ENDBRANCH  39  40
ENDBRANCH  34  39
ENDBRANCH   4  34
TORSDOF 18
ENDMDL
MODEL 4
REMARK VINA RESULT: -7.278785292      1.576      2.509
REMARK  18 active torsions:
REMARK  status: ('A' for Active; 'I' for Inactive)
REMARK    1  A    between atoms: C2_2  and  N1_3 
REMARK       I    between atoms: N2_6  and  C5_7 
REMARK    2  A    between atoms: N4_9  and  O1_11 
REMARK    3  A    between atoms: O1_11  and  C6_12 
REMARK    4  A    between atoms: C6_12  and  C7_13 
REMARK    5  A    between atoms: C7_13  and  C8_14 
REMARK    6  A    between atoms: C8_14  and  C9_15 
REMARK    7  A    between atoms: C9_15  and  N5_16 
REMARK    8  A    between atoms: N5_16  and  C10_18 
REMARK    9  A    between atoms: C10_18  and  C11_20 
REMARK       I    between atoms: N6_22  and  C13_23 
REMARK   10  A    between atoms: C13_23  and  C14_25 
REMARK   11  A    between atoms: C14_25  and  N7_26 
REMARK   12  A    between atoms: C14_25  and  C15_30 
REMARK   13  A    between atoms: C15_30  and  C16_31 
REMARK   14  A    between atoms: C16_31  and  C17_32 
REMARK   15  A    between atoms: C17_32  and  N8_33 
REMARK       I    between atoms: N8_33  and  C18_35 
REMARK   16  A    between atoms: C20_41  and  N11_42 
REMARK   17  A    between atoms: N11_42  and  C21_43 
REMARK   18  A    between atoms: N11_42  and  C23_45 
ROOT
HETATM    1  C11 UNL     1       3.758  12.878  39.317  1.00  0.00     0.089 C 
HETATM    2  C12 UNL     1       3.048  12.279  40.475  1.00  0.00     0.139 C 
HETATM    3  N6  UNL     1       3.937  11.320  41.083  1.00  0.00    -0.348 N 
HETATM    4  C13 UNL     1       3.581  10.574  42.250  1.00  0.00     0.250 C 
HETATM    5  O2  UNL     1       2.449  10.864  42.769  1.00  0.00    -0.271 OA
HETATM    6  C19 UNL     1       5.156  11.278  40.366  1.00  0.00     0.152 C 
HETATM    7  C20 UNL     1       4.951  12.067  39.086  1.00  0.00     0.113 C 
ENDROOT
BRANCH   1   8
HETATM    8  C10 UNL     1       2.797  12.955  38.148  1.00  0.00     0.081 C 
HETATM    9  S1  UNL     1       1.867  11.661  37.847  1.00  0.00    -0.065 SA
BRANCH   8  10
HETATM   10  N5  UNL     1       2.697  14.090  37.350  1.00  0.00    -0.384 N 
ATOM     11  H5  UNL     1       3.164  14.911  37.735  1.00  0.00     0.160 HD
BRANCH  10  12
HETATM   12  C9  UNL     1       2.068  14.320  36.099  1.00  0.00     0.120 C 
BRANCH  12  13
HETATM   13  C8  UNL     1       3.035  14.359  34.953  1.00  0.00     0.022 C 
BRANCH  13  14
HETATM   14  C7  UNL     1       3.175  15.662  34.276  1.00  0.00     0.030 C 
BRANCH  14  15
HETATM   15  C6  UNL     1       4.496  16.153  33.886  1.00  0.00     0.201 C 
BRANCH  15  16
HETATM   16  O1  UNL     1       5.588  15.558  34.552  1.00  0.00    -0.278 OA
BRANCH  16  17
HETATM   17  N4  UNL     1       6.584  15.016  33.867  1.00  0.00    -0.238 N 
HETATM   18  C5  UNL     1       7.738  14.646  34.211  1.00  0.00     0.210 C 
HETATM   19  N2  UNL     1       8.647  14.070  33.240  1.00  0.00    -0.351 N 
HETATM   20  N3  UNL     1       8.168  14.799  35.551  1.00  0.00    -0.062 NA
HETATM   21  C4  UNL     1       9.979  13.760  33.626  1.00  0.00     0.156 C 
HETATM   22  C25 UNL     1       8.180  13.815  31.907  1.00  0.00     0.156 C 
HETATM   23  C3  UNL     1      10.950  14.115  32.550  1.00  0.00     0.292 C 
HETATM   24  N1  UNL     1      10.526  13.800  31.224  1.00  0.00     0.091 N 
HETATM   25  C26 UNL     1       9.283  13.106  31.147  1.00  0.00     0.292 C 
ATOM     26  H4  UNL     1       6.378  14.872  32.879  1.00  0.00     0.197 HD
BRANCH  24  27
HETATM   27  C2  UNL     1      10.658  14.918  30.314  1.00  0.00     0.268 C 
HETATM   28  C1  UNL     1      11.052  16.142  31.094  1.00  0.00     0.037 C 
ENDBRANCH  24  27
ENDBRANCH  16  17
ENDBRANCH  15  16
ENDBRANCH  14  15
ENDBRANCH  13  14
ENDBRANCH  12  13
ENDBRANCH  10  12
ENDBRANCH   8  10
ENDBRANCH   1   8
BRANCH   7  29
HETATM   29  N11 UNL     1       6.171  12.667  38.736  1.00  0.00    -0.387 N 
BRANCH  29  30
HETATM   30  C21 UNL     1       6.911  13.310  39.788  1.00  0.00     0.118 C 
HETATM   31  C22 UNL     1       7.803  14.353  39.156  1.00  0.00     0.026 C 
ENDBRANCH  29  30
BRANCH  29  32
HETATM   32  C23 UNL     1       6.935  12.186  37.667  1.00  0.00     0.054 C 
HETATM   33  C24 UNL     1       7.929  11.136  38.059  1.00  0.00     0.054 C 
ENDBRANCH  29  32
ENDBRANCH   7  29
BRANCH   4  34
HETATM   34  C14 UNL     1       4.349   9.528  42.914  1.00  0.00     0.275 C 
BRANCH  34  35
HETATM   35  N7  UNL     1       5.268  10.135  43.877  1.00  0.00    -0.067 N 
ATOM     36  H73 UNL     1       5.480  11.107  43.648  1.00  0.00     0.275 HD
ATOM     37  H72 UNL     1       4.827  10.292  44.784  1.00  0.00     0.275 HD
ATOM     38  H71 UNL     1       6.110   9.563  43.951  1.00  0.00     0.275 HD
ENDBRANCH  34  35
BRANCH  34  39
HETATM   39  C15 UNL     1       3.583   8.417  43.508  1.00  0.00     0.044 C 
BRANCH  39  40
HETATM   40  C16 UNL     1       3.669   8.456  45.026  1.00  0.00     0.022 C 
BRANCH  40  41
HETATM   41  C17 UNL     1       2.299   8.424  45.620  1.00  0.00     0.122 C 
BRANCH  41  42
HETATM   42  N8  UNL     1       1.498   7.385  44.961  1.00  0.00    -0.365 N 
HETATM   43  C18 UNL     1       0.588   6.617  45.723  1.00  0.00     0.181 C 
HETATM   44  N9  UNL     1       0.194   7.047  46.865  1.00  0.00    -0.374 N 
HETATM   45  N10 UNL     1       0.119   5.391  45.235  1.00  0.00    -0.064 NA
ATOM     46  H92 UNL     1       0.536   7.940  47.221  1.00  0.00     0.158 HD
ATOM     47  H91 UNL     1      -0.462   6.492  47.415  1.00  0.00     0.158 HD
ATOM     48  H8  UNL     1       1.598   7.219  43.959  1.00  0.00     0.162 HD
ENDBRANCH  41  42
ENDBRANCH  40  41
ENDBRANCH  39  40
ENDBRANCH  34  39
ENDBRANCH   4  34
TORSDOF 18
ENDMDL
MODEL 5
REMARK VINA RESULT: -7.253402674      2.966      5.263
REMARK  18 active torsions:
REMARK  status: ('A' for Active; 'I' for Inactive)
REMARK    1  A    between atoms: C2_2  and  N1_3 
REMARK       I    between atoms: N2_6  and  C5_7 
REMARK    2  A    between atoms: N4_9  and  O1_11 
REMARK    3  A    between atoms: O1_11  and  C6_12 
REMARK    4  A    between atoms: C6_12  and  C7_13 
REMARK    5  A    between atoms: C7_13  and  C8_14 
REMARK    6  A    between atoms: C8_14  and  C9_15 
REMARK    7  A    between atoms: C9_15  and  N5_16 
REMARK    8  A    between atoms: N5_16  and  C10_18 
REMARK    9  A    between atoms: C10_18  and  C11_20 
REMARK       I    between atoms: N6_22  and  C13_23 
REMARK   10  A    between atoms: C13_23  and  C14_25 
REMARK   11  A    between atoms: C14_25  and  N7_26 
REMARK   12  A    between atoms: C14_25  and  C15_30 
REMARK   13  A    between atoms: C15_30  and  C16_31 
REMARK   14  A    between atoms: C16_31  and  C17_32 
REMARK   15  A    between atoms: C17_32  and  N8_33 
REMARK       I    between atoms: N8_33  and  C18_35 
REMARK   16  A    between atoms: C20_41  and  N11_42 
REMARK   17  A    between atoms: N11_42  and  C21_43 
REMARK   18  A    between atoms: N11_42  and  C23_45 
ROOT
HETATM    1  C11 UNL     1       5.837  12.476  37.699  1.00  0.00     0.089 C 
HETATM    2  C12 UNL     1       5.623  11.895  39.048  1.00  0.00     0.139 C 
HETATM    3  N6  UNL     1       4.329  12.332  39.512  1.00  0.00    -0.348 N 
HETATM    4  C13 UNL     1       3.787  11.930  40.772  1.00  0.00     0.250 C 
HETATM    5  O2  UNL     1       4.491  11.094  41.437  1.00  0.00    -0.271 OA
HETATM    6  C19 UNL     1       3.728  13.161  38.535  1.00  0.00     0.152 C 
HETATM    7  C20 UNL     1       4.791  13.476  37.498  1.00  0.00     0.113 C 
ENDROOT
BRANCH   1   8
HETATM    8  C10 UNL     1       7.254  13.005  37.620  1.00  0.00     0.081 C 
HETATM    9  S1  UNL     1       7.789  13.920  38.847  1.00  0.00    -0.065 SA
BRANCH   8  10
HETATM   10  N5  UNL     1       8.087  12.722  36.542  1.00  0.00    -0.384 N 
ATOM     11  H5  UNL     1       7.631  12.800  35.633  1.00  0.00     0.160 HD
BRANCH  10  12
HETATM   12  C9  UNL     1       9.454  12.345  36.471  1.00  0.00     0.120 C 
BRANCH  12  13
HETATM   13  C8  UNL     1      10.304  13.354  35.758  1.00  0.00     0.022 C 
BRANCH  13  14
HETATM   14  C7  UNL     1      11.705  12.958  35.519  1.00  0.00     0.030 C 
BRANCH  14  15
HETATM   15  C6  UNL     1      12.143  12.566  34.180  1.00  0.00     0.201 C 
BRANCH  15  16
HETATM   16  O1  UNL     1      11.202  11.841  33.419  1.00  0.00    -0.278 OA
BRANCH  16  17
HETATM   17  N4  UNL     1      11.233  10.517  33.388  1.00  0.00    -0.238 N 
HETATM   18  C5  UNL     1      10.330   9.651  33.532  1.00  0.00     0.210 C 
HETATM   19  N2  UNL     1      10.643   8.238  33.446  1.00  0.00    -0.351 N 
HETATM   20  N3  UNL     1       8.995  10.046  33.789  1.00  0.00    -0.062 NA
HETATM   21  C4  UNL     1       9.631   7.279  33.717  1.00  0.00     0.156 C 
HETATM   22  C25 UNL     1      11.971   7.835  33.080  1.00  0.00     0.156 C 
HETATM   23  C3  UNL     1      10.170   6.131  34.504  1.00  0.00     0.292 C 
HETATM   24  N1  UNL     1      11.460   5.675  34.102  1.00  0.00     0.091 N 
HETATM   25  C26 UNL     1      11.987   6.326  32.947  1.00  0.00     0.292 C 
ATOM     26  H4  UNL     1      12.159  10.127  33.218  1.00  0.00     0.197 HD
BRANCH  24  27
HETATM   27  C2  UNL     1      12.383   5.558  35.211  1.00  0.00     0.268 C 
HETATM   28  C1  UNL     1      13.524   4.664  34.807  1.00  0.00     0.037 C 
ENDBRANCH  24  27
ENDBRANCH  16  17
ENDBRANCH  15  16
ENDBRANCH  14  15
ENDBRANCH  13  14
ENDBRANCH  12  13
ENDBRANCH  10  12
ENDBRANCH   8  10
ENDBRANCH   1   8
BRANCH   7  29
HETATM   29  N11 UNL     1       4.163  13.617  36.250  1.00  0.00    -0.387 N 
BRANCH  29  30
HETATM   30  C21 UNL     1       2.999  12.808  36.007  1.00  0.00     0.118 C 
HETATM   31  C22 UNL     1       2.567  13.038  34.576  1.00  0.00     0.026 C 
ENDBRANCH  29  30
BRANCH  29  32
HETATM   32  C23 UNL     1       4.219  14.823  35.543  1.00  0.00     0.054 C 
HETATM   33  C24 UNL     1       5.610  15.350  35.359  1.00  0.00     0.054 C 
ENDBRANCH  29  32
ENDBRANCH   7  29
BRANCH   4  34
HETATM   34  C14 UNL     1       2.537  12.358  41.388  1.00  0.00     0.275 C 
BRANCH  34  35
HETATM   35  N7  UNL     1       2.556  13.809  41.571  1.00  0.00    -0.067 N 
ATOM     36  H73 UNL     1       2.968  14.293  40.772  1.00  0.00     0.275 HD
ATOM     37  H72 UNL     1       1.622  14.216  41.522  1.00  0.00     0.275 HD
ATOM     38  H71 UNL     1       3.031  14.035  42.445  1.00  0.00     0.275 HD
ENDBRANCH  34  35
BRANCH  34  39
HETATM   39  C15 UNL     1       1.290  11.899  40.749  1.00  0.00     0.044 C 
BRANCH  39  40
HETATM   40  C16 UNL     1       1.215  10.380  40.749  1.00  0.00     0.022 C 
BRANCH  40  41
HETATM   41  C17 UNL     1       0.375   9.906  41.890  1.00  0.00     0.122 C 
BRANCH  41  42
HETATM   42  N8  UNL     1       1.234   9.315  42.924  1.00  0.00    -0.365 N 
HETATM   43  C18 UNL     1       1.137   9.772  44.257  1.00  0.00     0.181 C 
HETATM   44  N9  UNL     1       0.090  10.409  44.637  1.00  0.00    -0.374 N 
HETATM   45  N10 UNL     1       2.178   9.533  45.163  1.00  0.00    -0.064 NA
ATOM     46  H92 UNL     1      -0.669  10.584  43.977  1.00  0.00     0.158 HD
ATOM     47  H91 UNL     1       0.020  10.740  45.599  1.00  0.00     0.158 HD
ATOM     48  H8  UNL     1       1.896   8.578  42.681  1.00  0.00     0.162 HD
ENDBRANCH  41  42
ENDBRANCH  40  41
ENDBRANCH  39  40
ENDBRANCH  34  39
ENDBRANCH   4  34
TORSDOF 18
ENDMDL
