MODEL 1
REMARK VINA RESULT: -8.496730401      0.000      0.000
REMARK  19 active torsions:
REMARK  status: ('A' for Active; 'I' for Inactive)
REMARK    1  A    between atoms: C2_2  and  C3_3 
REMARK    2  A    between atoms: C3_3  and  C4_4 
REMARK    3  A    between atoms: C4_4  and  N1_5 
REMARK    4  A    between atoms: N1_5  and  C5_7 
REMARK    5  A    between atoms: C6_10  and  N3_11 
REMARK    6  A    between atoms: N3_11  and  C7_13 
REMARK    7  A    between atoms: C7_13  and  C8_14 
REMARK    8  A    between atoms: C8_14  and  C9_15 
REMARK    9  A    between atoms: N4_17  and  C11_18 
REMARK   10  A    between atoms: C14_21  and  N5_22 
REMARK   11  A    between atoms: N5_22  and  C15_24 
REMARK   12  A    between atoms: C15_24  and  C16_25 
REMARK   13  A    between atoms: C16_25  and  C17_26 
REMARK   14  A    between atoms: C20_29  and  S1_30 
REMARK   15  A    between atoms: S1_30  and  N6_33 
REMARK   16  A    between atoms: N6_33  and  C21_35 
REMARK   17  A    between atoms: C21_35  and  C22_36 
REMARK   18  A    between atoms: C22_36  and  N7_37 
REMARK       I    between atoms: C23_39  and  N9_41 
REMARK   19  A    between atoms: N9_41  and  N10_43 
ROOT
HETATM    1  C15 UNL     1       3.206  13.174  40.662  1.00  0.00     0.142 C 
ENDROOT
BRANCH   1   2
HETATM    2  N5  UNL     1       4.267  13.901  40.019  1.00  0.00    -0.225 N 
ATOM      3  H5  UNL     1       4.876  14.511  40.564  1.00  0.00     0.177 HD
BRANCH   2   4
HETATM    4  C14 UNL     1       4.443  13.777  38.750  1.00  0.00     0.709 A 
HETATM    5  N4  UNL     1       5.616  13.266  38.338  1.00  0.00    -0.009 N 
HETATM    6  C6  UNL     1       5.764  13.151  37.008  1.00  0.00     0.709 A 
HETATM    7  N2  UNL     1       4.814  13.515  36.116  1.00  0.00    -0.021 N 
HETATM    8  C5  UNL     1       3.653  14.021  36.552  1.00  0.00     0.707 A 
ATOM      9  H2  UNL     1       4.981  13.405  35.115  1.00  0.00     0.203 HD
HETATM   10  N12 UNL     1       3.486  14.144  37.890  1.00  0.00    -0.021 N 
ATOM     11  H12 UNL     1       2.612  14.525  38.250  1.00  0.00     0.203 HD
BRANCH   5  12
HETATM   12  C11 UNL     1       6.646  12.870  39.271  1.00  0.00     0.118 C 
HETATM   13  C12 UNL     1       7.239  11.522  38.924  1.00  0.00     0.034 C 
HETATM   14  C13 UNL     1       7.760  13.851  39.384  1.00  0.00     0.034 C 
ENDBRANCH   5  12
BRANCH   6  15
HETATM   15  N3  UNL     1       6.866  12.668  36.537  1.00  0.00    -0.225 N 
ATOM     16  H3  UNL     1       7.124  11.711  36.780  1.00  0.00     0.177 HD
BRANCH  15  17
HETATM   17  C7  UNL     1       7.748  13.429  35.678  1.00  0.00     0.138 C 
BRANCH  17  18
HETATM   18  C8  UNL     1       8.860  12.460  35.256  1.00  0.00     0.020 C 
BRANCH  18  19
HETATM   19  C9  UNL     1       9.882  12.481  36.374  1.00  0.00    -0.003 C 
HETATM   20  C10 UNL     1      11.275  12.751  35.845  1.00  0.00     0.005 C 
ENDBRANCH  18  19
ENDBRANCH  17  18
ENDBRANCH  15  17
ENDBRANCH   6  15
BRANCH   8  21
HETATM   21  N1  UNL     1       2.693  14.393  35.767  1.00  0.00    -0.225 N 
ATOM     22  H1  UNL     1       1.787  14.595  36.190  1.00  0.00     0.177 HD
BRANCH  21  23
HETATM   23  C4  UNL     1       2.812  14.540  34.358  1.00  0.00     0.138 C 
BRANCH  23  24
HETATM   24  C3  UNL     1       3.169  15.923  33.889  1.00  0.00     0.020 C 
BRANCH  24  25
HETATM   25  C2  UNL     1       4.625  16.239  33.948  1.00  0.00    -0.003 C 
HETATM   26  C1  UNL     1       5.513  15.414  33.086  1.00  0.00     0.005 C 
ENDBRANCH  24  25
ENDBRANCH  23  24
ENDBRANCH  21  23
ENDBRANCH   8  21
ENDBRANCH   2   4
ENDBRANCH   1   2
BRANCH   1  27
HETATM   27  C16 UNL     1       3.122  11.743  40.176  1.00  0.00     0.058 C 
BRANCH  27  28
HETATM   28  C17 UNL     1       3.013  10.887  41.386  1.00  0.00    -0.057 A 
HETATM   29  C18 UNL     1       4.109  10.313  41.985  1.00  0.00     0.009 A 
HETATM   30  C19 UNL     1       4.055   9.514  43.105  1.00  0.00     0.026 A 
HETATM   31  C20 UNL     1       2.803   9.287  43.650  1.00  0.00     0.079 A 
HETATM   32  C24 UNL     1       1.665   9.834  43.095  1.00  0.00     0.026 A 
HETATM   33  C25 UNL     1       1.782  10.627  41.972  1.00  0.00     0.009 A 
BRANCH  31  34
HETATM   34  S1  UNL     1       2.666   8.277  45.079  1.00  0.00     0.258 S 
HETATM   35  O1  UNL     1       4.046   7.798  45.414  1.00  0.00    -0.201 OA
HETATM   36  O2  UNL     1       2.148   9.055  46.244  1.00  0.00    -0.201 OA
BRANCH  34  37
HETATM   37  N6  UNL     1       1.661   6.907  44.761  1.00  0.00    -0.314 N 
ATOM     38  H6  UNL     1       1.755   6.311  43.939  1.00  0.00     0.172 HD
BRANCH  37  39
HETATM   39  C21 UNL     1       0.681   6.705  45.786  1.00  0.00     0.152 C 
BRANCH  39  40
HETATM   40  C22 UNL     1      -0.650   7.204  45.249  1.00  0.00     0.142 C 
BRANCH  40  41
HETATM   41  N7  UNL     1      -0.890   8.586  45.608  1.00  0.00    -0.362 N 
HETATM   42  C23 UNL     1      -1.598   9.292  44.785  1.00  0.00     0.204 C 
HETATM   43  N8  UNL     1      -2.133   8.776  43.583  1.00  0.00    -0.062 NA
HETATM   44  N9  UNL     1      -1.859  10.650  45.097  1.00  0.00    -0.260 N 
ATOM     45  H9  UNL     1      -1.841  10.948  46.072  1.00  0.00     0.191 HD
ATOM     46  H7  UNL     1      -0.517   8.986  46.469  1.00  0.00     0.162 HD
BRANCH  44  47
HETATM   47  N10 UNL     1      -2.139  11.587  44.103  1.00  0.00    -0.247 N 
HETATM   48  N11 UNL     1      -1.519  11.564  43.004  1.00  0.00    -0.331 N 
ATOM     49 2H11 UNL     1      -0.809  10.846  42.857  1.00  0.00     0.178 HD
ATOM     50 1H11 UNL     1      -1.723  12.250  42.278  1.00  0.00     0.178 HD
ATOM     51  H10 UNL     1      -2.851  12.299  44.267  1.00  0.00     0.207 HD
ENDBRANCH  44  47
ENDBRANCH  40  41
ENDBRANCH  39  40
ENDBRANCH  37  39
ENDBRANCH  34  37
ENDBRANCH  31  34
ENDBRANCH  27  28
ENDBRANCH   1  27
TORSDOF 19
ENDMDL
MODEL 2
REMARK VINA RESULT: -8.417344643      1.248      3.735
REMARK  19 active torsions:
REMARK  status: ('A' for Active; 'I' for Inactive)
REMARK    1  A    between atoms: C2_2  and  C3_3 
REMARK    2  A    between atoms: C3_3  and  C4_4 
REMARK    3  A    between atoms: C4_4  and  N1_5 
REMARK    4  A    between atoms: N1_5  and  C5_7 
REMARK    5  A    between atoms: C6_10  and  N3_11 
REMARK    6  A    between atoms: N3_11  and  C7_13 
REMARK    7  A    between atoms: C7_13  and  C8_14 
REMARK    8  A    between atoms: C8_14  and  C9_15 
REMARK    9  A    between atoms: N4_17  and  C11_18 
REMARK   10  A    between atoms: C14_21  and  N5_22 
REMARK   11  A    between atoms: N5_22  and  C15_24 
REMARK   12  A    between atoms: C15_24  and  C16_25 
REMARK   13  A    between atoms: C16_25  and  C17_26 
REMARK   14  A    between atoms: C20_29  and  S1_30 
REMARK   15  A    between atoms: S1_30  and  N6_33 
REMARK   16  A    between atoms: N6_33  and  C21_35 
REMARK   17  A    between atoms: C21_35  and  C22_36 
REMARK   18  A    between atoms: C22_36  and  N7_37 
REMARK       I    between atoms: C23_39  and  N9_41 
REMARK   19  A    between atoms: N9_41  and  N10_43 
ROOT
HETATM    1  C15 UNL     1       5.612  12.427  40.720  1.00  0.00     0.142 C 
ENDROOT
BRANCH   1   2
HETATM    2  N5  UNL     1       5.059  13.470  39.897  1.00  0.00    -0.225 N 
ATOM      3  H5  UNL     1       4.551  14.245  40.322  1.00  0.00     0.177 HD
BRANCH   2   4
HETATM    4  C14 UNL     1       5.210  13.416  38.620  1.00  0.00     0.709 A 
HETATM    5  N4  UNL     1       4.115  13.167  37.880  1.00  0.00    -0.009 N 
HETATM    6  C6  UNL     1       4.311  13.118  36.553  1.00  0.00     0.709 A 
HETATM    7  N2  UNL     1       5.518  13.304  35.967  1.00  0.00    -0.021 N 
HETATM    8  C5  UNL     1       6.592  13.551  36.726  1.00  0.00     0.707 A 
ATOM      9  H2  UNL     1       5.607  13.256  34.952  1.00  0.00     0.203 HD
HETATM   10  N12 UNL     1       6.414  13.605  38.068  1.00  0.00    -0.021 N 
ATOM     11  H12 UNL     1       7.215  13.793  38.670  1.00  0.00     0.203 HD
BRANCH   5  12
HETATM   12  C11 UNL     1       2.818  12.965  38.481  1.00  0.00     0.118 C 
HETATM   13  C12 UNL     1       1.874  14.113  38.196  1.00  0.00     0.034 C 
HETATM   14  C13 UNL     1       2.152  11.702  38.057  1.00  0.00     0.034 C 
ENDBRANCH   5  12
BRANCH   6  15
HETATM   15  N3  UNL     1       3.306  12.883  35.776  1.00  0.00    -0.225 N 
ATOM     16  H3  UNL     1       2.647  12.150  36.038  1.00  0.00     0.177 HD
BRANCH  15  17
HETATM   17  C7  UNL     1       3.076  13.620  34.551  1.00  0.00     0.138 C 
BRANCH  17  18
HETATM   18  C8  UNL     1       2.764  15.060  34.980  1.00  0.00     0.020 C 
BRANCH  18  19
HETATM   19  C9  UNL     1       3.266  15.950  33.861  1.00  0.00    -0.003 C 
HETATM   20  C10 UNL     1       4.770  16.114  33.918  1.00  0.00     0.005 C 
ENDBRANCH  18  19
ENDBRANCH  17  18
ENDBRANCH  15  17
ENDBRANCH   6  15
BRANCH   8  21
HETATM   21  N1  UNL     1       7.780  13.742  36.247  1.00  0.00    -0.225 N 
ATOM     22  H1  UNL     1       7.972  14.637  35.797  1.00  0.00     0.177 HD
BRANCH  21  23
HETATM   23  C4  UNL     1       8.836  12.792  36.305  1.00  0.00     0.138 C 
BRANCH  23  24
HETATM   24  C3  UNL     1       8.598  11.527  35.528  1.00  0.00     0.020 C 
BRANCH  24  25
HETATM   25  C2  UNL     1       9.540  11.312  34.393  1.00  0.00    -0.003 C 
HETATM   26  C1  UNL     1       9.414  10.021  33.667  1.00  0.00     0.005 C 
ENDBRANCH  24  25
ENDBRANCH  23  24
ENDBRANCH  21  23
ENDBRANCH   8  21
ENDBRANCH   2   4
ENDBRANCH   1   2
BRANCH   1  27
HETATM   27  C16 UNL     1       5.088  11.061  40.335  1.00  0.00     0.058 C 
BRANCH  27  28
HETATM   28  C17 UNL     1       4.307  10.560  41.496  1.00  0.00    -0.057 A 
HETATM   29  C18 UNL     1       4.891  10.261  42.704  1.00  0.00     0.009 A 
HETATM   30  C19 UNL     1       4.206   9.795  43.805  1.00  0.00     0.026 A 
HETATM   31  C20 UNL     1       2.839   9.625  43.665  1.00  0.00     0.079 A 
HETATM   32  C24 UNL     1       2.196   9.907  42.478  1.00  0.00     0.026 A 
HETATM   33  C25 UNL     1       2.935  10.371  41.409  1.00  0.00     0.009 A 
BRANCH  31  34
HETATM   34  S1  UNL     1       1.910   9.034  45.031  1.00  0.00     0.258 S 
HETATM   35  O1  UNL     1       2.825   9.033  46.219  1.00  0.00    -0.201 OA
HETATM   36  O2  UNL     1       0.758   9.936  45.332  1.00  0.00    -0.201 OA
BRANCH  34  37
HETATM   37  N6  UNL     1       1.366   7.419  44.744  1.00  0.00    -0.314 N 
ATOM     38  H6  UNL     1       1.566   6.894  43.893  1.00  0.00     0.172 HD
BRANCH  37  39
HETATM   39  C21 UNL     1       0.602   6.903  45.840  1.00  0.00     0.152 C 
BRANCH  39  40
HETATM   40  C22 UNL     1      -0.839   6.780  45.373  1.00  0.00     0.142 C 
BRANCH  40  41
HETATM   41  N7  UNL     1      -1.566   8.021  45.539  1.00  0.00    -0.362 N 
HETATM   42  C23 UNL     1      -1.817   8.704  44.468  1.00  0.00     0.204 C 
HETATM   43  N8  UNL     1      -1.419   8.291  43.176  1.00  0.00    -0.062 NA
HETATM   44  N9  UNL     1      -2.526   9.925  44.584  1.00  0.00    -0.260 N 
ATOM     45  H9  UNL     1      -3.145  10.066  45.383  1.00  0.00     0.191 HD
ATOM     46  H7  UNL     1      -1.866   8.344  46.460  1.00  0.00     0.162 HD
BRANCH  44  47
HETATM   47  N10 UNL     1      -2.399  10.937  43.634  1.00  0.00    -0.247 N 
HETATM   48  N11 UNL     1      -1.261  11.287  43.215  1.00  0.00    -0.331 N 
ATOM     49 2H11 UNL     1      -0.437  10.814  43.585  1.00  0.00     0.178 HD
ATOM     50 1H11 UNL     1      -1.168  12.028  42.520  1.00  0.00     0.178 HD
ATOM     51  H10 UNL     1      -3.234  11.400  43.275  1.00  0.00     0.207 HD
ENDBRANCH  44  47
ENDBRANCH  40  41
ENDBRANCH  39  40
ENDBRANCH  37  39
ENDBRANCH  34  37
ENDBRANCH  31  34
ENDBRANCH  27  28
ENDBRANCH   1  27
TORSDOF 19
ENDMDL
MODEL 3
REMARK VINA RESULT: -8.361362712      2.493      4.282
REMARK  19 active torsions:
REMARK  status: ('A' for Active; 'I' for Inactive)
REMARK    1  A    between atoms: C2_2  and  C3_3 
REMARK    2  A    between atoms: C3_3  and  C4_4 
REMARK    3  A    between atoms: C4_4  and  N1_5 
REMARK    4  A    between atoms: N1_5  and  C5_7 
REMARK    5  A    between atoms: C6_10  and  N3_11 
REMARK    6  A    between atoms: N3_11  and  C7_13 
REMARK    7  A    between atoms: C7_13  and  C8_14 
REMARK    8  A    between atoms: C8_14  and  C9_15 
REMARK    9  A    between atoms: N4_17  and  C11_18 
REMARK   10  A    between atoms: C14_21  and  N5_22 
REMARK   11  A    between atoms: N5_22  and  C15_24 
REMARK   12  A    between atoms: C15_24  and  C16_25 
REMARK   13  A    between atoms: C16_25  and  C17_26 
REMARK   14  A    between atoms: C20_29  and  S1_30 
REMARK   15  A    between atoms: S1_30  and  N6_33 
REMARK   16  A    between atoms: N6_33  and  C21_35 
REMARK   17  A    between atoms: C21_35  and  C22_36 
REMARK   18  A    between atoms: C22_36  and  N7_37 
REMARK       I    between atoms: C23_39  and  N9_41 
REMARK   19  A    between atoms: N9_41  and  N10_43 
ROOT
HETATM    1  C15 UNL     1       6.655  13.503  38.668  1.00  0.00     0.142 C 
ENDROOT
BRANCH   1   2
HETATM    2  N5  UNL     1       7.664  14.095  37.831  1.00  0.00    -0.225 N 
ATOM      3  H5  UNL     1       8.581  14.324  38.215  1.00  0.00     0.177 HD
BRANCH   2   4
HETATM    4  C14 UNL     1       7.402  14.332  36.594  1.00  0.00     0.709 A 
HETATM    5  N4  UNL     1       8.175  13.729  35.674  1.00  0.00    -0.009 N 
HETATM    6  C6  UNL     1       7.873  14.000  34.394  1.00  0.00     0.709 A 
HETATM    7  N2  UNL     1       6.863  14.821  34.021  1.00  0.00    -0.021 N 
HETATM    8  C5  UNL     1       6.108  15.410  34.957  1.00  0.00     0.707 A 
ATOM      9  H2  UNL     1       6.679  14.990  33.032  1.00  0.00     0.203 HD
HETATM   10  N12 UNL     1       6.398  15.148  36.254  1.00  0.00    -0.021 N 
ATOM     11  H12 UNL     1       5.838  15.581  36.987  1.00  0.00     0.203 HD
BRANCH   5  12
HETATM   12  C11 UNL     1       9.258  12.848  36.046  1.00  0.00     0.118 C 
HETATM   13  C12 UNL     1       9.133  11.487  35.396  1.00  0.00     0.034 C 
HETATM   14  C13 UNL     1      10.607  13.392  35.727  1.00  0.00     0.034 C 
ENDBRANCH   5  12
BRANCH   6  15
HETATM   15  N3  UNL     1       8.572  13.456  33.453  1.00  0.00    -0.225 N 
ATOM     16  H3  UNL     1       9.259  12.745  33.703  1.00  0.00     0.177 HD
BRANCH  15  17
HETATM   17  C7  UNL     1       8.417  13.814  32.059  1.00  0.00     0.138 C 
BRANCH  17  18
HETATM   18  C8  UNL     1       9.292  12.828  31.274  1.00  0.00     0.020 C 
BRANCH  18  19
HETATM   19  C9  UNL     1      10.629  12.792  31.987  1.00  0.00    -0.003 C 
HETATM   20  C10 UNL     1      11.180  11.384  32.058  1.00  0.00     0.005 C 
ENDBRANCH  18  19
ENDBRANCH  17  18
ENDBRANCH  15  17
ENDBRANCH   6  15
BRANCH   8  21
HETATM   21  N1  UNL     1       5.124  16.207  34.687  1.00  0.00    -0.225 N 
ATOM     22  H1  UNL     1       5.202  17.177  34.993  1.00  0.00     0.177 HD
BRANCH  21  23
HETATM   23  C4  UNL     1       3.941  15.826  33.996  1.00  0.00     0.138 C 
BRANCH  23  24
HETATM   24  C3  UNL     1       2.887  15.175  34.848  1.00  0.00     0.020 C 
BRANCH  24  25
HETATM   25  C2  UNL     1       2.789  13.696  34.688  1.00  0.00    -0.003 C 
HETATM   26  C1  UNL     1       2.919  12.889  35.931  1.00  0.00     0.005 C 
ENDBRANCH  24  25
ENDBRANCH  23  24
ENDBRANCH  21  23
ENDBRANCH   8  21
ENDBRANCH   2   4
ENDBRANCH   1   2
BRANCH   1  27
HETATM   27  C16 UNL     1       6.076  12.245  38.057  1.00  0.00     0.058 C 
BRANCH  27  28
HETATM   28  C17 UNL     1       5.281  11.580  39.123  1.00  0.00    -0.057 A 
HETATM   29  C18 UNL     1       4.162  10.831  38.849  1.00  0.00     0.009 A 
HETATM   30  C19 UNL     1       3.396  10.198  39.804  1.00  0.00     0.026 A 
HETATM   31  C20 UNL     1       3.800  10.338  41.121  1.00  0.00     0.079 A 
HETATM   32  C24 UNL     1       4.914  11.076  41.459  1.00  0.00     0.026 A 
HETATM   33  C25 UNL     1       5.642  11.688  40.459  1.00  0.00     0.009 A 
BRANCH  31  34
HETATM   34  S1  UNL     1       2.867   9.555  42.385  1.00  0.00     0.258 S 
HETATM   35  O1  UNL     1       3.580   8.285  42.736  1.00  0.00    -0.201 OA
HETATM   36  O2  UNL     1       2.798  10.404  43.611  1.00  0.00    -0.201 OA
BRANCH  34  37
HETATM   37  N6  UNL     1       1.281   9.166  41.818  1.00  0.00    -0.314 N 
ATOM     38  H6  UNL     1       1.078   8.402  41.175  1.00  0.00     0.172 HD
BRANCH  37  39
HETATM   39  C21 UNL     1       0.284  10.043  42.356  1.00  0.00     0.152 C 
BRANCH  39  40
HETATM   40  C22 UNL     1       0.211  11.261  41.451  1.00  0.00     0.142 C 
BRANCH  40  41
HETATM   41  N7  UNL     1       1.160  12.281  41.845  1.00  0.00    -0.362 N 
HETATM   42  C23 UNL     1       1.691  12.987  40.898  1.00  0.00     0.204 C 
HETATM   43  N8  UNL     1       1.385  12.804  39.531  1.00  0.00    -0.062 NA
HETATM   44  N9  UNL     1       2.625  13.997  41.239  1.00  0.00    -0.260 N 
ATOM     45  H9  UNL     1       2.588  14.416  42.168  1.00  0.00     0.191 HD
ATOM     46  H7  UNL     1       1.400  12.436  42.825  1.00  0.00     0.162 HD
BRANCH  44  47
HETATM   47  N10 UNL     1       3.594  14.432  40.335  1.00  0.00    -0.247 N 
HETATM   48  N11 UNL     1       3.277  14.740  39.152  1.00  0.00    -0.331 N 
ATOM     49 2H11 UNL     1       2.300  14.664  38.871  1.00  0.00     0.178 HD
ATOM     50 1H11 UNL     1       3.986  15.058  38.491  1.00  0.00     0.178 HD
ATOM     51  H10 UNL     1       4.567  14.502  40.632  1.00  0.00     0.207 HD
ENDBRANCH  44  47
ENDBRANCH  40  41
ENDBRANCH  39  40
ENDBRANCH  37  39
ENDBRANCH  34  37
ENDBRANCH  31  34
ENDBRANCH  27  28
ENDBRANCH   1  27
TORSDOF 19
ENDMDL
MODEL 4
REMARK VINA RESULT: -8.305523986      2.991      4.587
REMARK  19 active torsions:
REMARK  status: ('A' for Active; 'I' for Inactive)
REMARK    1  A    between atoms: C2_2  and  C3_3 
REMARK    2  A    between atoms: C3_3  and  C4_4 
REMARK    3  A    between atoms: C4_4  and  N1_5 
REMARK    4  A    between atoms: N1_5  and  C5_7 
REMARK    5  A    between atoms: C6_10  and  N3_11 
REMARK    6  A    between atoms: N3_11  and  C7_13 
REMARK    7  A    between atoms: C7_13  and  C8_14 
REMARK    8  A    between atoms: C8_14  and  C9_15 
REMARK    9  A    between atoms: N4_17  and  C11_18 
REMARK   10  A    between atoms: C14_21  and  N5_22 
REMARK   11  A    between atoms: N5_22  and  C15_24 
REMARK   12  A    between atoms: C15_24  and  C16_25 
REMARK   13  A    between atoms: C16_25  and  C17_26 
REMARK   14  A    between atoms: C20_29  and  S1_30 
REMARK   15  A    between atoms: S1_30  and  N6_33 
REMARK   16  A    between atoms: N6_33  and  C21_35 
REMARK   17  A    between atoms: C21_35  and  C22_36 
REMARK   18  A    between atoms: C22_36  and  N7_37 
REMARK       I    between atoms: C23_39  and  N9_41 
REMARK   19  A    between atoms: N9_41  and  N10_43 
ROOT
HETATM    1  C15 UNL     1       7.373  13.657  38.908  1.00  0.00     0.142 C 
ENDROOT
BRANCH   1   2
HETATM    2  N5  UNL     1       8.243  14.255  37.930  1.00  0.00    -0.225 N 
ATOM      3  H5  UNL     1       9.180  14.559  38.193  1.00  0.00     0.177 HD
BRANCH   2   4
HETATM    4  C14 UNL     1       7.829  14.403  36.721  1.00  0.00     0.709 A 
HETATM    5  N4  UNL     1       8.531  13.790  35.751  1.00  0.00    -0.009 N 
HETATM    6  C6  UNL     1       8.070  13.967  34.502  1.00  0.00     0.709 A 
HETATM    7  N2  UNL     1       6.976  14.706  34.205  1.00  0.00    -0.021 N 
HETATM    8  C5  UNL     1       6.295  15.307  35.189  1.00  0.00     0.707 A 
ATOM      9  H2  UNL     1       6.671  14.806  33.237  1.00  0.00     0.203 HD
HETATM   10  N12 UNL     1       6.744  15.139  36.456  1.00  0.00    -0.021 N 
ATOM     11  H12 UNL     1       6.244  15.584  37.225  1.00  0.00     0.203 HD
BRANCH   5  12
HETATM   12  C11 UNL     1       9.701  12.996  36.042  1.00  0.00     0.118 C 
HETATM   13  C12 UNL     1       9.657  11.646  35.358  1.00  0.00     0.034 C 
HETATM   14  C13 UNL     1      10.982  13.661  35.672  1.00  0.00     0.034 C 
ENDBRANCH   5  12
BRANCH   6  15
HETATM   15  N3  UNL     1       8.692  13.408  33.517  1.00  0.00    -0.225 N 
ATOM     16  H3  UNL     1       9.336  12.642  33.716  1.00  0.00     0.177 HD
BRANCH  15  17
HETATM   17  C7  UNL     1       8.512  13.824  32.142  1.00  0.00     0.138 C 
BRANCH  17  18
HETATM   18  C8  UNL     1       9.246  12.782  31.289  1.00  0.00     0.020 C 
BRANCH  18  19
HETATM   19  C9  UNL     1       9.453  13.421  29.931  1.00  0.00    -0.003 C 
HETATM   20  C10 UNL     1       8.268  13.180  29.019  1.00  0.00     0.005 C 
ENDBRANCH  18  19
ENDBRANCH  17  18
ENDBRANCH  15  17
ENDBRANCH   6  15
BRANCH   8  21
HETATM   21  N1  UNL     1       5.239  16.030  34.993  1.00  0.00    -0.225 N 
ATOM     22  H1  UNL     1       5.026  16.754  35.679  1.00  0.00     0.177 HD
BRANCH  21  23
HETATM   23  C4  UNL     1       4.354  15.885  33.890  1.00  0.00     0.138 C 
BRANCH  23  24
HETATM   24  C3  UNL     1       2.907  15.699  34.253  1.00  0.00     0.020 C 
BRANCH  24  25
HETATM   25  C2  UNL     1       2.657  14.642  35.274  1.00  0.00    -0.003 C 
HETATM   26  C1  UNL     1       2.540  13.250  34.766  1.00  0.00     0.005 C 
ENDBRANCH  24  25
ENDBRANCH  23  24
ENDBRANCH  21  23
ENDBRANCH   8  21
ENDBRANCH   2   4
ENDBRANCH   1   2
BRANCH   1  27
HETATM   27  C16 UNL     1       7.211  12.168  38.690  1.00  0.00     0.058 C 
BRANCH  27  28
HETATM   28  C17 UNL     1       5.791  11.846  38.985  1.00  0.00    -0.057 A 
HETATM   29  C18 UNL     1       4.782  12.057  38.076  1.00  0.00     0.009 A 
HETATM   30  C19 UNL     1       3.454  11.773  38.307  1.00  0.00     0.026 A 
HETATM   31  C20 UNL     1       3.136  11.238  39.544  1.00  0.00     0.079 A 
HETATM   32  C24 UNL     1       4.103  11.004  40.498  1.00  0.00     0.026 A 
HETATM   33  C25 UNL     1       5.417  11.308  40.209  1.00  0.00     0.009 A 
BRANCH  31  34
HETATM   34  S1  UNL     1       1.461  10.854  39.900  1.00  0.00     0.258 S 
HETATM   35  O1  UNL     1       0.816  12.112  40.395  1.00  0.00    -0.201 OA
HETATM   36  O2  UNL     1       0.735  10.409  38.674  1.00  0.00    -0.201 OA
BRANCH  34  37
HETATM   37  N6  UNL     1       1.364   9.652  41.140  1.00  0.00    -0.314 N 
ATOM     38  H6  UNL     1       1.797   8.732  41.075  1.00  0.00     0.172 HD
BRANCH  37  39
HETATM   39  C21 UNL     1       0.603  10.099  42.268  1.00  0.00     0.152 C 
BRANCH  39  40
HETATM   40  C22 UNL     1       1.268   9.543  43.516  1.00  0.00     0.142 C 
BRANCH  40  41
HETATM   41  N7  UNL     1       0.379   8.671  44.255  1.00  0.00    -0.362 N 
HETATM   42  C23 UNL     1       0.718   8.380  45.471  1.00  0.00     0.204 C 
HETATM   43  N8  UNL     1       1.891   8.871  46.086  1.00  0.00    -0.062 NA
HETATM   44  N9  UNL     1      -0.124   7.531  46.231  1.00  0.00    -0.260 N 
ATOM     45  H9  UNL     1      -1.115   7.473  45.996  1.00  0.00     0.191 HD
ATOM     46  H7  UNL     1      -0.476   8.302  43.837  1.00  0.00     0.162 HD
BRANCH  44  47
HETATM   47  N10 UNL     1       0.369   6.772  47.292  1.00  0.00    -0.247 N 
HETATM   48  N11 UNL     1      -0.382   6.445  48.253  1.00  0.00    -0.331 N 
ATOM     49 2H11 UNL     1      -1.356   6.748  48.238  1.00  0.00     0.178 HD
ATOM     50 1H11 UNL     1      -0.021   5.891  49.029  1.00  0.00     0.178 HD
ATOM     51  H10 UNL     1       1.346   6.479  47.292  1.00  0.00     0.207 HD
ENDBRANCH  44  47
ENDBRANCH  40  41
ENDBRANCH  39  40
ENDBRANCH  37  39
ENDBRANCH  34  37
ENDBRANCH  31  34
ENDBRANCH  27  28
ENDBRANCH   1  27
TORSDOF 19
ENDMDL
MODEL 5
REMARK VINA RESULT: -8.272991732      2.083      4.547
REMARK  19 active torsions:
REMARK  status: ('A' for Active; 'I' for Inactive)
REMARK    1  A    between atoms: C2_2  and  C3_3 
REMARK    2  A    between atoms: C3_3  and  C4_4 
REMARK    3  A    between atoms: C4_4  and  N1_5 
REMARK    4  A    between atoms: N1_5  and  C5_7 
REMARK    5  A    between atoms: C6_10  and  N3_11 
REMARK    6  A    between atoms: N3_11  and  C7_13 
REMARK    7  A    between atoms: C7_13  and  C8_14 
REMARK    8  A    between atoms: C8_14  and  C9_15 
REMARK    9  A    between atoms: N4_17  and  C11_18 
REMARK   10  A    between atoms: C14_21  and  N5_22 
REMARK   11  A    between atoms: N5_22  and  C15_24 
REMARK   12  A    between atoms: C15_24  and  C16_25 
REMARK   13  A    between atoms: C16_25  and  C17_26 
REMARK   14  A    between atoms: C20_29  and  S1_30 
REMARK   15  A    between atoms: S1_30  and  N6_33 
REMARK   16  A    between atoms: N6_33  and  C21_35 
REMARK   17  A    between atoms: C21_35  and  C22_36 
REMARK   18  A    between atoms: C22_36  and  N7_37 
REMARK       I    between atoms: C23_39  and  N9_41 
REMARK   19  A    between atoms: N9_41  and  N10_43 
ROOT
HETATM    1  C15 UNL     1       4.435  11.004  42.991  1.00  0.00     0.142 C 
ENDROOT
BRANCH   1   2
HETATM    2  N5  UNL     1       4.134  10.810  41.598  1.00  0.00    -0.225 N 
ATOM      3  H5  UNL     1       3.831   9.897  41.259  1.00  0.00     0.177 HD
BRANCH   2   4
HETATM    4  C14 UNL     1       4.250  11.797  40.781  1.00  0.00     0.709 A 
HETATM    5  N4  UNL     1       3.197  12.070  39.991  1.00  0.00    -0.009 N 
HETATM    6  C6  UNL     1       3.354  13.107  39.152  1.00  0.00     0.709 A 
HETATM    7  N2  UNL     1       4.485  13.848  39.082  1.00  0.00    -0.021 N 
HETATM    8  C5  UNL     1       5.520  13.556  39.879  1.00  0.00     0.707 A 
ATOM      9  H2  UNL     1       4.548  14.626  38.424  1.00  0.00     0.203 HD
HETATM   10  N12 UNL     1       5.379  12.513  40.733  1.00  0.00    -0.021 N 
ATOM     11  H12 UNL     1       6.151  12.269  41.353  1.00  0.00     0.203 HD
BRANCH   5  12
HETATM   12  C11 UNL     1       1.979  11.295  40.047  1.00  0.00     0.118 C 
HETATM   13  C12 UNL     1       0.837  12.074  40.660  1.00  0.00     0.034 C 
HETATM   14  C13 UNL     1       1.534  10.785  38.721  1.00  0.00     0.034 C 
ENDBRANCH   5  12
BRANCH   6  15
HETATM   15  N3  UNL     1       2.384  13.430  38.362  1.00  0.00    -0.225 N 
ATOM     16  H3  UNL     1       1.436  13.148  38.611  1.00  0.00     0.177 HD
BRANCH  15  17
HETATM   17  C7  UNL     1       2.589  14.176  37.139  1.00  0.00     0.138 C 
BRANCH  17  18
HETATM   18  C8  UNL     1       1.884  13.376  36.036  1.00  0.00     0.020 C 
BRANCH  18  19
HETATM   19  C9  UNL     1       2.701  13.585  34.777  1.00  0.00    -0.003 C 
HETATM   20  C10 UNL     1       3.006  15.051  34.553  1.00  0.00     0.005 C 
ENDBRANCH  18  19
ENDBRANCH  17  18
ENDBRANCH  15  17
ENDBRANCH   6  15
BRANCH   8  21
HETATM   21  N1  UNL     1       6.635  14.213  39.877  1.00  0.00    -0.225 N 
ATOM     22  H1  UNL     1       6.653  15.117  40.348  1.00  0.00     0.177 HD
BRANCH  21  23
HETATM   23  C4  UNL     1       7.836  13.763  39.264  1.00  0.00     0.138 C 
BRANCH  23  24
HETATM   24  C3  UNL     1       7.824  13.765  37.761  1.00  0.00     0.020 C 
BRANCH  24  25
HETATM   25  C2  UNL     1       7.905  12.413  37.139  1.00  0.00    -0.003 C 
HETATM   26  C1  UNL     1       7.871  11.256  38.073  1.00  0.00     0.005 C 
ENDBRANCH  24  25
ENDBRANCH  23  24
ENDBRANCH  21  23
ENDBRANCH   8  21
ENDBRANCH   2   4
ENDBRANCH   1   2
BRANCH   1  27
HETATM   27  C16 UNL     1       5.007   9.756  43.628  1.00  0.00     0.058 C 
BRANCH  27  28
HETATM   28  C17 UNL     1       3.860   9.002  44.197  1.00  0.00    -0.057 A 
HETATM   29  C18 UNL     1       3.215   9.395  45.346  1.00  0.00     0.009 A 
HETATM   30  C19 UNL     1       2.149   8.728  45.907  1.00  0.00     0.026 A 
HETATM   31  C20 UNL     1       1.712   7.587  45.255  1.00  0.00     0.079 A 
HETATM   32  C24 UNL     1       2.319   7.142  44.099  1.00  0.00     0.026 A 
HETATM   33  C25 UNL     1       3.382   7.853  43.583  1.00  0.00     0.009 A 
BRANCH  31  34
HETATM   34  S1  UNL     1       0.358   6.691  45.919  1.00  0.00     0.258 S 
HETATM   35  O1  UNL     1       0.345   5.350  45.250  1.00  0.00    -0.201 OA
HETATM   36  O2  UNL     1       0.519   6.476  47.388  1.00  0.00    -0.201 OA
BRANCH  34  37
HETATM   37  N6  UNL     1      -1.132   7.499  45.578  1.00  0.00    -0.314 N 
ATOM     38  H6  UNL     1      -1.630   8.082  46.250  1.00  0.00     0.172 HD
BRANCH  37  39
HETATM   39  C21 UNL     1      -1.585   7.256  44.242  1.00  0.00     0.152 C 
BRANCH  39  40
HETATM   40  C22 UNL     1      -1.657   8.597  43.532  1.00  0.00     0.142 C 
BRANCH  40  41
HETATM   41  N7  UNL     1      -1.077   9.658  44.328  1.00  0.00    -0.362 N 
HETATM   42  C23 UNL     1      -1.877  10.591  44.736  1.00  0.00     0.204 C 
HETATM   43  N8  UNL     1      -3.258  10.611  44.441  1.00  0.00    -0.062 NA
HETATM   44  N9  UNL     1      -1.352  11.650  45.519  1.00  0.00    -0.260 N 
ATOM     45  H9  UNL     1      -0.503  11.492  46.062  1.00  0.00     0.191 HD
ATOM     46  H7  UNL     1      -0.082   9.670  44.557  1.00  0.00     0.162 HD
BRANCH  44  47
HETATM   47  N10 UNL     1      -1.966  12.900  45.564  1.00  0.00    -0.247 N 
HETATM   48  N11 UNL     1      -1.588  13.773  46.394  1.00  0.00    -0.331 N 
ATOM     49 2H11 UNL     1      -0.825  13.544  47.031  1.00  0.00     0.178 HD
ATOM     50 1H11 UNL     1      -2.037  14.687  46.427  1.00  0.00     0.178 HD
ATOM     51  H10 UNL     1      -2.728  13.112  44.920  1.00  0.00     0.207 HD
ENDBRANCH  44  47
ENDBRANCH  40  41
ENDBRANCH  39  40
ENDBRANCH  37  39
ENDBRANCH  34  37
ENDBRANCH  31  34
ENDBRANCH  27  28
ENDBRANCH   1  27
TORSDOF 19
ENDMDL
