MODEL 1
REMARK VINA RESULT: -5.751120235      0.000      0.000
REMARK  19 active torsions:
REMARK  status: ('A' for Active; 'I' for Inactive)
REMARK    1  A    between atoms: C3_5  and  C4_6 
REMARK    2  A    between atoms: C4_6  and  C5_7 
REMARK    3  A    between atoms: C5_7  and  C6_8 
REMARK    4  A    between atoms: C6_8  and  C7_9 
REMARK    5  A    between atoms: C7_9  and  N2_10 
REMARK    6  A    between atoms: C9_18  and  C10_19 
REMARK    7  A    between atoms: C10_19  and  C11_20 
REMARK    8  A    between atoms: C11_20  and  C12_21 
REMARK    9  A    between atoms: C12_21  and  C13_22 
REMARK   10  A    between atoms: C13_22  and  N4_23 
REMARK   11  A    between atoms: C15_31  and  C16_32 
REMARK   12  A    between atoms: C16_32  and  C17_33 
REMARK   13  A    between atoms: C22_38  and  C23_39 
REMARK   14  A    between atoms: C23_39  and  O4_40 
REMARK   15  A    between atoms: C25_46  and  C26_47 
REMARK   16  A    between atoms: C26_47  and  C27_48 
REMARK   17  A    between atoms: C27_48  and  C28_49 
REMARK   18  A    between atoms: C28_49  and  C29_50 
REMARK   19  A    between atoms: C29_50  and  N7_51 
ROOT
HETATM    1  C1  UNL     1      -6.015   5.310  43.353  1.00  0.00     0.153 C 
HETATM    2  N1  UNL     1      -4.570   5.405  43.598  1.00  0.00    -0.341 N 
HETATM    3  C2  UNL     1      -3.842   6.224  42.702  1.00  0.00     0.243 C 
HETATM    4  O1  UNL     1      -4.441   7.187  42.082  1.00  0.00    -0.271 OA
HETATM    5  C3  UNL     1      -2.413   6.130  42.353  1.00  0.00     0.176 C 
HETATM    6  N3  UNL     1      -1.687   7.382  42.466  1.00  0.00    -0.346 N 
ATOM      7  H3  UNL     1      -1.157   7.642  41.634  1.00  0.00     0.163 HD
HETATM    8  C8  UNL     1      -1.592   8.278  43.505  1.00  0.00     0.241 C 
HETATM    9  O2  UNL     1      -2.007   9.485  43.312  1.00  0.00    -0.271 OA
HETATM   10  C9  UNL     1      -1.061   8.092  44.905  1.00  0.00     0.176 C 
HETATM   11  N5  UNL     1      -0.261   6.923  45.032  1.00  0.00    -0.346 N 
ATOM     12  H5  UNL     1       0.662   6.973  44.602  1.00  0.00     0.163 HD
HETATM   13  C14 UNL     1      -0.571   5.696  45.676  1.00  0.00     0.241 C 
HETATM   14  O3  UNL     1      -0.124   4.663  45.048  1.00  0.00    -0.271 OA
HETATM   15  C15 UNL     1      -1.299   5.476  46.901  1.00  0.00     0.180 C 
HETATM   16  N6  UNL     1      -2.749   5.588  46.831  1.00  0.00    -0.346 N 
ATOM     17  H6  UNL     1      -3.203   5.592  47.745  1.00  0.00     0.163 HD
HETATM   18  C24 UNL     1      -3.628   5.690  45.781  1.00  0.00     0.241 C 
HETATM   19  O5  UNL     1      -4.337   6.773  45.738  1.00  0.00    -0.271 OA
HETATM   20  C25 UNL     1      -3.894   4.734  44.673  1.00  0.00     0.178 C 
ENDROOT
BRANCH  15  21
HETATM   21  C16 UNL     1      -1.019   4.242  47.679  1.00  0.00     0.074 C 
BRANCH  21  22
HETATM   22  C17 UNL     1      -0.223   4.290  48.885  1.00  0.00    -0.047 A 
HETATM   23  C18 UNL     1       1.068   3.789  48.874  1.00  0.00     0.008 A 
HETATM   24  C19 UNL     1       1.902   3.781  49.975  1.00  0.00     0.001 A 
HETATM   25  C20 UNL     1       1.457   4.287  51.155  1.00  0.00     0.001 A 
HETATM   26  C21 UNL     1       0.177   4.793  51.205  1.00  0.00     0.010 A 
HETATM   27  C22 UNL     1      -0.665   4.798  50.083  1.00  0.00    -0.028 A 
BRANCH  27  28
HETATM   28  C23 UNL     1      -2.016   5.359  50.300  1.00  0.00     0.203 C 
BRANCH  28  29
HETATM   29  O4  UNL     1      -2.071   6.709  49.907  1.00  0.00    -0.396 OA
ATOM     30  H4  UNL     1      -2.686   6.831  49.193  1.00  0.00     0.209 HD
ENDBRANCH  28  29
ENDBRANCH  27  28
ENDBRANCH  21  22
ENDBRANCH  15  21
BRANCH  10  31
HETATM   31  C10 UNL     1      -0.078   9.275  45.086  1.00  0.00     0.035 C 
BRANCH  31  32
HETATM   32  C11 UNL     1       1.272   9.029  44.560  1.00  0.00     0.004 C 
BRANCH  32  33
HETATM   33  C12 UNL     1       1.882  10.030  43.653  1.00  0.00     0.027 C 
BRANCH  33  34
HETATM   34  C13 UNL     1       1.372  10.096  42.260  1.00  0.00     0.229 C 
BRANCH  34  35
HETATM   35  N4  UNL     1       0.353  11.039  41.969  1.00  0.00    -0.079 N 
ATOM     36  H43 UNL     1      -0.238  11.158  42.791  1.00  0.00     0.274 HD
ATOM     37  H42 UNL     1       0.768  11.968  41.892  1.00  0.00     0.274 HD
ATOM     38  H41 UNL     1      -0.237  10.869  41.154  1.00  0.00     0.274 HD
ENDBRANCH  34  35
ENDBRANCH  33  34
ENDBRANCH  32  33
ENDBRANCH  31  32
ENDBRANCH  10  31
BRANCH  20  39
HETATM   39  C26 UNL     1      -4.367   3.413  45.079  1.00  0.00     0.035 C 
BRANCH  39  40
HETATM   40  C27 UNL     1      -3.682   2.167  44.799  1.00  0.00     0.004 C 
BRANCH  40  41
HETATM   41  C28 UNL     1      -2.425   2.235  43.964  1.00  0.00     0.027 C 
BRANCH  41  42
HETATM   42  C29 UNL     1      -1.488   1.190  44.599  1.00  0.00     0.229 C 
BRANCH  42  43
HETATM   43  N7  UNL     1      -0.419   1.815  45.317  1.00  0.00    -0.079 N 
ATOM     44  H73 UNL     1       0.489   1.585  44.911  1.00  0.00     0.274 HD
ATOM     45  H72 UNL     1      -0.407   2.824  45.166  1.00  0.00     0.274 HD
ATOM     46  H71 UNL     1      -0.453   1.586  46.310  1.00  0.00     0.274 HD
ENDBRANCH  42  43
ENDBRANCH  41  42
ENDBRANCH  40  41
ENDBRANCH  39  40
ENDBRANCH  20  39
BRANCH   5  47
HETATM   47  C4  UNL     1      -2.428   5.684  40.869  1.00  0.00     0.035 C 
BRANCH  47  48
HETATM   48  C5  UNL     1      -2.720   4.233  40.753  1.00  0.00     0.004 C 
BRANCH  48  49
HETATM   49  C6  UNL     1      -1.858   3.547  39.706  1.00  0.00     0.027 C 
BRANCH  49  50
HETATM   50  C7  UNL     1      -2.594   3.366  38.396  1.00  0.00     0.229 C 
BRANCH  50  51
HETATM   51  N2  UNL     1      -1.614   3.521  37.338  1.00  0.00    -0.079 N 
ATOM     52  H23 UNL     1      -0.701   3.825  37.678  1.00  0.00     0.274 HD
ATOM     53  H22 UNL     1      -1.313   2.633  36.937  1.00  0.00     0.274 HD
ATOM     54  H21 UNL     1      -2.019   4.156  36.651  1.00  0.00     0.274 HD
ENDBRANCH  50  51
ENDBRANCH  49  50
ENDBRANCH  48  49
ENDBRANCH  47  48
ENDBRANCH   5  47
TORSDOF 19
ENDMDL
MODEL 2
REMARK VINA RESULT: -5.678209529     14.745     19.808
REMARK  19 active torsions:
REMARK  status: ('A' for Active; 'I' for Inactive)
REMARK    1  A    between atoms: C3_5  and  C4_6 
REMARK    2  A    between atoms: C4_6  and  C5_7 
REMARK    3  A    between atoms: C5_7  and  C6_8 
REMARK    4  A    between atoms: C6_8  and  C7_9 
REMARK    5  A    between atoms: C7_9  and  N2_10 
REMARK    6  A    between atoms: C9_18  and  C10_19 
REMARK    7  A    between atoms: C10_19  and  C11_20 
REMARK    8  A    between atoms: C11_20  and  C12_21 
REMARK    9  A    between atoms: C12_21  and  C13_22 
REMARK   10  A    between atoms: C13_22  and  N4_23 
REMARK   11  A    between atoms: C15_31  and  C16_32 
REMARK   12  A    between atoms: C16_32  and  C17_33 
REMARK   13  A    between atoms: C22_38  and  C23_39 
REMARK   14  A    between atoms: C23_39  and  O4_40 
REMARK   15  A    between atoms: C25_46  and  C26_47 
REMARK   16  A    between atoms: C26_47  and  C27_48 
REMARK   17  A    between atoms: C27_48  and  C28_49 
REMARK   18  A    between atoms: C28_49  and  C29_50 
REMARK   19  A    between atoms: C29_50  and  N7_51 
ROOT
HETATM    1  C1  UNL     1      13.051  12.404  33.040  1.00  0.00     0.153 C 
HETATM    2  N1  UNL     1      11.614  12.661  32.887  1.00  0.00    -0.341 N 
HETATM    3  C2  UNL     1      10.775  12.099  33.880  1.00  0.00     0.243 C 
HETATM    4  O1  UNL     1      11.250  11.851  35.056  1.00  0.00    -0.271 OA
HETATM    5  C3  UNL     1       9.352  11.733  33.756  1.00  0.00     0.176 C 
HETATM    6  N3  UNL     1       8.505  12.268  34.807  1.00  0.00    -0.346 N 
ATOM      7  H3  UNL     1       7.924  11.574  35.277  1.00  0.00     0.163 HD
HETATM    8  C8  UNL     1       8.353  13.551  35.276  1.00  0.00     0.241 C 
HETATM    9  O2  UNL     1       8.634  13.787  36.515  1.00  0.00    -0.271 OA
HETATM   10  C9  UNL     1       7.892  14.799  34.566  1.00  0.00     0.176 C 
HETATM   11  N5  UNL     1       7.222  14.514  33.345  1.00  0.00    -0.346 N 
ATOM     12  H5  UNL     1       6.284  14.123  33.439  1.00  0.00     0.163 HD
HETATM   13  C14 UNL     1       7.678  14.697  32.013  1.00  0.00     0.241 C 
HETATM   14  O3  UNL     1       7.319  13.750  31.215  1.00  0.00    -0.271 OA
HETATM   15  C15 UNL     1       8.466  15.774  31.467  1.00  0.00     0.180 C 
HETATM   16  N6  UNL     1       9.894  15.753  31.753  1.00  0.00    -0.346 N 
ATOM     17  H6  UNL     1      10.375  16.614  31.493  1.00  0.00     0.163 HD
HETATM   18  C24 UNL     1      10.721  14.805  32.303  1.00  0.00     0.241 C 
HETATM   19  O5  UNL     1      11.313  15.140  33.406  1.00  0.00    -0.271 OA
HETATM   20  C25 UNL     1      11.047  13.437  31.820  1.00  0.00     0.178 C 
ENDROOT
BRANCH  15  21
HETATM   21  C16 UNL     1       8.341  16.079  30.018  1.00  0.00     0.074 C 
BRANCH  21  22
HETATM   22  C17 UNL     1       7.847  17.362  29.570  1.00  0.00    -0.047 A 
HETATM   23  C18 UNL     1       8.204  18.510  30.256  1.00  0.00     0.008 A 
HETATM   24  C19 UNL     1       7.777  19.778  29.912  1.00  0.00     0.001 A 
HETATM   25  C20 UNL     1       6.956  19.940  28.842  1.00  0.00     0.001 A 
HETATM   26  C21 UNL     1       6.579  18.820  28.135  1.00  0.00     0.010 A 
HETATM   27  C22 UNL     1       7.016  17.535  28.490  1.00  0.00    -0.028 A 
BRANCH  27  28
HETATM   28  C23 UNL     1       6.510  16.432  27.644  1.00  0.00     0.203 C 
BRANCH  28  29
HETATM   29  O4  UNL     1       5.503  15.709  28.309  1.00  0.00    -0.396 OA
ATOM     30  H4  UNL     1       4.988  15.199  27.694  1.00  0.00     0.209 HD
ENDBRANCH  28  29
ENDBRANCH  27  28
ENDBRANCH  21  22
ENDBRANCH  15  21
BRANCH  10  31
HETATM   31  C10 UNL     1       6.799  15.373  35.502  1.00  0.00     0.035 C 
BRANCH  31  32
HETATM   32  C11 UNL     1       5.438  15.321  34.948  1.00  0.00     0.004 C 
BRANCH  32  33
HETATM   33  C12 UNL     1       4.397  14.557  35.676  1.00  0.00     0.027 C 
BRANCH  33  34
HETATM   34  C13 UNL     1       3.130  14.266  34.959  1.00  0.00     0.229 C 
BRANCH  34  35
HETATM   35  N4  UNL     1       2.879  12.925  34.570  1.00  0.00    -0.079 N 
ATOM     36  H43 UNL     1       2.830  12.875  33.553  1.00  0.00     0.274 HD
ATOM     37  H42 UNL     1       3.710  12.362  34.751  1.00  0.00     0.274 HD
ATOM     38  H41 UNL     1       2.064  12.456  34.968  1.00  0.00     0.274 HD
ENDBRANCH  34  35
ENDBRANCH  33  34
ENDBRANCH  32  33
ENDBRANCH  31  32
ENDBRANCH  10  31
BRANCH  20  39
HETATM   39  C26 UNL     1      11.667  13.365  30.499  1.00  0.00     0.035 C 
BRANCH  39  40
HETATM   40  C27 UNL     1      10.946  13.396  29.243  1.00  0.00     0.004 C 
BRANCH  40  41
HETATM   41  C28 UNL     1       9.678  12.580  29.147  1.00  0.00     0.027 C 
BRANCH  41  42
HETATM   42  C29 UNL     1       8.901  13.218  27.980  1.00  0.00     0.229 C 
BRANCH  42  43
HETATM   43  N7  UNL     1       7.487  13.087  28.160  1.00  0.00    -0.079 N 
ATOM     44  H73 UNL     1       7.128  13.782  28.816  1.00  0.00     0.274 HD
ATOM     45  H72 UNL     1       6.975  13.379  27.327  1.00  0.00     0.274 HD
ATOM     46  H71 UNL     1       7.233  12.140  28.442  1.00  0.00     0.274 HD
ENDBRANCH  42  43
ENDBRANCH  41  42
ENDBRANCH  40  41
ENDBRANCH  39  40
ENDBRANCH  20  39
BRANCH   5  47
HETATM   47  C4  UNL     1       9.363  10.187  33.850  1.00  0.00     0.035 C 
BRANCH  47  48
HETATM   48  C5  UNL     1      10.476   9.613  33.052  1.00  0.00     0.004 C 
BRANCH  48  49
HETATM   49  C6  UNL     1      10.774   8.169  33.422  1.00  0.00     0.027 C 
BRANCH  49  50
HETATM   50  C7  UNL     1       9.510   7.363  33.620  1.00  0.00     0.229 C 
BRANCH  50  51
HETATM   51  N2  UNL     1       9.716   6.541  34.797  1.00  0.00    -0.079 N 
ATOM     52  H23 UNL     1      10.389   5.789  34.649  1.00  0.00     0.274 HD
ATOM     53  H22 UNL     1      10.222   7.023  35.540  1.00  0.00     0.274 HD
ATOM     54  H21 UNL     1       8.797   6.207  35.089  1.00  0.00     0.274 HD
ENDBRANCH  50  51
ENDBRANCH  49  50
ENDBRANCH  48  49
ENDBRANCH  47  48
ENDBRANCH   5  47
TORSDOF 19
ENDMDL
MODEL 3
REMARK VINA RESULT: -5.631218956      1.058      1.465
REMARK  19 active torsions:
REMARK  status: ('A' for Active; 'I' for Inactive)
REMARK    1  A    between atoms: C3_5  and  C4_6 
REMARK    2  A    between atoms: C4_6  and  C5_7 
REMARK    3  A    between atoms: C5_7  and  C6_8 
REMARK    4  A    between atoms: C6_8  and  C7_9 
REMARK    5  A    between atoms: C7_9  and  N2_10 
REMARK    6  A    between atoms: C9_18  and  C10_19 
REMARK    7  A    between atoms: C10_19  and  C11_20 
REMARK    8  A    between atoms: C11_20  and  C12_21 
REMARK    9  A    between atoms: C12_21  and  C13_22 
REMARK   10  A    between atoms: C13_22  and  N4_23 
REMARK   11  A    between atoms: C15_31  and  C16_32 
REMARK   12  A    between atoms: C16_32  and  C17_33 
REMARK   13  A    between atoms: C22_38  and  C23_39 
REMARK   14  A    between atoms: C23_39  and  O4_40 
REMARK   15  A    between atoms: C25_46  and  C26_47 
REMARK   16  A    between atoms: C26_47  and  C27_48 
REMARK   17  A    between atoms: C27_48  and  C28_49 
REMARK   18  A    between atoms: C28_49  and  C29_50 
REMARK   19  A    between atoms: C29_50  and  N7_51 
ROOT
HETATM    1  C1  UNL     1      -5.750   4.857  43.732  1.00  0.00     0.153 C 
HETATM    2  N1  UNL     1      -4.321   5.156  43.890  1.00  0.00    -0.341 N 
HETATM    3  C2  UNL     1      -3.751   5.999  42.905  1.00  0.00     0.243 C 
HETATM    4  O1  UNL     1      -4.501   6.830  42.260  1.00  0.00    -0.271 OA
HETATM    5  C3  UNL     1      -2.340   6.067  42.484  1.00  0.00     0.176 C 
HETATM    6  N3  UNL     1      -1.783   7.408  42.478  1.00  0.00    -0.346 N 
ATOM      7  H3  UNL     1      -1.332   7.675  41.603  1.00  0.00     0.163 HD
HETATM    8  C8  UNL     1      -1.760   8.378  43.452  1.00  0.00     0.241 C 
HETATM    9  O2  UNL     1      -2.341   9.505  43.206  1.00  0.00    -0.271 OA
HETATM   10  C9  UNL     1      -1.144   8.361  44.829  1.00  0.00     0.176 C 
HETATM   11  N5  UNL     1      -0.191   7.318  44.985  1.00  0.00    -0.346 N 
ATOM     12  H5  UNL     1       0.696   7.457  44.502  1.00  0.00     0.163 HD
HETATM   13  C14 UNL     1      -0.304   6.109  45.721  1.00  0.00     0.241 C 
HETATM   14  O3  UNL     1       0.247   5.101  45.136  1.00  0.00    -0.271 OA
HETATM   15  C15 UNL     1      -0.938   5.882  46.996  1.00  0.00     0.180 C 
HETATM   16  N6  UNL     1      -2.392   5.800  47.000  1.00  0.00    -0.346 N 
ATOM     17  H6  UNL     1      -2.799   5.809  47.935  1.00  0.00     0.163 HD
HETATM   18  C24 UNL     1      -3.325   5.713  45.996  1.00  0.00     0.241 C 
HETATM   19  O5  UNL     1      -4.173   6.689  45.923  1.00  0.00    -0.271 OA
HETATM   20  C25 UNL     1      -3.512   4.656  44.967  1.00  0.00     0.178 C 
ENDROOT
BRANCH  15  21
HETATM   21  C16 UNL     1      -0.460   4.753  47.834  1.00  0.00     0.074 C 
BRANCH  21  22
HETATM   22  C17 UNL     1      -0.221   4.927  49.249  1.00  0.00    -0.047 A 
HETATM   23  C18 UNL     1      -0.609   6.103  49.868  1.00  0.00     0.008 A 
HETATM   24  C19 UNL     1      -0.417   6.368  51.211  1.00  0.00     0.001 A 
HETATM   25  C20 UNL     1       0.188   5.439  51.996  1.00  0.00     0.001 A 
HETATM   26  C21 UNL     1       0.589   4.257  51.414  1.00  0.00     0.010 A 
HETATM   27  C22 UNL     1       0.391   3.994  50.051  1.00  0.00    -0.028 A 
BRANCH  27  28
HETATM   28  C23 UNL     1       0.892   2.688  49.572  1.00  0.00     0.203 C 
BRANCH  28  29
HETATM   29  O4  UNL     1       2.282   2.729  49.357  1.00  0.00    -0.396 OA
ATOM     30  H4  UNL     1       2.757   2.549  50.160  1.00  0.00     0.209 HD
ENDBRANCH  28  29
ENDBRANCH  27  28
ENDBRANCH  21  22
ENDBRANCH  15  21
BRANCH  10  31
HETATM   31  C10 UNL     1      -0.321   9.672  44.881  1.00  0.00     0.035 C 
BRANCH  31  32
HETATM   32  C11 UNL     1       1.112   9.500  44.604  1.00  0.00     0.004 C 
BRANCH  32  33
HETATM   33  C12 UNL     1       1.710  10.210  43.447  1.00  0.00     0.027 C 
BRANCH  33  34
HETATM   34  C13 UNL     1       0.973  10.168  42.159  1.00  0.00     0.229 C 
BRANCH  34  35
HETATM   35  N4  UNL     1       0.073  11.227  41.873  1.00  0.00    -0.079 N 
ATOM     36  H43 UNL     1      -0.803  10.838  41.525  1.00  0.00     0.274 HD
ATOM     37  H42 UNL     1      -0.237  11.648  42.749  1.00  0.00     0.274 HD
ATOM     38  H41 UNL     1       0.387  11.963  41.240  1.00  0.00     0.274 HD
ENDBRANCH  34  35
ENDBRANCH  33  34
ENDBRANCH  32  33
ENDBRANCH  31  32
ENDBRANCH  10  31
BRANCH  20  39
HETATM   39  C26 UNL     1      -3.785   3.316  45.480  1.00  0.00     0.035 C 
BRANCH  39  40
HETATM   40  C27 UNL     1      -2.860   2.202  45.420  1.00  0.00     0.004 C 
BRANCH  40  41
HETATM   41  C28 UNL     1      -2.316   1.820  44.063  1.00  0.00     0.027 C 
BRANCH  41  42
HETATM   42  C29 UNL     1      -0.788   1.782  44.261  1.00  0.00     0.229 C 
BRANCH  42  43
HETATM   43  N7  UNL     1      -0.432   2.033  45.624  1.00  0.00    -0.079 N 
ATOM     44  H73 UNL     1       0.215   2.818  45.703  1.00  0.00     0.274 HD
ATOM     45  H72 UNL     1      -1.215   2.421  46.150  1.00  0.00     0.274 HD
ATOM     46  H71 UNL     1      -0.059   1.195  46.072  1.00  0.00     0.274 HD
ENDBRANCH  42  43
ENDBRANCH  41  42
ENDBRANCH  40  41
ENDBRANCH  39  40
ENDBRANCH  20  39
BRANCH   5  47
HETATM   47  C4  UNL     1      -2.364   5.520  41.035  1.00  0.00     0.035 C 
BRANCH  47  48
HETATM   48  C5  UNL     1      -2.589   4.052  41.023  1.00  0.00     0.004 C 
BRANCH  48  49
HETATM   49  C6  UNL     1      -1.806   3.352  39.925  1.00  0.00     0.027 C 
BRANCH  49  50
HETATM   50  C7  UNL     1      -2.562   3.336  38.614  1.00  0.00     0.229 C 
BRANCH  50  51
HETATM   51  N2  UNL     1      -1.580   3.503  37.560  1.00  0.00    -0.079 N 
ATOM     52  H23 UNL     1      -1.140   4.424  37.564  1.00  0.00     0.274 HD
ATOM     53  H22 UNL     1      -0.733   2.956  37.710  1.00  0.00     0.274 HD
ATOM     54  H21 UNL     1      -2.049   3.286  36.682  1.00  0.00     0.274 HD
ENDBRANCH  50  51
ENDBRANCH  49  50
ENDBRANCH  48  49
ENDBRANCH  47  48
ENDBRANCH   5  47
TORSDOF 19
ENDMDL
MODEL 4
REMARK VINA RESULT: -5.578903173      2.407      6.282
REMARK  19 active torsions:
REMARK  status: ('A' for Active; 'I' for Inactive)
REMARK    1  A    between atoms: C3_5  and  C4_6 
REMARK    2  A    between atoms: C4_6  and  C5_7 
REMARK    3  A    between atoms: C5_7  and  C6_8 
REMARK    4  A    between atoms: C6_8  and  C7_9 
REMARK    5  A    between atoms: C7_9  and  N2_10 
REMARK    6  A    between atoms: C9_18  and  C10_19 
REMARK    7  A    between atoms: C10_19  and  C11_20 
REMARK    8  A    between atoms: C11_20  and  C12_21 
REMARK    9  A    between atoms: C12_21  and  C13_22 
REMARK   10  A    between atoms: C13_22  and  N4_23 
REMARK   11  A    between atoms: C15_31  and  C16_32 
REMARK   12  A    between atoms: C16_32  and  C17_33 
REMARK   13  A    between atoms: C22_38  and  C23_39 
REMARK   14  A    between atoms: C23_39  and  O4_40 
REMARK   15  A    between atoms: C25_46  and  C26_47 
REMARK   16  A    between atoms: C26_47  and  C27_48 
REMARK   17  A    between atoms: C27_48  and  C28_49 
REMARK   18  A    between atoms: C28_49  and  C29_50 
REMARK   19  A    between atoms: C29_50  and  N7_51 
ROOT
HETATM    1  C1  UNL     1      -4.456   3.607  48.919  1.00  0.00     0.153 C 
HETATM    2  N1  UNL     1      -3.502   3.799  47.820  1.00  0.00    -0.341 N 
HETATM    3  C2  UNL     1      -3.669   2.951  46.699  1.00  0.00     0.243 C 
HETATM    4  O1  UNL     1      -4.831   2.446  46.444  1.00  0.00    -0.271 OA
HETATM    5  C3  UNL     1      -2.646   2.535  45.722  1.00  0.00     0.176 C 
HETATM    6  N3  UNL     1      -3.030   2.730  44.336  1.00  0.00    -0.346 N 
ATOM      7  H3  UNL     1      -2.928   1.903  43.748  1.00  0.00     0.163 HD
HETATM    8  C8  UNL     1      -3.508   3.841  43.681  1.00  0.00     0.241 C 
HETATM    9  O2  UNL     1      -4.677   3.775  43.138  1.00  0.00    -0.271 OA
HETATM   10  C9  UNL     1      -2.876   5.194  43.472  1.00  0.00     0.176 C 
HETATM   11  N5  UNL     1      -1.474   5.182  43.709  1.00  0.00    -0.346 N 
ATOM     12  H5  UNL     1      -0.911   4.719  42.995  1.00  0.00     0.163 HD
HETATM   13  C14 UNL     1      -0.749   5.725  44.802  1.00  0.00     0.241 C 
HETATM   14  O3  UNL     1       0.242   4.988  45.175  1.00  0.00    -0.271 OA
HETATM   15  C15 UNL     1      -0.979   6.955  45.519  1.00  0.00     0.180 C 
HETATM   16  N6  UNL     1      -2.069   6.956  46.485  1.00  0.00    -0.346 N 
ATOM     17  H6  UNL     1      -2.299   7.885  46.839  1.00  0.00     0.163 HD
HETATM   18  C24 UNL     1      -2.849   5.957  47.014  1.00  0.00     0.241 C 
HETATM   19  O5  UNL     1      -4.118   6.041  46.774  1.00  0.00    -0.271 OA
HETATM   20  C25 UNL     1      -2.452   4.780  47.831  1.00  0.00     0.178 C 
ENDROOT
BRANCH  15  21
HETATM   21  C16 UNL     1       0.172   7.606  46.196  1.00  0.00     0.074 C 
BRANCH  21  22
HETATM   22  C17 UNL     1       1.185   8.301  45.434  1.00  0.00    -0.047 A 
HETATM   23  C18 UNL     1       2.495   7.857  45.474  1.00  0.00     0.008 A 
HETATM   24  C19 UNL     1       3.535   8.458  44.790  1.00  0.00     0.001 A 
HETATM   25  C20 UNL     1       3.287   9.553  44.025  1.00  0.00     0.001 A 
HETATM   26  C21 UNL     1       1.994  10.024  43.962  1.00  0.00     0.010 A 
HETATM   27  C22 UNL     1       0.944   9.409  44.658  1.00  0.00    -0.028 A 
BRANCH  27  28
HETATM   28  C23 UNL     1      -0.383  10.043  44.504  1.00  0.00     0.203 C 
BRANCH  28  29
HETATM   29  O4  UNL     1      -0.556  11.085  45.433  1.00  0.00    -0.396 OA
ATOM     30  H4  UNL     1      -1.377  10.991  45.901  1.00  0.00     0.209 HD
ENDBRANCH  28  29
ENDBRANCH  27  28
ENDBRANCH  21  22
ENDBRANCH  15  21
BRANCH  10  31
HETATM   31  C10 UNL     1      -3.026   5.440  41.950  1.00  0.00     0.035 C 
BRANCH  31  32
HETATM   32  C11 UNL     1      -3.583   6.755  41.600  1.00  0.00     0.004 C 
BRANCH  32  33
HETATM   33  C12 UNL     1      -4.571   7.381  42.511  1.00  0.00     0.027 C 
BRANCH  33  34
HETATM   34  C13 UNL     1      -6.009   7.111  42.256  1.00  0.00     0.229 C 
BRANCH  34  35
HETATM   35  N4  UNL     1      -6.357   6.443  41.055  1.00  0.00    -0.079 N 
ATOM     36  H43 UNL     1      -6.723   5.518  41.280  1.00  0.00     0.274 HD
ATOM     37  H42 UNL     1      -7.183   6.885  40.653  1.00  0.00     0.274 HD
ATOM     38  H41 UNL     1      -5.641   6.352  40.333  1.00  0.00     0.274 HD
ENDBRANCH  34  35
ENDBRANCH  33  34
ENDBRANCH  32  33
ENDBRANCH  31  32
ENDBRANCH  10  31
BRANCH  20  39
HETATM   39  C26 UNL     1      -1.795   5.084  49.100  1.00  0.00     0.035 C 
BRANCH  39  40
HETATM   40  C27 UNL     1      -0.361   5.128  49.299  1.00  0.00     0.004 C 
BRANCH  40  41
HETATM   41  C28 UNL     1       0.478   4.119  48.550  1.00  0.00     0.027 C 
BRANCH  41  42
HETATM   42  C29 UNL     1       1.431   3.546  49.617  1.00  0.00     0.229 C 
BRANCH  42  43
HETATM   43  N7  UNL     1       1.689   4.499  50.652  1.00  0.00    -0.079 N 
ATOM     44  H73 UNL     1       2.498   4.232  51.213  1.00  0.00     0.274 HD
ATOM     45  H72 UNL     1       2.046   5.377  50.272  1.00  0.00     0.274 HD
ATOM     46  H71 UNL     1       0.865   4.651  51.233  1.00  0.00     0.274 HD
ENDBRANCH  42  43
ENDBRANCH  41  42
ENDBRANCH  40  41
ENDBRANCH  39  40
ENDBRANCH  20  39
BRANCH   5  47
HETATM   47  C4  UNL     1      -2.477   1.019  45.994  1.00  0.00     0.035 C 
BRANCH  47  48
HETATM   48  C5  UNL     1      -1.246   0.754  46.782  1.00  0.00     0.004 C 
BRANCH  48  49
HETATM   49  C6  UNL     1      -1.533   0.005  48.074  1.00  0.00     0.027 C 
BRANCH  49  50
HETATM   50  C7  UNL     1      -0.563   0.381  49.172  1.00  0.00     0.229 C 
BRANCH  50  51
HETATM   51  N2  UNL     1       0.737  -0.125  48.777  1.00  0.00    -0.079 N 
ATOM     52  H23 UNL     1       0.950   0.040  47.792  1.00  0.00     0.274 HD
ATOM     53  H22 UNL     1       1.512   0.410  49.168  1.00  0.00     0.274 HD
ATOM     54  H21 UNL     1       0.761  -1.112  49.033  1.00  0.00     0.274 HD
ENDBRANCH  50  51
ENDBRANCH  49  50
ENDBRANCH  48  49
ENDBRANCH  47  48
ENDBRANCH   5  47
TORSDOF 19
ENDMDL
MODEL 5
REMARK VINA RESULT: -5.559137165      1.717      2.131
REMARK  19 active torsions:
REMARK  status: ('A' for Active; 'I' for Inactive)
REMARK    1  A    between atoms: C3_5  and  C4_6 
REMARK    2  A    between atoms: C4_6  and  C5_7 
REMARK    3  A    between atoms: C5_7  and  C6_8 
REMARK    4  A    between atoms: C6_8  and  C7_9 
REMARK    5  A    between atoms: C7_9  and  N2_10 
REMARK    6  A    between atoms: C9_18  and  C10_19 
REMARK    7  A    between atoms: C10_19  and  C11_20 
REMARK    8  A    between atoms: C11_20  and  C12_21 
REMARK    9  A    between atoms: C12_21  and  C13_22 
REMARK   10  A    between atoms: C13_22  and  N4_23 
REMARK   11  A    between atoms: C15_31  and  C16_32 
REMARK   12  A    between atoms: C16_32  and  C17_33 
REMARK   13  A    between atoms: C22_38  and  C23_39 
REMARK   14  A    between atoms: C23_39  and  O4_40 
REMARK   15  A    between atoms: C25_46  and  C26_47 
REMARK   16  A    between atoms: C26_47  and  C27_48 
REMARK   17  A    between atoms: C27_48  and  C28_49 
REMARK   18  A    between atoms: C28_49  and  C29_50 
REMARK   19  A    between atoms: C29_50  and  N7_51 
ROOT
HETATM    1  C1  UNL     1      -6.049   5.514  44.239  1.00  0.00     0.153 C 
HETATM    2  N1  UNL     1      -4.588   5.382  44.316  1.00  0.00    -0.341 N 
HETATM    3  C2  UNL     1      -3.844   6.214  43.447  1.00  0.00     0.243 C 
HETATM    4  O1  UNL     1      -4.354   7.325  43.029  1.00  0.00    -0.271 OA
HETATM    5  C3  UNL     1      -2.487   5.981  42.917  1.00  0.00     0.176 C 
HETATM    6  N3  UNL     1      -1.577   7.098  43.096  1.00  0.00    -0.346 N 
ATOM      7  H3  UNL     1      -1.103   7.398  42.244  1.00  0.00     0.163 HD
HETATM    8  C8  UNL     1      -1.244   7.818  44.218  1.00  0.00     0.241 C 
HETATM    9  O2  UNL     1      -1.494   9.086  44.228  1.00  0.00    -0.271 OA
HETATM   10  C9  UNL     1      -0.605   7.370  45.509  1.00  0.00     0.176 C 
HETATM   11  N5  UNL     1       0.022   6.099  45.393  1.00  0.00    -0.346 N 
ATOM     12  H5  UNL     1       0.893   6.086  44.863  1.00  0.00     0.163 HD
HETATM   13  C14 UNL     1      -0.398   4.847  45.912  1.00  0.00     0.241 C 
HETATM   14  O3  UNL     1      -0.175   3.861  45.112  1.00  0.00    -0.271 OA
HETATM   15  C15 UNL     1      -1.020   4.556  47.181  1.00  0.00     0.180 C 
HETATM   16  N6  UNL     1      -2.438   4.868  47.302  1.00  0.00    -0.346 N 
ATOM     17  H6  UNL     1      -2.789   4.805  48.258  1.00  0.00     0.163 HD
HETATM   18  C24 UNL     1      -3.395   5.231  46.387  1.00  0.00     0.241 C 
HETATM   19  O5  UNL     1      -3.937   6.394  46.565  1.00  0.00    -0.271 OA
HETATM   20  C25 UNL     1      -3.912   4.484  45.210  1.00  0.00     0.178 C 
ENDROOT
BRANCH  15  21
HETATM   21  C16 UNL     1      -0.846   3.199  47.760  1.00  0.00     0.074 C 
BRANCH  21  22
HETATM   22  C17 UNL     1      -0.079   3.002  48.969  1.00  0.00    -0.047 A 
HETATM   23  C18 UNL     1       0.401   4.100  49.662  1.00  0.00     0.008 A 
HETATM   24  C19 UNL     1       1.151   4.015  50.820  1.00  0.00     0.001 A 
HETATM   25  C20 UNL     1       1.452   2.793  51.332  1.00  0.00     0.001 A 
HETATM   26  C21 UNL     1       0.993   1.677  50.669  1.00  0.00     0.010 A 
HETATM   27  C22 UNL     1       0.232   1.771  49.495  1.00  0.00    -0.028 A 
BRANCH  27  28
HETATM   28  C23 UNL     1      -0.172   0.483  48.890  1.00  0.00     0.203 C 
BRANCH  28  29
HETATM   29  O4  UNL     1       0.953  -0.301  48.573  1.00  0.00    -0.396 OA
ATOM     30  H4  UNL     1       1.119  -0.948  49.248  1.00  0.00     0.209 HD
ENDBRANCH  28  29
ENDBRANCH  27  28
ENDBRANCH  21  22
ENDBRANCH  15  21
BRANCH  10  31
HETATM   31  C10 UNL     1       0.555   8.376  45.715  1.00  0.00     0.035 C 
BRANCH  31  32
HETATM   32  C11 UNL     1       1.895   7.804  45.522  1.00  0.00     0.004 C 
BRANCH  32  33
HETATM   33  C12 UNL     1       3.042   8.720  45.316  1.00  0.00     0.027 C 
BRANCH  33  34
HETATM   34  C13 UNL     1       3.898   8.493  44.124  1.00  0.00     0.229 C 
BRANCH  34  35
HETATM   35  N4  UNL     1       3.539   7.446  43.237  1.00  0.00    -0.079 N 
ATOM     36  H43 UNL     1       2.534   7.480  43.068  1.00  0.00     0.274 HD
ATOM     37  H42 UNL     1       3.899   7.657  42.307  1.00  0.00     0.274 HD
ATOM     38  H41 UNL     1       3.804   6.493  43.491  1.00  0.00     0.274 HD
ENDBRANCH  34  35
ENDBRANCH  33  34
ENDBRANCH  32  33
ENDBRANCH  31  32
ENDBRANCH  10  31
BRANCH  20  39
HETATM   39  C26 UNL     1      -4.530   3.193  45.504  1.00  0.00     0.035 C 
BRANCH  39  40
HETATM   40  C27 UNL     1      -3.961   1.906  45.160  1.00  0.00     0.004 C 
BRANCH  40  41
HETATM   41  C28 UNL     1      -3.132   1.824  43.900  1.00  0.00     0.027 C 
BRANCH  41  42
HETATM   42  C29 UNL     1      -1.870   1.049  44.322  1.00  0.00     0.229 C 
BRANCH  42  43
HETATM   43  N7  UNL     1      -0.747   1.394  43.506  1.00  0.00    -0.079 N 
ATOM     44  H73 UNL     1      -0.996   2.086  42.799  1.00  0.00     0.274 HD
ATOM     45  H72 UNL     1      -0.060   1.941  44.026  1.00  0.00     0.274 HD
ATOM     46  H71 UNL     1      -0.323   0.566  43.085  1.00  0.00     0.274 HD
ENDBRANCH  42  43
ENDBRANCH  41  42
ENDBRANCH  40  41
ENDBRANCH  39  40
ENDBRANCH  20  39
BRANCH   5  47
HETATM   47  C4  UNL     1      -2.721   5.753  41.403  1.00  0.00     0.035 C 
BRANCH  47  48
HETATM   48  C5  UNL     1      -3.253   4.390  41.146  1.00  0.00     0.004 C 
BRANCH  48  49
HETATM   49  C6  UNL     1      -2.240   3.489  40.459  1.00  0.00     0.027 C 
BRANCH  49  50
HETATM   50  C7  UNL     1      -2.483   3.397  38.969  1.00  0.00     0.229 C 
BRANCH  50  51
HETATM   51  N2  UNL     1      -1.191   3.528  38.323  1.00  0.00    -0.079 N 
ATOM     52  H23 UNL     1      -0.428   3.120  38.865  1.00  0.00     0.274 HD
ATOM     53  H22 UNL     1      -1.093   2.937  37.498  1.00  0.00     0.274 HD
ATOM     54  H21 UNL     1      -1.059   4.519  38.126  1.00  0.00     0.274 HD
ENDBRANCH  50  51
ENDBRANCH  49  50
ENDBRANCH  48  49
ENDBRANCH  47  48
ENDBRANCH   5  47
TORSDOF 19
ENDMDL
