MODEL 1
REMARK VINA RESULT: -8.584014631      0.000      0.000
REMARK  11 active torsions:
REMARK  status: ('A' for Active; 'I' for Inactive)
REMARK    1  A    between atoms: O1_2  and  C2_3 
REMARK       I    between atoms: C2_3  and  N1_5 
REMARK    2  A    between atoms: N1_5  and  C3_7 
REMARK    3  A    between atoms: C3_7  and  C6_10 
REMARK    4  A    between atoms: C6_10  and  C7_11 
REMARK    5  A    between atoms: C6_10  and  O7_42 
REMARK    6  A    between atoms: C7_11  and  N2_12 
REMARK    7  A    between atoms: C9_14  and  C10_15 
REMARK       I    between atoms: N3_21  and  C13_23 
REMARK    8  A    between atoms: C13_23  and  C14_25 
REMARK    9  A    between atoms: C14_25  and  N4_26 
REMARK   10  A    between atoms: C14_25  and  C15_30 
REMARK   11  A    between atoms: O7_42  and  C22_43 
ROOT
HETATM    1  N2  UNL     1      16.562 -15.814  21.279  1.00  0.00    -0.364 N 
HETATM    2  C8  UNL     1      17.798 -16.058  21.957  1.00  0.00     0.161 C 
HETATM    3  C9  UNL     1      18.831 -15.091  21.428  1.00  0.00     0.204 C 
HETATM    4  O3  UNL     1      18.521 -13.774  21.748  1.00  0.00    -0.371 OA
HETATM    5  C11 UNL     1      17.177 -13.533  21.968  1.00  0.00     0.245 C 
HETATM    6  C12 UNL     1      16.309 -14.374  21.118  1.00  0.00     0.106 C 
HETATM    7  N3  UNL     1      15.418 -14.032  20.308  1.00  0.00    -0.313 N 
ATOM      8  H3  UNL     1      14.924 -14.774  19.812  1.00  0.00     0.170 HD
HETATM    9  C13 UNL     1      15.041 -12.700  20.025  1.00  0.00     0.258 C 
HETATM   10  O4  UNL     1      15.888 -11.767  19.885  1.00  0.00    -0.270 OA
ENDROOT
BRANCH   1  11
HETATM   11  C7  UNL     1      15.592 -16.711  20.752  1.00  0.00     0.159 C 
BRANCH  11  12
HETATM   12  C6  UNL     1      14.900 -17.686  21.610  1.00  0.00     0.176 C 
BRANCH  12  13
HETATM   13  C3  UNL     1      15.108 -19.140  21.459  1.00  0.00     0.056 C 
HETATM   14  C4  UNL     1      14.402 -19.679  20.187  1.00  0.00     0.041 C 
HETATM   15  C5  UNL     1      16.515 -19.628  21.413  1.00  0.00     0.041 C 
BRANCH  13  16
HETATM   16  N1  UNL     1      14.358 -19.846  22.527  1.00  0.00    -0.326 N 
HETATM   17  C2  UNL     1      14.757 -19.798  23.876  1.00  0.00     0.360 C 
HETATM   18  O2  UNL     1      15.763 -19.160  24.246  1.00  0.00    -0.239 OA
ATOM     19  H1  UNL     1      13.528 -20.382  22.276  1.00  0.00     0.165 HD
BRANCH  17  20
HETATM   20  O1  UNL     1      14.015 -20.477  24.816  1.00  0.00    -0.309 OA
HETATM   21  C1  UNL     1      14.573 -21.219  25.875  1.00  0.00     0.215 C 
ENDBRANCH  17  20
ENDBRANCH  13  16
ENDBRANCH  12  13
BRANCH  12  22
HETATM   22  O7  UNL     1      13.537 -17.375  21.834  1.00  0.00    -0.319 OA
BRANCH  22  23
HETATM   23  C22 UNL     1      12.767 -16.536  21.063  1.00  0.00     0.398 C 
HETATM   24  O8  UNL     1      11.899 -17.017  20.293  1.00  0.00    -0.276 OA
ENDBRANCH  22  23
ENDBRANCH  12  22
ENDBRANCH  11  12
ENDBRANCH   1  11
BRANCH   9  25
HETATM   25  C14 UNL     1      13.604 -12.307  19.872  1.00  0.00     0.311 C 
BRANCH  25  26
HETATM   26  N4  UNL     1      13.436 -11.326  18.812  1.00  0.00    -0.062 N 
ATOM     27  H43 UNL     1      14.071 -10.536  18.929  1.00  0.00     0.275 HD
ATOM     28  H42 UNL     1      13.784 -11.675  17.919  1.00  0.00     0.275 HD
ATOM     29  H41 UNL     1      12.466 -11.019  18.743  1.00  0.00     0.275 HD
ENDBRANCH  25  26
BRANCH  25  30
HETATM   30  C15 UNL     1      13.036 -11.728  21.111  1.00  0.00     0.023 A 
HETATM   31  C16 UNL     1      13.462 -10.519  21.631  1.00  0.00     0.052 A 
HETATM   32  C17 UNL     1      12.901  -9.999  22.800  1.00  0.00     0.112 A 
HETATM   33  C18 UNL     1      11.910 -10.678  23.467  1.00  0.00     0.114 A 
HETATM   34  O6  UNL     1      13.124  -8.833  23.537  1.00  0.00    -0.256 OA
HETATM   35  C19 UNL     1      11.476 -11.883  22.963  1.00  0.00     0.082 A 
HETATM   36  O5  UNL     1      11.545  -9.941  24.581  1.00  0.00    -0.256 OA
HETATM   37  C20 UNL     1      12.040 -12.391  21.799  1.00  0.00     0.128 A 
HETATM   38  F3  UNL     1      11.623 -13.568  21.296  1.00  0.00    -0.205 F 
HETATM   39  C21 UNL     1      11.988  -8.600  24.356  1.00  0.00     0.498 C 
HETATM   40  F4  UNL     1      11.034  -7.860  23.681  1.00  0.00    -0.147 F 
HETATM   41  F5  UNL     1      12.290  -8.055  25.568  1.00  0.00    -0.147 F 
ENDBRANCH  25  30
ENDBRANCH   9  25
BRANCH   3  42
HETATM   42  C10 UNL     1      20.236 -15.437  21.899  1.00  0.00     0.383 C 
HETATM   43  F1  UNL     1      20.905 -14.266  22.160  1.00  0.00    -0.212 F 
HETATM   44  F2  UNL     1      20.088 -16.075  23.134  1.00  0.00    -0.212 F 
ENDBRANCH   3  42
TORSDOF 11
ENDMDL
MODEL 2
REMARK VINA RESULT: -8.419267908      3.323      5.848
REMARK  11 active torsions:
REMARK  status: ('A' for Active; 'I' for Inactive)
REMARK    1  A    between atoms: O1_2  and  C2_3 
REMARK       I    between atoms: C2_3  and  N1_5 
REMARK    2  A    between atoms: N1_5  and  C3_7 
REMARK    3  A    between atoms: C3_7  and  C6_10 
REMARK    4  A    between atoms: C6_10  and  C7_11 
REMARK    5  A    between atoms: C6_10  and  O7_42 
REMARK    6  A    between atoms: C7_11  and  N2_12 
REMARK    7  A    between atoms: C9_14  and  C10_15 
REMARK       I    between atoms: N3_21  and  C13_23 
REMARK    8  A    between atoms: C13_23  and  C14_25 
REMARK    9  A    between atoms: C14_25  and  N4_26 
REMARK   10  A    between atoms: C14_25  and  C15_30 
REMARK   11  A    between atoms: O7_42  and  C22_43 
ROOT
HETATM    1  N2  UNL     1      18.534 -16.578  23.811  1.00  0.00    -0.364 N 
HETATM    2  C8  UNL     1      18.850 -17.785  24.510  1.00  0.00     0.161 C 
HETATM    3  C9  UNL     1      17.556 -18.469  24.887  1.00  0.00     0.204 C 
HETATM    4  O3  UNL     1      16.849 -18.897  23.770  1.00  0.00    -0.371 OA
HETATM    5  C11 UNL     1      17.125 -18.196  22.608  1.00  0.00     0.245 C 
HETATM    6  C12 UNL     1      17.423 -16.773  22.868  1.00  0.00     0.106 C 
HETATM    7  N3  UNL     1      16.871 -15.748  22.406  1.00  0.00    -0.313 N 
ATOM      8  H3  UNL     1      17.230 -14.844  22.713  1.00  0.00     0.170 HD
HETATM    9  C13 UNL     1      15.792 -15.744  21.493  1.00  0.00     0.258 C 
HETATM   10  O4  UNL     1      14.812 -16.541  21.594  1.00  0.00    -0.270 OA
ENDROOT
BRANCH   1  11
HETATM   11  C7  UNL     1      19.101 -15.275  23.893  1.00  0.00     0.159 C 
BRANCH  11  12
HETATM   12  C6  UNL     1      20.544 -15.051  23.711  1.00  0.00     0.176 C 
BRANCH  12  13
HETATM   13  C3  UNL     1      21.400 -14.565  24.812  1.00  0.00     0.056 C 
HETATM   14  C4  UNL     1      22.754 -14.030  24.275  1.00  0.00     0.041 C 
HETATM   15  C5  UNL     1      20.837 -13.510  25.700  1.00  0.00     0.041 C 
BRANCH  13  16
HETATM   16  N1  UNL     1      21.848 -15.726  25.619  1.00  0.00    -0.326 N 
HETATM   17  C2  UNL     1      22.459 -16.851  25.035  1.00  0.00     0.360 C 
HETATM   18  O2  UNL     1      22.657 -16.933  23.805  1.00  0.00    -0.239 OA
ATOM     19  H1  UNL     1      21.707 -15.709  26.629  1.00  0.00     0.165 HD
BRANCH  17  20
HETATM   20  O1  UNL     1      22.849 -17.895  25.844  1.00  0.00    -0.309 OA
HETATM   21  C1  UNL     1      22.046 -19.017  26.125  1.00  0.00     0.215 C 
ENDBRANCH  17  20
ENDBRANCH  13  16
ENDBRANCH  12  13
BRANCH  12  22
HETATM   22  O7  UNL     1      20.868 -14.426  22.482  1.00  0.00    -0.319 OA
BRANCH  22  23
HETATM   23  C22 UNL     1      20.150 -14.529  21.314  1.00  0.00     0.398 C 
HETATM   24  O8  UNL     1      20.155 -13.580  20.493  1.00  0.00    -0.276 OA
ENDBRANCH  22  23
ENDBRANCH  12  22
ENDBRANCH  11  12
ENDBRANCH   1  11
BRANCH   9  25
HETATM   25  C14 UNL     1      15.743 -14.788  20.342  1.00  0.00     0.311 C 
BRANCH  25  26
HETATM   26  N4  UNL     1      17.036 -14.160  20.123  1.00  0.00    -0.062 N 
ATOM     27  H43 UNL     1      17.781 -14.655  20.614  1.00  0.00     0.275 HD
ATOM     28  H42 UNL     1      17.362 -14.295  19.166  1.00  0.00     0.275 HD
ATOM     29  H41 UNL     1      17.014 -13.172  20.376  1.00  0.00     0.275 HD
ENDBRANCH  25  26
BRANCH  25  30
HETATM   30  C15 UNL     1      14.749 -13.709  20.538  1.00  0.00     0.023 A 
HETATM   31  C16 UNL     1      14.233 -13.389  21.782  1.00  0.00     0.052 A 
HETATM   32  C17 UNL     1      13.300 -12.361  21.934  1.00  0.00     0.112 A 
HETATM   33  C18 UNL     1      12.867 -11.639  20.847  1.00  0.00     0.114 A 
HETATM   34  O6  UNL     1      12.626 -11.830  23.036  1.00  0.00    -0.256 OA
HETATM   35  C19 UNL     1      13.370 -11.945  19.604  1.00  0.00     0.082 A 
HETATM   36  O5  UNL     1      11.952 -10.695  21.283  1.00  0.00    -0.256 OA
HETATM   37  C20 UNL     1      14.298 -12.969  19.464  1.00  0.00     0.128 A 
HETATM   38  F3  UNL     1      14.798 -13.277  18.252  1.00  0.00    -0.205 F 
HETATM   39  C21 UNL     1      12.158 -10.534  22.689  1.00  0.00     0.498 C 
HETATM   40  F4  UNL     1      13.118  -9.574  22.951  1.00  0.00    -0.147 F 
HETATM   41  F5  UNL     1      10.957 -10.218  23.250  1.00  0.00    -0.147 F 
ENDBRANCH  25  30
ENDBRANCH   9  25
BRANCH   3  42
HETATM   42  C10 UNL     1      17.778 -19.624  25.852  1.00  0.00     0.383 C 
HETATM   43  F1  UNL     1      18.280 -19.116  27.025  1.00  0.00    -0.212 F 
HETATM   44  F2  UNL     1      16.510 -20.123  26.163  1.00  0.00    -0.212 F 
ENDBRANCH   3  42
TORSDOF 11
ENDMDL
MODEL 3
REMARK VINA RESULT: -8.410864121      1.694      3.219
REMARK  11 active torsions:
REMARK  status: ('A' for Active; 'I' for Inactive)
REMARK    1  A    between atoms: O1_2  and  C2_3 
REMARK       I    between atoms: C2_3  and  N1_5 
REMARK    2  A    between atoms: N1_5  and  C3_7 
REMARK    3  A    between atoms: C3_7  and  C6_10 
REMARK    4  A    between atoms: C6_10  and  C7_11 
REMARK    5  A    between atoms: C6_10  and  O7_42 
REMARK    6  A    between atoms: C7_11  and  N2_12 
REMARK    7  A    between atoms: C9_14  and  C10_15 
REMARK       I    between atoms: N3_21  and  C13_23 
REMARK    8  A    between atoms: C13_23  and  C14_25 
REMARK    9  A    between atoms: C14_25  and  N4_26 
REMARK   10  A    between atoms: C14_25  and  C15_30 
REMARK   11  A    between atoms: O7_42  and  C22_43 
ROOT
HETATM    1  N2  UNL     1      16.322 -15.574  21.581  1.00  0.00    -0.364 N 
HETATM    2  C8  UNL     1      17.597 -15.788  22.193  1.00  0.00     0.161 C 
HETATM    3  C9  UNL     1      18.643 -15.057  21.383  1.00  0.00     0.204 C 
HETATM    4  O3  UNL     1      18.469 -13.679  21.432  1.00  0.00    -0.371 OA
HETATM    5  C11 UNL     1      17.175 -13.270  21.704  1.00  0.00     0.245 C 
HETATM    6  C12 UNL     1      16.164 -14.183  21.132  1.00  0.00     0.106 C 
HETATM    7  N3  UNL     1      15.225 -13.934  20.343  1.00  0.00    -0.313 N 
ATOM      8  H3  UNL     1      14.629 -14.713  20.063  1.00  0.00     0.170 HD
HETATM    9  C13 UNL     1      14.924 -12.660  19.808  1.00  0.00     0.258 C 
HETATM   10  O4  UNL     1      15.821 -11.864  19.400  1.00  0.00    -0.270 OA
ENDROOT
BRANCH   1  11
HETATM   11  C7  UNL     1      15.238 -16.464  21.344  1.00  0.00     0.159 C 
BRANCH  11  12
HETATM   12  C6  UNL     1      15.434 -17.749  20.654  1.00  0.00     0.176 C 
BRANCH  12  13
HETATM   13  C3  UNL     1      14.528 -18.200  19.579  1.00  0.00     0.056 C 
HETATM   14  C4  UNL     1      14.545 -19.745  19.442  1.00  0.00     0.041 C 
HETATM   15  C5  UNL     1      13.099 -17.788  19.672  1.00  0.00     0.041 C 
BRANCH  13  16
HETATM   16  N1  UNL     1      15.094 -17.787  18.271  1.00  0.00    -0.326 N 
HETATM   17  C2  UNL     1      14.803 -16.538  17.692  1.00  0.00     0.360 C 
HETATM   18  O2  UNL     1      14.052 -15.710  18.247  1.00  0.00    -0.239 OA
ATOM     19  H1  UNL     1      15.713 -18.429  17.776  1.00  0.00     0.165 HD
BRANCH  17  20
HETATM   20  O1  UNL     1      15.362 -16.220  16.474  1.00  0.00    -0.309 OA
HETATM   21  C1  UNL     1      16.026 -17.145  15.646  1.00  0.00     0.215 C 
ENDBRANCH  17  20
ENDBRANCH  13  16
ENDBRANCH  12  13
BRANCH  12  22
HETATM   22  O7  UNL     1      15.780 -18.811  21.525  1.00  0.00    -0.319 OA
BRANCH  22  23
HETATM   23  C22 UNL     1      15.422 -18.914  22.849  1.00  0.00     0.398 C 
HETATM   24  O8  UNL     1      14.272 -19.313  23.155  1.00  0.00    -0.276 OA
ENDBRANCH  22  23
ENDBRANCH  12  22
ENDBRANCH  11  12
ENDBRANCH   1  11
BRANCH   9  25
HETATM   25  C14 UNL     1      13.513 -12.172  19.692  1.00  0.00     0.311 C 
BRANCH  25  26
HETATM   26  N4  UNL     1      13.403 -11.113  18.702  1.00  0.00    -0.062 N 
ATOM     27  H43 UNL     1      14.291 -10.630  18.570  1.00  0.00     0.275 HD
ATOM     28  H42 UNL     1      13.288 -11.490  17.761  1.00  0.00     0.275 HD
ATOM     29  H41 UNL     1      12.654 -10.462  18.939  1.00  0.00     0.275 HD
ENDBRANCH  25  26
BRANCH  25  30
HETATM   30  C15 UNL     1      12.986 -11.645  20.972  1.00  0.00     0.023 A 
HETATM   31  C16 UNL     1      13.407 -10.444  21.512  1.00  0.00     0.052 A 
HETATM   32  C17 UNL     1      12.885  -9.973  22.720  1.00  0.00     0.112 A 
HETATM   33  C18 UNL     1      11.936 -10.695  23.404  1.00  0.00     0.114 A 
HETATM   34  O6  UNL     1      13.114  -8.827  23.484  1.00  0.00    -0.256 OA
HETATM   35  C19 UNL     1      11.506 -11.892  22.879  1.00  0.00     0.082 A 
HETATM   36  O5  UNL     1      11.602 -10.001  24.555  1.00  0.00    -0.256 OA
HETATM   37  C20 UNL     1      12.032 -12.351  21.678  1.00  0.00     0.128 A 
HETATM   38  F3  UNL     1      11.619 -13.520  21.154  1.00  0.00    -0.205 F 
HETATM   39  C21 UNL     1      12.008  -8.644  24.356  1.00  0.00     0.498 C 
HETATM   40  F4  UNL     1      11.013  -7.904  23.745  1.00  0.00    -0.147 F 
HETATM   41  F5  UNL     1      12.348  -8.131  25.572  1.00  0.00    -0.147 F 
ENDBRANCH  25  30
ENDBRANCH   9  25
BRANCH   3  42
HETATM   42  C10 UNL     1      20.057 -15.431  21.801  1.00  0.00     0.383 C 
HETATM   43  F1  UNL     1      20.787 -14.275  21.935  1.00  0.00    -0.212 F 
HETATM   44  F2  UNL     1      19.955 -15.970  23.086  1.00  0.00    -0.212 F 
ENDBRANCH   3  42
TORSDOF 11
ENDMDL
MODEL 4
REMARK VINA RESULT: -8.374055268      1.202      2.482
REMARK  11 active torsions:
REMARK  status: ('A' for Active; 'I' for Inactive)
REMARK    1  A    between atoms: O1_2  and  C2_3 
REMARK       I    between atoms: C2_3  and  N1_5 
REMARK    2  A    between atoms: N1_5  and  C3_7 
REMARK    3  A    between atoms: C3_7  and  C6_10 
REMARK    4  A    between atoms: C6_10  and  C7_11 
REMARK    5  A    between atoms: C6_10  and  O7_42 
REMARK    6  A    between atoms: C7_11  and  N2_12 
REMARK    7  A    between atoms: C9_14  and  C10_15 
REMARK       I    between atoms: N3_21  and  C13_23 
REMARK    8  A    between atoms: C13_23  and  C14_25 
REMARK    9  A    between atoms: C14_25  and  N4_26 
REMARK   10  A    between atoms: C14_25  and  C15_30 
REMARK   11  A    between atoms: O7_42  and  C22_43 
ROOT
HETATM    1  N2  UNL     1      16.407 -15.761  21.580  1.00  0.00    -0.364 N 
HETATM    2  C8  UNL     1      17.667 -15.978  22.222  1.00  0.00     0.161 C 
HETATM    3  C9  UNL     1      18.717 -15.171  21.494  1.00  0.00     0.204 C 
HETATM    4  O3  UNL     1      18.501 -13.804  21.619  1.00  0.00    -0.371 OA
HETATM    5  C11 UNL     1      17.188 -13.446  21.869  1.00  0.00     0.245 C 
HETATM    6  C12 UNL     1      16.223 -14.350  21.210  1.00  0.00     0.106 C 
HETATM    7  N3  UNL     1      15.304 -14.080  20.404  1.00  0.00    -0.313 N 
ATOM      8  H3  UNL     1      14.740 -14.856  20.058  1.00  0.00     0.170 HD
HETATM    9  C13 UNL     1      14.984 -12.785  19.936  1.00  0.00     0.258 C 
HETATM   10  O4  UNL     1      15.870 -11.942  19.607  1.00  0.00    -0.270 OA
ENDROOT
BRANCH   1  11
HETATM   11  C7  UNL     1      15.358 -16.665  21.254  1.00  0.00     0.159 C 
BRANCH  11  12
HETATM   12  C6  UNL     1      15.636 -18.050  20.842  1.00  0.00     0.176 C 
BRANCH  12  13
HETATM   13  C3  UNL     1      14.968 -18.663  19.676  1.00  0.00     0.056 C 
HETATM   14  C4  UNL     1      15.711 -18.317  18.359  1.00  0.00     0.041 C 
HETATM   15  C5  UNL     1      14.782 -20.141  19.694  1.00  0.00     0.041 C 
BRANCH  13  16
HETATM   16  N1  UNL     1      13.665 -17.987  19.460  1.00  0.00    -0.326 N 
HETATM   17  C2  UNL     1      12.500 -18.374  20.147  1.00  0.00     0.360 C 
HETATM   18  O2  UNL     1      12.499 -19.307  20.976  1.00  0.00    -0.239 OA
ATOM     19  H1  UNL     1      13.613 -17.219  18.791  1.00  0.00     0.165 HD
BRANCH  17  20
HETATM   20  O1  UNL     1      11.323 -17.703  19.897  1.00  0.00    -0.309 OA
HETATM   21  C1  UNL     1      10.701 -17.648  18.635  1.00  0.00     0.215 C 
ENDBRANCH  17  20
ENDBRANCH  13  16
ENDBRANCH  12  13
BRANCH  12  22
HETATM   22  O7  UNL     1      15.725 -18.955  21.928  1.00  0.00    -0.319 OA
BRANCH  22  23
HETATM   23  C22 UNL     1      15.223 -18.747  23.191  1.00  0.00     0.398 C 
HETATM   24  O8  UNL     1      14.364 -19.534  23.659  1.00  0.00    -0.276 OA
ENDBRANCH  22  23
ENDBRANCH  12  22
ENDBRANCH  11  12
ENDBRANCH   1  11
BRANCH   9  25
HETATM   25  C14 UNL     1      13.564 -12.329  19.800  1.00  0.00     0.311 C 
BRANCH  25  26
HETATM   26  N4  UNL     1      13.435 -11.310  18.771  1.00  0.00    -0.062 N 
ATOM     27  H43 UNL     1      14.000 -10.489  18.985  1.00  0.00     0.275 HD
ATOM     28  H42 UNL     1      13.891 -11.593  17.904  1.00  0.00     0.275 HD
ATOM     29  H41 UNL     1      12.457 -11.062  18.618  1.00  0.00     0.275 HD
ENDBRANCH  25  26
BRANCH  25  30
HETATM   30  C15 UNL     1      13.023 -11.766  21.058  1.00  0.00     0.023 A 
HETATM   31  C16 UNL     1      13.432 -10.545  21.563  1.00  0.00     0.052 A 
HETATM   32  C17 UNL     1      12.898 -10.040  22.752  1.00  0.00     0.112 A 
HETATM   33  C18 UNL     1      11.950 -10.747  23.452  1.00  0.00     0.114 A 
HETATM   34  O6  UNL     1      13.113  -8.868  23.481  1.00  0.00    -0.256 OA
HETATM   35  C19 UNL     1      11.532 -11.963  22.963  1.00  0.00     0.082 A 
HETATM   36  O5  UNL     1      11.602 -10.019  24.578  1.00  0.00    -0.256 OA
HETATM   37  C20 UNL     1      12.070 -12.456  21.780  1.00  0.00     0.128 A 
HETATM   38  F3  UNL     1      11.669 -13.645  21.291  1.00  0.00    -0.205 F 
HETATM   39  C21 UNL     1      12.000  -8.666  24.339  1.00  0.00     0.498 C 
HETATM   40  F4  UNL     1      11.003  -7.954  23.698  1.00  0.00    -0.147 F 
HETATM   41  F5  UNL     1      12.328  -8.112  25.540  1.00  0.00    -0.147 F 
ENDBRANCH  25  30
ENDBRANCH   9  25
BRANCH   3  42
HETATM   42  C10 UNL     1      20.127 -15.530  21.938  1.00  0.00     0.383 C 
HETATM   43  F1  UNL     1      20.805 -14.366  22.205  1.00  0.00    -0.212 F 
HETATM   44  F2  UNL     1      19.995 -16.186  23.165  1.00  0.00    -0.212 F 
ENDBRANCH   3  42
TORSDOF 11
ENDMDL
MODEL 5
REMARK VINA RESULT: -8.368480103      3.271      6.032
REMARK  11 active torsions:
REMARK  status: ('A' for Active; 'I' for Inactive)
REMARK    1  A    between atoms: O1_2  and  C2_3 
REMARK       I    between atoms: C2_3  and  N1_5 
REMARK    2  A    between atoms: N1_5  and  C3_7 
REMARK    3  A    between atoms: C3_7  and  C6_10 
REMARK    4  A    between atoms: C6_10  and  C7_11 
REMARK    5  A    between atoms: C6_10  and  O7_42 
REMARK    6  A    between atoms: C7_11  and  N2_12 
REMARK    7  A    between atoms: C9_14  and  C10_15 
REMARK       I    between atoms: N3_21  and  C13_23 
REMARK    8  A    between atoms: C13_23  and  C14_25 
REMARK    9  A    between atoms: C14_25  and  N4_26 
REMARK   10  A    between atoms: C14_25  and  C15_30 
REMARK   11  A    between atoms: O7_42  and  C22_43 
ROOT
HETATM    1  N2  UNL     1      18.032 -16.742  23.980  1.00  0.00    -0.364 N 
HETATM    2  C8  UNL     1      18.321 -17.980  24.637  1.00  0.00     0.161 C 
HETATM    3  C9  UNL     1      17.030 -18.751  24.788  1.00  0.00     0.204 C 
HETATM    4  O3  UNL     1      16.506 -19.132  23.559  1.00  0.00    -0.371 OA
HETATM    5  C11 UNL     1      16.893 -18.337  22.494  1.00  0.00     0.245 C 
HETATM    6  C12 UNL     1      17.071 -16.923  22.883  1.00  0.00     0.106 C 
HETATM    7  N3  UNL     1      16.527 -15.896  22.417  1.00  0.00    -0.313 N 
ATOM      8  H3  UNL     1      16.788 -15.000  22.827  1.00  0.00     0.170 HD
HETATM    9  C13 UNL     1      15.581 -15.879  21.367  1.00  0.00     0.258 C 
HETATM   10  O4  UNL     1      14.644 -16.728  21.280  1.00  0.00    -0.270 OA
ENDROOT
BRANCH   1  11
HETATM   11  C7  UNL     1      18.507 -15.424  24.223  1.00  0.00     0.159 C 
BRANCH  11  12
HETATM   12  C6  UNL     1      19.926 -15.072  24.053  1.00  0.00     0.176 C 
BRANCH  12  13
HETATM   13  C3  UNL     1      20.801 -14.792  25.209  1.00  0.00     0.056 C 
HETATM   14  C4  UNL     1      20.714 -13.301  25.630  1.00  0.00     0.041 C 
HETATM   15  C5  UNL     1      20.589 -15.604  26.439  1.00  0.00     0.041 C 
BRANCH  13  16
HETATM   16  N1  UNL     1      22.216 -14.887  24.772  1.00  0.00    -0.326 N 
HETATM   17  C2  UNL     1      22.752 -16.069  24.230  1.00  0.00     0.360 C 
HETATM   18  O2  UNL     1      22.067 -17.103  24.087  1.00  0.00    -0.239 OA
ATOM     19  H1  UNL     1      22.818 -14.070  24.869  1.00  0.00     0.165 HD
BRANCH  17  20
HETATM   20  O1  UNL     1      24.075 -16.088  23.846  1.00  0.00    -0.309 OA
HETATM   21  C1  UNL     1      24.981 -17.110  24.191  1.00  0.00     0.215 C 
ENDBRANCH  17  20
ENDBRANCH  13  16
ENDBRANCH  12  13
BRANCH  12  22
HETATM   22  O7  UNL     1      20.160 -14.167  22.989  1.00  0.00    -0.319 OA
BRANCH  22  23
HETATM   23  C22 UNL     1      20.143 -14.479  21.650  1.00  0.00     0.398 C 
HETATM   24  O8  UNL     1      20.359 -15.660  21.281  1.00  0.00    -0.276 OA
ENDBRANCH  22  23
ENDBRANCH  12  22
ENDBRANCH  11  12
ENDBRANCH   1  11
BRANCH   9  25
HETATM   25  C14 UNL     1      15.631 -14.847  20.283  1.00  0.00     0.311 C 
BRANCH  25  26
HETATM   26  N4  UNL     1      16.957 -14.257  20.179  1.00  0.00    -0.062 N 
ATOM     27  H43 UNL     1      17.688 -14.961  20.277  1.00  0.00     0.275 HD
ATOM     28  H42 UNL     1      17.158 -13.954  19.226  1.00  0.00     0.275 HD
ATOM     29  H41 UNL     1      17.076 -13.496  20.848  1.00  0.00     0.275 HD
ENDBRANCH  25  26
BRANCH  25  30
HETATM   30  C15 UNL     1      14.667 -13.745  20.501  1.00  0.00     0.023 A 
HETATM   31  C16 UNL     1      14.150 -13.444  21.748  1.00  0.00     0.052 A 
HETATM   32  C17 UNL     1      13.245 -12.393  21.920  1.00  0.00     0.112 A 
HETATM   33  C18 UNL     1      12.843 -11.630  20.850  1.00  0.00     0.114 A 
HETATM   34  O6  UNL     1      12.576 -11.872  23.030  1.00  0.00    -0.256 OA
HETATM   35  C19 UNL     1      13.349 -11.916  19.603  1.00  0.00     0.082 A 
HETATM   36  O5  UNL     1      11.952 -10.671  21.303  1.00  0.00    -0.256 OA
HETATM   37  C20 UNL     1      14.249 -12.963  19.443  1.00  0.00     0.128 A 
HETATM   38  F3  UNL     1      14.751 -13.252  18.227  1.00  0.00    -0.205 F 
HETATM   39  C21 UNL     1      12.149 -10.555  22.715  1.00  0.00     0.498 C 
HETATM   40  F4  UNL     1      13.134  -9.631  23.012  1.00  0.00    -0.147 F 
HETATM   41  F5  UNL     1      10.953 -10.219  23.274  1.00  0.00    -0.147 F 
ENDBRANCH  25  30
ENDBRANCH   9  25
BRANCH   3  42
HETATM   42  C10 UNL     1      17.187 -19.961  25.698  1.00  0.00     0.383 C 
HETATM   43  F1  UNL     1      17.864 -19.567  26.826  1.00  0.00    -0.212 F 
HETATM   44  F2  UNL     1      15.900 -20.300  26.123  1.00  0.00    -0.212 F 
ENDBRANCH   3  42
TORSDOF 11
ENDMDL
