MODEL 1
REMARK VINA RESULT: -9.389009472      0.000      0.000
REMARK  11 active torsions:
REMARK  status: ('A' for Active; 'I' for Inactive)
REMARK    1  A    between atoms: S1_2  and  C2_5 
REMARK    2  A    between atoms: N2_9  and  C4_11 
REMARK    3  A    between atoms: C4_11  and  C5_12 
REMARK    4  A    between atoms: C4_11  and  C6_14 
REMARK    5  A    between atoms: C6_14  and  C7_15 
REMARK    6  A    between atoms: C7_15  and  C8_16 
REMARK    7  A    between atoms: C8_16  and  O3_17 
REMARK    8  A    between atoms: C8_16  and  C9_19 
REMARK    9  A    between atoms: C8_16  and  C16_34 
REMARK   10  A    between atoms: C10_24  and  C11_25 
REMARK   11  A    between atoms: C19_39  and  C20_40 
ROOT
HETATM    1  C6  UNL     1      17.214 -16.999  22.644  1.00  0.00     0.031 C 
ENDROOT
BRANCH   1   2
HETATM    2  C4  UNL     1      17.813 -17.352  24.006  1.00  0.00     0.128 C 
BRANCH   2   3
HETATM    3  N2  UNL     1      19.192 -17.638  23.720  1.00  0.00    -0.219 N 
HETATM    4  C3  UNL     1      20.212 -17.026  24.189  1.00  0.00     0.682 A 
HETATM    5  N1  UNL     1      21.472 -17.380  23.852  1.00  0.00    -0.166 N 
HETATM    6  N5  UNL     1      20.111 -16.007  25.047  1.00  0.00    -0.175 N 
HETATM    7  C2  UNL     1      22.556 -16.750  24.345  1.00  0.00     0.218 A 
ATOM      8  H1  UNL     1      21.608 -18.153  23.201  1.00  0.00     0.186 HD
HETATM    9  N6  UNL     1      22.374 -15.718  25.214  1.00  0.00    -0.317 N 
HETATM   10  C19 UNL     1      21.138 -15.348  25.565  1.00  0.00     0.164 A 
ATOM     11  H6  UNL     1      23.181 -15.227  25.597  1.00  0.00     0.169 HD
ATOM     12  H5  UNL     1      19.174 -15.714  25.323  1.00  0.00     0.185 HD
ATOM     13  H2  UNL     1      19.376 -18.407  23.077  1.00  0.00     0.178 HD
BRANCH   7  14
HETATM   14  S1  UNL     1      24.185 -17.186  23.970  1.00  0.00     0.204 S 
HETATM   15  C1  UNL     1      24.906 -18.103  25.282  1.00  0.00     0.170 C 
HETATM   16  O1  UNL     1      25.038 -16.000  23.659  1.00  0.00    -0.220 OA
HETATM   17  O2  UNL     1      24.226 -18.067  22.741  1.00  0.00    -0.220 OA
ENDBRANCH   7  14
BRANCH  10  18
HETATM   18  C20 UNL     1      20.903 -14.222  26.538  1.00  0.00     0.420 C 
HETATM   19  F3  UNL     1      20.724 -13.014  25.865  1.00  0.00    -0.206 F 
HETATM   20  F4  UNL     1      19.787 -14.477  27.258  1.00  0.00    -0.206 F 
ENDBRANCH  10  18
ENDBRANCH   2   3
BRANCH   2  21
HETATM   21  C5  UNL     1      17.039 -18.323  24.794  1.00  0.00     0.247 C 
HETATM   22  F1  UNL     1      15.779 -18.507  24.200  1.00  0.00    -0.253 F 
ENDBRANCH   2  21
ENDBRANCH   1   2
BRANCH   1  23
HETATM   23  C7  UNL     1      18.006 -16.037  21.841  1.00  0.00     0.049 C 
BRANCH  23  24
HETATM   24  C8  UNL     1      17.735 -14.622  22.287  1.00  0.00     0.128 C 
BRANCH  24  25
HETATM   25  O3  UNL     1      17.674 -14.581  23.661  1.00  0.00    -0.381 OA
ATOM     26  H3  UNL     1      17.034 -15.214  23.967  1.00  0.00     0.211 HD
ENDBRANCH  24  25
BRANCH  24  27
HETATM   27  C9  UNL     1      16.634 -13.929  21.561  1.00  0.00     0.175 A 
HETATM   28  N3  UNL     1      16.549 -13.569  20.287  1.00  0.00    -0.279 N 
HETATM   29  N4  UNL     1      15.354 -12.971  20.120  1.00  0.00    -0.277 N 
ATOM     30  H3  UNL     1      17.257 -13.717  19.568  1.00  0.00     0.189 HD
HETATM   31  C10 UNL     1      14.691 -12.954  21.276  1.00  0.00     0.211 A 
ATOM     32  H4  UNL     1      15.008 -12.589  19.240  1.00  0.00     0.189 HD
HETATM   33  O6  UNL     1      15.496 -13.543  22.128  1.00  0.00    -0.273 OA
BRANCH  31  34
HETATM   34  C11 UNL     1      13.342 -12.419  21.635  1.00  0.00     0.293 C 
HETATM   35  F2  UNL     1      12.499 -12.618  20.515  1.00  0.00    -0.200 F 
HETATM   36  C12 UNL     1      13.485 -10.913  21.747  1.00  0.00     0.250 C 
HETATM   37  O4  UNL     1      12.251 -10.282  21.832  1.00  0.00    -0.385 OA
HETATM   38  C13 UNL     1      11.953 -10.124  23.182  1.00  0.00     0.170 C 
HETATM   39  C14 UNL     1      11.490 -11.402  23.815  1.00  0.00     0.052 C 
HETATM   40  C15 UNL     1      11.472 -12.541  22.830  1.00  0.00     0.174 C 
HETATM   41  O5  UNL     1      12.782 -13.026  22.705  1.00  0.00    -0.343 OA
ENDBRANCH  31  34
ENDBRANCH  24  27
BRANCH  24  42
HETATM   42  C16 UNL     1      18.993 -13.759  21.951  1.00  0.00     0.028 A 
HETATM   43  C17 UNL     1      19.823 -14.297  20.815  1.00  0.00     0.008 A 
HETATM   44  C18 UNL     1      20.347 -14.207  22.180  1.00  0.00     0.008 A 
ENDBRANCH  24  42
ENDBRANCH  23  24
ENDBRANCH   1  23
TORSDOF 11
ENDMDL
MODEL 2
REMARK VINA RESULT: -8.759577084      2.468      3.417
REMARK  11 active torsions:
REMARK  status: ('A' for Active; 'I' for Inactive)
REMARK    1  A    between atoms: S1_2  and  C2_5 
REMARK    2  A    between atoms: N2_9  and  C4_11 
REMARK    3  A    between atoms: C4_11  and  C5_12 
REMARK    4  A    between atoms: C4_11  and  C6_14 
REMARK    5  A    between atoms: C6_14  and  C7_15 
REMARK    6  A    between atoms: C7_15  and  C8_16 
REMARK    7  A    between atoms: C8_16  and  O3_17 
REMARK    8  A    between atoms: C8_16  and  C9_19 
REMARK    9  A    between atoms: C8_16  and  C16_34 
REMARK   10  A    between atoms: C10_24  and  C11_25 
REMARK   11  A    between atoms: C19_39  and  C20_40 
ROOT
HETATM    1  C6  UNL     1      19.472 -14.306  23.832  1.00  0.00     0.031 C 
ENDROOT
BRANCH   1   2
HETATM    2  C4  UNL     1      20.225 -15.361  24.643  1.00  0.00     0.128 C 
BRANCH   2   3
HETATM    3  N2  UNL     1      20.274 -16.504  23.774  1.00  0.00    -0.219 N 
HETATM    4  C3  UNL     1      21.323 -17.122  23.382  1.00  0.00     0.682 A 
HETATM    5  N1  UNL     1      21.254 -18.192  22.560  1.00  0.00    -0.166 N 
HETATM    6  N5  UNL     1      22.553 -16.765  23.760  1.00  0.00    -0.175 N 
HETATM    7  C2  UNL     1      22.350 -18.857  22.147  1.00  0.00     0.218 A 
ATOM      8  H1  UNL     1      20.339 -18.509  22.241  1.00  0.00     0.186 HD
HETATM    9  N6  UNL     1      23.572 -18.434  22.573  1.00  0.00    -0.317 N 
HETATM   10  C19 UNL     1      23.668 -17.378  23.387  1.00  0.00     0.164 A 
ATOM     11  H6  UNL     1      24.414 -18.923  22.270  1.00  0.00     0.169 HD
ATOM     12  H5  UNL     1      22.642 -15.962  24.381  1.00  0.00     0.185 HD
ATOM     13  H2  UNL     1      19.381 -16.859  23.434  1.00  0.00     0.178 HD
BRANCH   7  14
HETATM   14  S1  UNL     1      22.311 -20.249  21.124  1.00  0.00     0.204 S 
HETATM   15  C1  UNL     1      23.933 -20.722  20.648  1.00  0.00     0.170 C 
HETATM   16  O1  UNL     1      21.473 -20.040  19.905  1.00  0.00    -0.220 OA
HETATM   17  O2  UNL     1      21.704 -21.425  21.855  1.00  0.00    -0.220 OA
ENDBRANCH   7  14
BRANCH  10  18
HETATM   18  C20 UNL     1      25.004 -16.896  23.891  1.00  0.00     0.420 C 
HETATM   19  F3  UNL     1      26.020 -17.222  22.994  1.00  0.00    -0.206 F 
HETATM   20  F4  UNL     1      24.972 -15.550  24.025  1.00  0.00    -0.206 F 
ENDBRANCH  10  18
ENDBRANCH   2   3
BRANCH   2  21
HETATM   21  C5  UNL     1      19.749 -15.543  26.023  1.00  0.00     0.247 C 
HETATM   22  F1  UNL     1      20.020 -14.383  26.766  1.00  0.00    -0.253 F 
ENDBRANCH   2  21
ENDBRANCH   1   2
BRANCH   1  23
HETATM   23  C7  UNL     1      18.084 -14.673  23.461  1.00  0.00     0.049 C 
BRANCH  23  24
HETATM   24  C8  UNL     1      17.881 -14.542  21.972  1.00  0.00     0.128 C 
BRANCH  24  25
HETATM   25  O3  UNL     1      19.105 -14.537  21.343  1.00  0.00    -0.381 OA
ATOM     26  H3  UNL     1      19.588 -13.760  21.600  1.00  0.00     0.211 HD
ENDBRANCH  24  25
BRANCH  24  27
HETATM   27  C9  UNL     1      16.925 -13.479  21.555  1.00  0.00     0.175 A 
HETATM   28  N3  UNL     1      17.122 -12.406  20.800  1.00  0.00    -0.279 N 
HETATM   29  N4  UNL     1      15.945 -11.755  20.717  1.00  0.00    -0.277 N 
ATOM     30  H3  UNL     1      18.000 -12.125  20.364  1.00  0.00     0.189 HD
HETATM   31  C10 UNL     1      15.015 -12.409  21.411  1.00  0.00     0.211 A 
ATOM     32  H4  UNL     1      15.790 -10.891  20.199  1.00  0.00     0.189 HD
HETATM   33  O6  UNL     1      15.643 -13.450  21.906  1.00  0.00    -0.273 OA
BRANCH  31  34
HETATM   34  C11 UNL     1      13.567 -12.122  21.641  1.00  0.00     0.293 C 
HETATM   35  F2  UNL     1      12.910 -12.253  20.394  1.00  0.00    -0.200 F 
HETATM   36  C12 UNL     1      13.462 -10.648  21.979  1.00  0.00     0.250 C 
HETATM   37  O4  UNL     1      12.145 -10.208  21.970  1.00  0.00    -0.385 OA
HETATM   38  C13 UNL     1      11.661 -10.306  23.271  1.00  0.00     0.170 C 
HETATM   39  C14 UNL     1      11.325 -11.718  23.647  1.00  0.00     0.052 C 
HETATM   40  C15 UNL     1      11.604 -12.679  22.522  1.00  0.00     0.174 C 
HETATM   41  O5  UNL     1      12.978 -12.960  22.524  1.00  0.00    -0.343 OA
ENDBRANCH  31  34
ENDBRANCH  24  27
BRANCH  24  42
HETATM   42  C16 UNL     1      17.212 -15.856  21.458  1.00  0.00     0.028 A 
HETATM   43  C17 UNL     1      16.890 -16.849  22.544  1.00  0.00     0.008 A 
HETATM   44  C18 UNL     1      17.864 -17.145  21.491  1.00  0.00     0.008 A 
ENDBRANCH  24  42
ENDBRANCH  23  24
ENDBRANCH   1  23
TORSDOF 11
ENDMDL
MODEL 3
REMARK VINA RESULT: -8.734046692      3.806      7.628
REMARK  11 active torsions:
REMARK  status: ('A' for Active; 'I' for Inactive)
REMARK    1  A    between atoms: S1_2  and  C2_5 
REMARK    2  A    between atoms: N2_9  and  C4_11 
REMARK    3  A    between atoms: C4_11  and  C5_12 
REMARK    4  A    between atoms: C4_11  and  C6_14 
REMARK    5  A    between atoms: C6_14  and  C7_15 
REMARK    6  A    between atoms: C7_15  and  C8_16 
REMARK    7  A    between atoms: C8_16  and  O3_17 
REMARK    8  A    between atoms: C8_16  and  C9_19 
REMARK    9  A    between atoms: C8_16  and  C16_34 
REMARK   10  A    between atoms: C10_24  and  C11_25 
REMARK   11  A    between atoms: C19_39  and  C20_40 
ROOT
HETATM    1  C6  UNL     1      12.260 -14.479  20.405  1.00  0.00     0.031 C 
ENDROOT
BRANCH   1   2
HETATM    2  C4  UNL     1      13.211 -15.485  19.755  1.00  0.00     0.128 C 
BRANCH   2   3
HETATM    3  N2  UNL     1      14.070 -15.900  20.830  1.00  0.00    -0.219 N 
HETATM    4  C3  UNL     1      14.164 -17.076  21.323  1.00  0.00     0.682 A 
HETATM    5  N1  UNL     1      15.010 -17.359  22.338  1.00  0.00    -0.166 N 
HETATM    6  N5  UNL     1      13.447 -18.107  20.868  1.00  0.00    -0.175 N 
HETATM    7  C2  UNL     1      15.125 -18.595  22.860  1.00  0.00     0.218 A 
ATOM      8  H1  UNL     1      15.583 -16.608  22.723  1.00  0.00     0.186 HD
HETATM    9  N6  UNL     1      14.360 -19.596  22.346  1.00  0.00    -0.317 N 
HETATM   10  C19 UNL     1      13.515 -19.345  21.340  1.00  0.00     0.164 A 
ATOM     11  H6  UNL     1      14.431 -20.539  22.728  1.00  0.00     0.169 HD
ATOM     12  H5  UNL     1      12.799 -17.930  20.101  1.00  0.00     0.185 HD
ATOM     13  H2  UNL     1      14.666 -15.182  21.243  1.00  0.00     0.178 HD
BRANCH   7  14
HETATM   14  S1  UNL     1      16.214 -19.011  24.135  1.00  0.00     0.204 S 
HETATM   15  C1  UNL     1      17.661 -19.773  23.499  1.00  0.00     0.170 C 
HETATM   16  O1  UNL     1      15.586 -19.902  25.157  1.00  0.00    -0.220 OA
HETATM   17  O2  UNL     1      16.658 -17.770  24.877  1.00  0.00    -0.220 OA
ENDBRANCH   7  14
BRANCH  10  18
HETATM   18  C20 UNL     1      12.667 -20.434  20.737  1.00  0.00     0.420 C 
HETATM   19  F3  UNL     1      11.586 -19.895  20.042  1.00  0.00    -0.206 F 
HETATM   20  F4  UNL     1      13.414 -21.154  19.868  1.00  0.00    -0.206 F 
ENDBRANCH  10  18
ENDBRANCH   2   3
BRANCH   2  21
HETATM   21  C5  UNL     1      13.823 -15.039  18.494  1.00  0.00     0.247 C 
HETATM   22  F1  UNL     1      15.200 -14.843  18.688  1.00  0.00    -0.253 F 
ENDBRANCH   2  21
ENDBRANCH   1   2
BRANCH   1  23
HETATM   23  C7  UNL     1      12.819 -13.745  21.564  1.00  0.00     0.049 C 
BRANCH  23  24
HETATM   24  C8  UNL     1      13.461 -12.455  21.117  1.00  0.00     0.128 C 
BRANCH  24  25
HETATM   25  O3  UNL     1      12.836 -12.006  19.976  1.00  0.00    -0.381 OA
ATOM     26  H3  UNL     1      12.993 -11.074  19.877  1.00  0.00     0.211 HD
ENDBRANCH  24  25
BRANCH  24  27
HETATM   27  C9  UNL     1      14.950 -12.466  21.086  1.00  0.00     0.175 A 
HETATM   28  N3  UNL     1      15.800 -11.543  20.656  1.00  0.00    -0.279 N 
HETATM   29  N4  UNL     1      17.043 -12.027  20.840  1.00  0.00    -0.277 N 
ATOM     30  H3  UNL     1      15.558 -10.635  20.261  1.00  0.00     0.189 HD
HETATM   31  C10 UNL     1      16.980 -13.244  21.380  1.00  0.00     0.211 A 
ATOM     32  H4  UNL     1      17.904 -11.536  20.601  1.00  0.00     0.189 HD
HETATM   33  O6  UNL     1      15.696 -13.479  21.516  1.00  0.00    -0.273 OA
BRANCH  31  34
HETATM   34  C11 UNL     1      18.051 -14.206  21.780  1.00  0.00     0.293 C 
HETATM   35  F2  UNL     1      17.790 -15.427  21.112  1.00  0.00    -0.200 F 
HETATM   36  C12 UNL     1      17.836 -14.515  23.248  1.00  0.00     0.250 C 
HETATM   37  O4  UNL     1      18.614 -15.584  23.671  1.00  0.00    -0.385 OA
HETATM   38  C13 UNL     1      19.795 -15.063  24.191  1.00  0.00     0.170 C 
HETATM   39  C14 UNL     1      20.745 -14.627  23.116  1.00  0.00     0.052 C 
HETATM   40  C15 UNL     1      20.177 -14.855  21.740  1.00  0.00     0.174 C 
HETATM   41  O5  UNL     1      19.299 -13.800  21.453  1.00  0.00    -0.343 OA
ENDBRANCH  31  34
ENDBRANCH  24  27
BRANCH  24  42
HETATM   42  C16 UNL     1      13.126 -11.355  22.174  1.00  0.00     0.028 A 
HETATM   43  C17 UNL     1      11.853 -11.604  22.939  1.00  0.00     0.008 A 
HETATM   44  C18 UNL     1      12.006 -10.450  22.050  1.00  0.00     0.008 A 
ENDBRANCH  24  42
ENDBRANCH  23  24
ENDBRANCH   1  23
TORSDOF 11
ENDMDL
MODEL 4
REMARK VINA RESULT: -8.731477181      3.739      8.872
REMARK  11 active torsions:
REMARK  status: ('A' for Active; 'I' for Inactive)
REMARK    1  A    between atoms: S1_2  and  C2_5 
REMARK    2  A    between atoms: N2_9  and  C4_11 
REMARK    3  A    between atoms: C4_11  and  C5_12 
REMARK    4  A    between atoms: C4_11  and  C6_14 
REMARK    5  A    between atoms: C6_14  and  C7_15 
REMARK    6  A    between atoms: C7_15  and  C8_16 
REMARK    7  A    between atoms: C8_16  and  O3_17 
REMARK    8  A    between atoms: C8_16  and  C9_19 
REMARK    9  A    between atoms: C8_16  and  C16_34 
REMARK   10  A    between atoms: C10_24  and  C11_25 
REMARK   11  A    between atoms: C19_39  and  C20_40 
ROOT
HETATM    1  C6  UNL     1      13.610 -17.874  19.852  1.00  0.00     0.031 C 
ENDROOT
BRANCH   1   2
HETATM    2  C4  UNL     1      12.880 -16.891  18.937  1.00  0.00     0.128 C 
BRANCH   2   3
HETATM    3  N2  UNL     1      12.556 -15.785  19.797  1.00  0.00    -0.219 N 
HETATM    4  C3  UNL     1      12.991 -14.587  19.696  1.00  0.00     0.682 A 
HETATM    5  N1  UNL     1      12.619 -13.619  20.563  1.00  0.00    -0.166 N 
HETATM    6  N5  UNL     1      13.828 -14.202  18.729  1.00  0.00    -0.175 N 
HETATM    7  C2  UNL     1      13.062 -12.350  20.463  1.00  0.00     0.218 A 
ATOM      8  H1  UNL     1      11.980 -13.857  21.320  1.00  0.00     0.186 HD
HETATM    9  N6  UNL     1      13.916 -12.033  19.452  1.00  0.00    -0.317 N 
HETATM   10  C19 UNL     1      14.299 -12.971  18.579  1.00  0.00     0.164 A 
ATOM     11  H6  UNL     1      14.264 -11.079  19.360  1.00  0.00     0.169 HD
ATOM     12  H5  UNL     1      14.129 -14.907  18.057  1.00  0.00     0.185 HD
ATOM     13  H2  UNL     1      11.915 -15.976  20.566  1.00  0.00     0.178 HD
BRANCH   7  14
HETATM   14  S1  UNL     1      12.591 -11.073  21.527  1.00  0.00     0.204 S 
HETATM   15  C1  UNL     1      11.802 -11.709  22.959  1.00  0.00     0.170 C 
HETATM   16  O1  UNL     1      11.698 -10.076  20.864  1.00  0.00    -0.220 OA
HETATM   17  O2  UNL     1      13.805 -10.303  21.997  1.00  0.00    -0.220 OA
ENDBRANCH   7  14
BRANCH  10  18
HETATM   18  C20 UNL     1      15.229 -12.648  17.439  1.00  0.00     0.420 C 
HETATM   19  F3  UNL     1      16.515 -12.382  17.907  1.00  0.00    -0.206 F 
HETATM   20  F4  UNL     1      15.294 -13.708  16.600  1.00  0.00    -0.206 F 
ENDBRANCH  10  18
ENDBRANCH   2   3
BRANCH   2  21
HETATM   21  C5  UNL     1      11.814 -17.480  18.114  1.00  0.00     0.247 C 
HETATM   22  F1  UNL     1      10.728 -16.592  18.052  1.00  0.00    -0.253 F 
ENDBRANCH   2  21
ENDBRANCH   1   2
BRANCH   1  23
HETATM   23  C7  UNL     1      15.020 -17.526  20.150  1.00  0.00     0.049 C 
BRANCH  23  24
HETATM   24  C8  UNL     1      15.187 -17.189  21.611  1.00  0.00     0.128 C 
BRANCH  24  25
HETATM   25  O3  UNL     1      13.949 -17.135  22.210  1.00  0.00    -0.381 OA
ATOM     26  H3  UNL     1      14.013 -17.474  23.096  1.00  0.00     0.211 HD
ENDBRANCH  24  25
BRANCH  24  27
HETATM   27  C9  UNL     1      16.105 -16.052  21.898  1.00  0.00     0.175 A 
HETATM   28  N3  UNL     1      15.914 -14.747  21.756  1.00  0.00    -0.279 N 
HETATM   29  N4  UNL     1      17.045 -14.133  22.151  1.00  0.00    -0.277 N 
ATOM     30  H3  UNL     1      15.068 -14.293  21.413  1.00  0.00     0.189 HD
HETATM   31  C10 UNL     1      17.942 -15.039  22.537  1.00  0.00     0.211 A 
ATOM     32  H4  UNL     1      17.194 -13.124  22.153  1.00  0.00     0.189 HD
HETATM   33  O6  UNL     1      17.339 -16.193  22.372  1.00  0.00    -0.273 OA
BRANCH  31  34
HETATM   34  C11 UNL     1      19.336 -14.894  23.057  1.00  0.00     0.293 C 
HETATM   35  F2  UNL     1      20.027 -14.035  22.169  1.00  0.00    -0.200 F 
HETATM   36  C12 UNL     1      20.008 -16.243  22.890  1.00  0.00     0.250 C 
HETATM   37  O4  UNL     1      21.377 -16.168  23.106  1.00  0.00    -0.385 OA
HETATM   38  C13 UNL     1      21.608 -16.475  24.443  1.00  0.00     0.170 C 
HETATM   39  C14 UNL     1      21.270 -15.335  25.355  1.00  0.00     0.052 C 
HETATM   40  C15 UNL     1      20.755 -14.142  24.593  1.00  0.00     0.174 C 
HETATM   41  O5  UNL     1      19.403 -14.366  24.300  1.00  0.00    -0.343 OA
ENDBRANCH  31  34
ENDBRANCH  24  27
BRANCH  24  42
HETATM   42  C16 UNL     1      15.878 -18.402  22.312  1.00  0.00     0.028 A 
HETATM   43  C17 UNL     1      14.927 -19.489  22.741  1.00  0.00     0.008 A 
HETATM   44  C18 UNL     1      15.705 -18.715  23.711  1.00  0.00     0.008 A 
ENDBRANCH  24  42
ENDBRANCH  23  24
ENDBRANCH   1  23
TORSDOF 11
ENDMDL
MODEL 5
REMARK VINA RESULT: -8.727076883      3.503     10.076
REMARK  11 active torsions:
REMARK  status: ('A' for Active; 'I' for Inactive)
REMARK    1  A    between atoms: S1_2  and  C2_5 
REMARK    2  A    between atoms: N2_9  and  C4_11 
REMARK    3  A    between atoms: C4_11  and  C5_12 
REMARK    4  A    between atoms: C4_11  and  C6_14 
REMARK    5  A    between atoms: C6_14  and  C7_15 
REMARK    6  A    between atoms: C7_15  and  C8_16 
REMARK    7  A    between atoms: C8_16  and  O3_17 
REMARK    8  A    between atoms: C8_16  and  C9_19 
REMARK    9  A    between atoms: C8_16  and  C16_34 
REMARK   10  A    between atoms: C10_24  and  C11_25 
REMARK   11  A    between atoms: C19_39  and  C20_40 
ROOT
HETATM    1  C6  UNL     1      19.917 -16.705  23.409  1.00  0.00     0.031 C 
ENDROOT
BRANCH   1   2
HETATM    2  C4  UNL     1      18.429 -16.421  23.614  1.00  0.00     0.128 C 
BRANCH   2   3
HETATM    3  N2  UNL     1      18.139 -15.372  22.676  1.00  0.00    -0.219 N 
HETATM    4  C3  UNL     1      17.113 -15.288  21.917  1.00  0.00     0.682 A 
HETATM    5  N1  UNL     1      16.938 -14.252  21.068  1.00  0.00    -0.166 N 
HETATM    6  N5  UNL     1      16.141 -16.204  21.914  1.00  0.00    -0.175 N 
HETATM    7  C2  UNL     1      15.858 -14.146  20.269  1.00  0.00     0.218 A 
ATOM      8  H1  UNL     1      17.649 -13.522  21.030  1.00  0.00     0.186 HD
HETATM    9  N6  UNL     1      14.910 -15.121  20.320  1.00  0.00    -0.317 N 
HETATM   10  C19 UNL     1      15.057 -16.157  21.152  1.00  0.00     0.164 A 
ATOM     11  H6  UNL     1      14.086 -15.061  19.722  1.00  0.00     0.169 HD
ATOM     12  H5  UNL     1      16.241 -17.000  22.544  1.00  0.00     0.185 HD
ATOM     13  H2  UNL     1      18.821 -14.617  22.608  1.00  0.00     0.178 HD
BRANCH   7  14
HETATM   14  S1  UNL     1      15.575 -12.826  19.192  1.00  0.00     0.204 S 
HETATM   15  C1  UNL     1      14.595 -13.331  17.826  1.00  0.00     0.170 C 
HETATM   16  O1  UNL     1      16.842 -12.208  18.698  1.00  0.00    -0.220 OA
HETATM   17  O2  UNL     1      14.816 -11.723  19.896  1.00  0.00    -0.220 OA
ENDBRANCH   7  14
BRANCH  10  18
HETATM   18  C20 UNL     1      14.017 -17.243  21.245  1.00  0.00     0.420 C 
HETATM   19  F3  UNL     1      12.743 -16.698  21.400  1.00  0.00    -0.206 F 
HETATM   20  F4  UNL     1      14.030 -17.974  20.106  1.00  0.00    -0.206 F 
ENDBRANCH  10  18
ENDBRANCH   2   3
BRANCH   2  21
HETATM   21  C5  UNL     1      18.015 -16.250  25.015  1.00  0.00     0.247 C 
HETATM   22  F1  UNL     1      17.621 -14.919  25.225  1.00  0.00    -0.253 F 
ENDBRANCH   2  21
ENDBRANCH   1   2
BRANCH   1  23
HETATM   23  C7  UNL     1      20.798 -16.277  24.522  1.00  0.00     0.049 C 
BRANCH  23  24
HETATM   24  C8  UNL     1      21.743 -15.194  24.066  1.00  0.00     0.128 C 
BRANCH  24  25
HETATM   25  O3  UNL     1      21.198 -14.540  22.984  1.00  0.00    -0.381 OA
ATOM     26  H3  UNL     1      20.331 -14.224  23.211  1.00  0.00     0.211 HD
ENDBRANCH  24  25
BRANCH  24  27
HETATM   27  C9  UNL     1      23.166 -15.611  23.931  1.00  0.00     0.175 A 
HETATM   28  N3  UNL     1      24.274 -14.882  23.960  1.00  0.00    -0.279 N 
HETATM   29  N4  UNL     1      25.311 -15.723  23.791  1.00  0.00    -0.277 N 
ATOM     30  H3  UNL     1      24.330 -13.871  24.088  1.00  0.00     0.189 HD
HETATM   31  C10 UNL     1      24.865 -16.971  23.656  1.00  0.00     0.211 A 
ATOM     32  H4  UNL     1      26.292 -15.447  23.771  1.00  0.00     0.189 HD
HETATM   33  O6  UNL     1      23.559 -16.867  23.745  1.00  0.00    -0.273 OA
BRANCH  31  34
HETATM   34  C11 UNL     1      25.586 -18.264  23.448  1.00  0.00     0.293 C 
HETATM   35  F2  UNL     1      26.194 -18.608  24.679  1.00  0.00    -0.200 F 
HETATM   36  C12 UNL     1      26.745 -17.973  22.514  1.00  0.00     0.250 C 
HETATM   37  O4  UNL     1      27.632 -19.038  22.443  1.00  0.00    -0.385 OA
HETATM   38  C13 UNL     1      27.255 -19.826  21.359  1.00  0.00     0.170 C 
HETATM   39  C14 UNL     1      26.057 -20.673  21.662  1.00  0.00     0.052 C 
HETATM   40  C15 UNL     1      25.554 -20.453  23.065  1.00  0.00     0.174 C 
HETATM   41  O5  UNL     1      24.782 -19.282  23.069  1.00  0.00    -0.343 OA
ENDBRANCH  31  34
ENDBRANCH  24  27
BRANCH  24  42
HETATM   42  C16 UNL     1      21.789 -14.093  25.172  1.00  0.00     0.028 A 
HETATM   43  C17 UNL     1      21.058 -14.461  26.438  1.00  0.00     0.008 A 
HETATM   44  C18 UNL     1      20.628 -13.343  25.595  1.00  0.00     0.008 A 
ENDBRANCH  24  42
ENDBRANCH  23  24
ENDBRANCH   1  23
TORSDOF 11
ENDMDL
