MODEL 1
REMARK VINA RESULT: -8.222908824      0.000      0.000
REMARK  10 active torsions:
REMARK  status: ('A' for Active; 'I' for Inactive)
REMARK    1  A    between atoms: C2_2  and  O1_3 
REMARK    2  A    between atoms: C2_2  and  C25_43 
REMARK    3  A    between atoms: O1_3  and  C3_4 
REMARK    4  A    between atoms: C4_5  and  C5_6 
REMARK    5  A    between atoms: C5_6  and  N1_7 
REMARK    6  A    between atoms: N1_7  and  C6_10 
REMARK    7  A    between atoms: C12_18  and  N2_19 
REMARK    8  A    between atoms: N2_19  and  C13_21 
REMARK    9  A    between atoms: C14_24  and  N4_25 
REMARK   10  A    between atoms: C19_33  and  N6_34 
ROOT
HETATM    1  N2  UNL     1      16.265 -15.601  20.670  1.00  0.00    -0.185 N 
ATOM      2  H2  UNL     1      16.459 -15.905  19.716  1.00  0.00     0.184 HD
ENDROOT
BRANCH   1   3
HETATM    3  C12 UNL     1      15.560 -14.407  20.749  1.00  0.00     0.121 A 
HETATM    4  C3  UNL     1      14.223 -14.389  21.081  1.00  0.00     0.110 A 
HETATM    5  C4  UNL     1      13.602 -13.127  21.104  1.00  0.00     0.042 A 
HETATM    6  C9  UNL     1      14.310 -11.975  20.807  1.00  0.00     0.130 A 
HETATM    7  F1  UNL     1      13.752 -10.723  20.841  1.00  0.00    -0.205 F 
HETATM    8  C10 UNL     1      15.660 -12.027  20.474  1.00  0.00     0.087 A 
HETATM    9  C11 UNL     1      16.273 -13.248  20.449  1.00  0.00     0.149 A 
HETATM   10  F2  UNL     1      17.583 -13.311  20.102  1.00  0.00    -0.203 F 
BRANCH   4  11
HETATM   11  O1  UNL     1      13.501 -15.510  21.374  1.00  0.00    -0.338 OA
BRANCH  11  12
HETATM   12  C2  UNL     1      12.593 -16.253  20.659  1.00  0.00     0.190 C 
HETATM   13  C1  UNL     1      12.893 -17.775  20.771  1.00  0.00     0.046 C 
BRANCH  12  14
HETATM   14  C25 UNL     1      12.659 -15.945  19.189  1.00  0.00     0.381 C 
HETATM   15  F3  UNL     1      11.529 -16.153  18.465  1.00  0.00    -0.212 F 
HETATM   16  F4  UNL     1      13.745 -16.636  18.605  1.00  0.00    -0.212 F 
ENDBRANCH  12  14
ENDBRANCH  11  12
ENDBRANCH   4  11
BRANCH   5  17
HETATM   17  C5  UNL     1      12.181 -13.004  21.467  1.00  0.00     0.277 C 
BRANCH  17  18
HETATM   18  N1  UNL     1      11.874 -13.093  22.867  1.00  0.00    -0.067 N 
ATOM     19  H12 UNL     1      11.409 -13.970  23.099  1.00  0.00     0.277 HD
ATOM     20  H11 UNL     1      12.714 -13.213  23.434  1.00  0.00     0.277 HD
BRANCH  18  21
HETATM   21  C6  UNL     1      11.088 -11.926  23.291  1.00  0.00     0.186 A 
HETATM   22  C7  UNL     1      11.744 -10.626  23.531  1.00  0.00     0.035 A 
HETATM   23  C8  UNL     1      11.353 -11.473  24.693  1.00  0.00     0.035 A 
ENDBRANCH  18  21
ENDBRANCH  17  18
ENDBRANCH   5  17
ENDBRANCH   1   3
BRANCH   1  24
HETATM   24  C13 UNL     1      16.710 -16.381  21.554  1.00  0.00     0.712 A 
HETATM   25  N3  UNL     1      16.144 -17.527  21.959  1.00  0.00    -0.021 N 
HETATM   26  C14 UNL     1      16.646 -18.329  22.905  1.00  0.00     0.709 A 
ATOM     27  H3  UNL     1      15.270 -17.807  21.514  1.00  0.00     0.203 HD
HETATM   28  N5  UNL     1      17.798 -17.945  23.479  1.00  0.00    -0.021 N 
HETATM   29  C19 UNL     1      18.405 -16.788  23.096  1.00  0.00     0.710 A 
ATOM     30  H5  UNL     1      18.219 -18.523  24.205  1.00  0.00     0.203 HD
HETATM   31  N7  UNL     1      17.882 -16.006  22.149  1.00  0.00    -0.021 N 
ATOM     32  H7  UNL     1      18.350 -15.142  21.875  1.00  0.00     0.203 HD
BRANCH  26  33
HETATM   33  N4  UNL     1      16.043 -19.539  23.327  1.00  0.00    -0.213 N 
HETATM   34  C15 UNL     1      15.945 -19.911  24.733  1.00  0.00     0.167 C 
HETATM   35  C16 UNL     1      14.604 -20.527  25.053  1.00  0.00     0.188 C 
HETATM   36  O2  UNL     1      13.757 -20.342  23.953  1.00  0.00    -0.388 OA
HETATM   37  C17 UNL     1      14.219 -21.093  22.897  1.00  0.00     0.188 C 
HETATM   38  C18 UNL     1      15.485 -20.487  22.376  1.00  0.00     0.167 C 
ENDBRANCH  26  33
BRANCH  29  39
HETATM   39  N6  UNL     1      19.626 -16.390  23.709  1.00  0.00    -0.208 N 
HETATM   40  C20 UNL     1      20.657 -17.348  24.067  1.00  0.00     0.168 C 
HETATM   41  C21 UNL     1      21.861 -16.589  24.523  1.00  0.00     0.188 C 
HETATM   42  O3  UNL     1      22.221 -15.537  23.697  1.00  0.00    -0.388 OA
HETATM   43  C22 UNL     1      21.271 -14.566  23.574  1.00  0.00     0.193 C 
HETATM   44  C23 UNL     1      19.893 -14.997  24.004  1.00  0.00     0.122 C 
HETATM   45  C24 UNL     1      19.589 -14.673  25.441  1.00  0.00     0.035 C 
ENDBRANCH  29  39
ENDBRANCH   1  24
TORSDOF 10
ENDMDL
MODEL 2
REMARK VINA RESULT: -8.141306366      2.749      7.294
REMARK  10 active torsions:
REMARK  status: ('A' for Active; 'I' for Inactive)
REMARK    1  A    between atoms: C2_2  and  O1_3 
REMARK    2  A    between atoms: C2_2  and  C25_43 
REMARK    3  A    between atoms: O1_3  and  C3_4 
REMARK    4  A    between atoms: C4_5  and  C5_6 
REMARK    5  A    between atoms: C5_6  and  N1_7 
REMARK    6  A    between atoms: N1_7  and  C6_10 
REMARK    7  A    between atoms: C12_18  and  N2_19 
REMARK    8  A    between atoms: N2_19  and  C13_21 
REMARK    9  A    between atoms: C14_24  and  N4_25 
REMARK   10  A    between atoms: C19_33  and  N6_34 
ROOT
HETATM    1  N2  UNL     1      16.539 -16.630  21.789  1.00  0.00    -0.185 N 
ATOM      2  H2  UNL     1      17.163 -16.857  21.015  1.00  0.00     0.184 HD
ENDROOT
BRANCH   1   3
HETATM    3  C12 UNL     1      17.168 -16.597  23.028  1.00  0.00     0.121 A 
HETATM    4  C3  UNL     1      17.964 -15.534  23.393  1.00  0.00     0.110 A 
HETATM    5  C4  UNL     1      18.574 -15.617  24.658  1.00  0.00     0.042 A 
HETATM    6  C9  UNL     1      18.374 -16.714  25.479  1.00  0.00     0.130 A 
HETATM    7  F1  UNL     1      18.928 -16.826  26.729  1.00  0.00    -0.205 F 
HETATM    8  C10 UNL     1      17.563 -17.772  25.079  1.00  0.00     0.087 A 
HETATM    9  C11 UNL     1      16.967 -17.701  23.853  1.00  0.00     0.149 A 
HETATM   10  F2  UNL     1      16.193 -18.739  23.444  1.00  0.00    -0.203 F 
BRANCH   4  11
HETATM   11  O1  UNL     1      18.182 -14.443  22.602  1.00  0.00    -0.338 OA
BRANCH  11  12
HETATM   12  C2  UNL     1      18.417 -14.293  21.257  1.00  0.00     0.190 C 
HETATM   13  C1  UNL     1      19.929 -14.068  20.967  1.00  0.00     0.046 C 
BRANCH  12  14
HETATM   14  C25 UNL     1      17.725 -13.078  20.705  1.00  0.00     0.381 C 
HETATM   15  F3  UNL     1      17.073 -13.224  19.523  1.00  0.00    -0.212 F 
HETATM   16  F4  UNL     1      18.639 -12.003  20.628  1.00  0.00    -0.212 F 
ENDBRANCH  12  14
ENDBRANCH  11  12
ENDBRANCH   4  11
BRANCH   5  17
HETATM   17  C5  UNL     1      19.427 -14.522  25.146  1.00  0.00     0.277 C 
BRANCH  17  18
HETATM   18  N1  UNL     1      20.516 -14.138  24.293  1.00  0.00    -0.067 N 
ATOM     19  H12 UNL     1      20.457 -14.583  23.377  1.00  0.00     0.277 HD
ATOM     20  H11 UNL     1      20.440 -13.165  23.993  1.00  0.00     0.277 HD
BRANCH  18  21
HETATM   21  C6  UNL     1      21.801 -14.410  24.953  1.00  0.00     0.186 A 
HETATM   22  C7  UNL     1      23.072 -14.215  24.229  1.00  0.00     0.035 A 
HETATM   23  C8  UNL     1      22.540 -15.594  24.412  1.00  0.00     0.035 A 
ENDBRANCH  18  21
ENDBRANCH  17  18
ENDBRANCH   5  17
ENDBRANCH   1   3
BRANCH   1  24
HETATM   24  C13 UNL     1      15.344 -16.435  21.441  1.00  0.00     0.712 A 
HETATM   25  N3  UNL     1      14.472 -17.370  21.040  1.00  0.00    -0.021 N 
HETATM   26  C14 UNL     1      13.208 -17.124  20.674  1.00  0.00     0.709 A 
ATOM     27  H3  UNL     1      14.793 -18.338  21.011  1.00  0.00     0.203 HD
HETATM   28  N5  UNL     1      12.802 -15.845  20.719  1.00  0.00    -0.021 N 
HETATM   29  C19 UNL     1      13.657 -14.864  21.122  1.00  0.00     0.710 A 
ATOM     30  H5  UNL     1      11.847 -15.606  20.450  1.00  0.00     0.203 HD
HETATM   31  N7  UNL     1      14.913 -15.138  21.481  1.00  0.00    -0.021 N 
ATOM     32  H7  UNL     1      15.540 -14.392  21.780  1.00  0.00     0.203 HD
BRANCH  26  33
HETATM   33  N4  UNL     1      12.292 -18.117  20.252  1.00  0.00    -0.213 N 
HETATM   34  C15 UNL     1      11.251 -17.849  19.267  1.00  0.00     0.167 C 
HETATM   35  C16 UNL     1      11.097 -18.993  18.294  1.00  0.00     0.188 C 
HETATM   36  O2  UNL     1      12.166 -19.879  18.479  1.00  0.00    -0.388 OA
HETATM   37  C17 UNL     1      12.046 -20.478  19.711  1.00  0.00     0.188 C 
HETATM   38  C18 UNL     1      12.334 -19.471  20.781  1.00  0.00     0.167 C 
ENDBRANCH  26  33
BRANCH  29  39
HETATM   39  N6  UNL     1      13.216 -13.512  21.167  1.00  0.00    -0.208 N 
HETATM   40  C20 UNL     1      11.959 -13.131  21.785  1.00  0.00     0.168 C 
HETATM   41  C21 UNL     1      11.886 -11.639  21.814  1.00  0.00     0.188 C 
HETATM   42  O3  UNL     1      13.038 -11.018  22.267  1.00  0.00    -0.388 OA
HETATM   43  C22 UNL     1      14.146 -11.260  21.508  1.00  0.00     0.193 C 
HETATM   44  C23 UNL     1      14.014 -12.448  20.592  1.00  0.00     0.122 C 
HETATM   45  C24 UNL     1      13.533 -12.087  19.213  1.00  0.00     0.035 C 
ENDBRANCH  29  39
ENDBRANCH   1  24
TORSDOF 10
ENDMDL
MODEL 3
REMARK VINA RESULT: -8.140974266      2.865      8.252
REMARK  10 active torsions:
REMARK  status: ('A' for Active; 'I' for Inactive)
REMARK    1  A    between atoms: C2_2  and  O1_3 
REMARK    2  A    between atoms: C2_2  and  C25_43 
REMARK    3  A    between atoms: O1_3  and  C3_4 
REMARK    4  A    between atoms: C4_5  and  C5_6 
REMARK    5  A    between atoms: C5_6  and  N1_7 
REMARK    6  A    between atoms: N1_7  and  C6_10 
REMARK    7  A    between atoms: C12_18  and  N2_19 
REMARK    8  A    between atoms: N2_19  and  C13_21 
REMARK    9  A    between atoms: C14_24  and  N4_25 
REMARK   10  A    between atoms: C19_33  and  N6_34 
ROOT
HETATM    1  N2  UNL     1      16.971 -16.488  20.983  1.00  0.00    -0.185 N 
ATOM      2  H2  UNL     1      17.429 -16.660  20.088  1.00  0.00     0.184 HD
ENDROOT
BRANCH   1   3
HETATM    3  C12 UNL     1      17.750 -16.817  22.086  1.00  0.00     0.121 A 
HETATM    4  C3  UNL     1      19.003 -16.271  22.261  1.00  0.00     0.110 A 
HETATM    5  C4  UNL     1      19.715 -16.695  23.397  1.00  0.00     0.042 A 
HETATM    6  C9  UNL     1      19.174 -17.612  24.282  1.00  0.00     0.130 A 
HETATM    7  F1  UNL     1      19.821 -18.035  25.414  1.00  0.00    -0.205 F 
HETATM    8  C10 UNL     1      17.905 -18.145  24.075  1.00  0.00     0.087 A 
HETATM    9  C11 UNL     1      17.205 -17.740  22.975  1.00  0.00     0.149 A 
HETATM   10  F2  UNL     1      15.976 -18.273  22.752  1.00  0.00    -0.203 F 
BRANCH   4  11
HETATM   11  O1  UNL     1      19.563 -15.369  21.402  1.00  0.00    -0.338 OA
BRANCH  11  12
HETATM   12  C2  UNL     1      19.654 -13.999  21.410  1.00  0.00     0.190 C 
HETATM   13  C1  UNL     1      18.335 -13.346  21.912  1.00  0.00     0.046 C 
BRANCH  12  14
HETATM   14  C25 UNL     1      19.864 -13.449  20.027  1.00  0.00     0.381 C 
HETATM   15  F3  UNL     1      20.937 -12.637  19.843  1.00  0.00    -0.212 F 
HETATM   16  F4  UNL     1      18.685 -12.807  19.585  1.00  0.00    -0.212 F 
ENDBRANCH  12  14
ENDBRANCH  11  12
ENDBRANCH   4  11
BRANCH   5  17
HETATM   17  C5  UNL     1      21.054 -16.153  23.681  1.00  0.00     0.277 C 
BRANCH  17  18
HETATM   18  N1  UNL     1      21.103 -14.796  24.146  1.00  0.00    -0.067 N 
ATOM     19  H12 UNL     1      21.838 -14.261  23.683  1.00  0.00     0.277 HD
ATOM     20  H11 UNL     1      20.299 -14.254  23.826  1.00  0.00     0.277 HD
BRANCH  18  21
HETATM   21  C6  UNL     1      21.240 -14.763  25.609  1.00  0.00     0.186 A 
HETATM   22  C7  UNL     1      20.045 -14.772  26.475  1.00  0.00     0.035 A 
HETATM   23  C8  UNL     1      20.774 -13.492  26.249  1.00  0.00     0.035 A 
ENDBRANCH  18  21
ENDBRANCH  17  18
ENDBRANCH   5  17
ENDBRANCH   1   3
BRANCH   1  24
HETATM   24  C13 UNL     1      15.807 -16.018  20.880  1.00  0.00     0.712 A 
HETATM   25  N3  UNL     1      15.388 -14.830  21.339  1.00  0.00    -0.021 N 
HETATM   26  C14 UNL     1      14.140 -14.364  21.213  1.00  0.00     0.709 A 
ATOM     27  H3  UNL     1      16.068 -14.239  21.817  1.00  0.00     0.203 HD
HETATM   28  N5  UNL     1      13.258 -15.155  20.580  1.00  0.00    -0.021 N 
HETATM   29  C19 UNL     1      13.643 -16.369  20.098  1.00  0.00     0.710 A 
ATOM     30  H5  UNL     1      12.294 -14.844  20.459  1.00  0.00     0.203 HD
HETATM   31  N7  UNL     1      14.896 -16.809  20.238  1.00  0.00    -0.021 N 
ATOM     32  H7  UNL     1      15.168 -17.722  19.872  1.00  0.00     0.203 HD
BRANCH  26  33
HETATM   33  N4  UNL     1      13.704 -13.108  21.699  1.00  0.00    -0.213 N 
HETATM   34  C15 UNL     1      14.460 -11.882  21.475  1.00  0.00     0.167 C 
HETATM   35  C16 UNL     1      13.553 -10.722  21.140  1.00  0.00     0.188 C 
HETATM   36  O2  UNL     1      12.264 -11.220  20.909  1.00  0.00    -0.388 OA
HETATM   37  C17 UNL     1      11.751 -11.707  22.088  1.00  0.00     0.188 C 
HETATM   38  C18 UNL     1      12.472 -12.967  22.458  1.00  0.00     0.167 C 
ENDBRANCH  26  33
BRANCH  29  39
HETATM   39  N6  UNL     1      12.702 -17.199  19.428  1.00  0.00    -0.208 N 
HETATM   40  C20 UNL     1      11.552 -16.652  18.730  1.00  0.00     0.168 C 
HETATM   41  C21 UNL     1      10.876 -17.767  18.000  1.00  0.00     0.188 C 
HETATM   42  O3  UNL     1      11.733 -18.584  17.283  1.00  0.00    -0.388 OA
HETATM   43  C22 UNL     1      12.665 -19.231  18.042  1.00  0.00     0.193 C 
HETATM   44  C23 UNL     1      12.855 -18.639  19.414  1.00  0.00     0.122 C 
HETATM   45  C24 UNL     1      12.002 -19.292  20.467  1.00  0.00     0.035 C 
ENDBRANCH  29  39
ENDBRANCH   1  24
TORSDOF 10
ENDMDL
MODEL 4
REMARK VINA RESULT: -8.134837906      2.816      8.196
REMARK  10 active torsions:
REMARK  status: ('A' for Active; 'I' for Inactive)
REMARK    1  A    between atoms: C2_2  and  O1_3 
REMARK    2  A    between atoms: C2_2  and  C25_43 
REMARK    3  A    between atoms: O1_3  and  C3_4 
REMARK    4  A    between atoms: C4_5  and  C5_6 
REMARK    5  A    between atoms: C5_6  and  N1_7 
REMARK    6  A    between atoms: N1_7  and  C6_10 
REMARK    7  A    between atoms: C12_18  and  N2_19 
REMARK    8  A    between atoms: N2_19  and  C13_21 
REMARK    9  A    between atoms: C14_24  and  N4_25 
REMARK   10  A    between atoms: C19_33  and  N6_34 
ROOT
HETATM    1  N2  UNL     1      16.516 -15.947  21.382  1.00  0.00    -0.185 N 
ATOM      2  H2  UNL     1      17.118 -16.157  20.585  1.00  0.00     0.184 HD
ENDROOT
BRANCH   1   3
HETATM    3  C12 UNL     1      17.152 -16.057  22.612  1.00  0.00     0.121 A 
HETATM    4  C3  UNL     1      18.072 -15.118  23.024  1.00  0.00     0.110 A 
HETATM    5  C4  UNL     1      18.675 -15.343  24.275  1.00  0.00     0.042 A 
HETATM    6  C9  UNL     1      18.351 -16.452  25.039  1.00  0.00     0.130 A 
HETATM    7  F1  UNL     1      18.894 -16.698  26.273  1.00  0.00    -0.205 F 
HETATM    8  C10 UNL     1      17.417 -17.382  24.592  1.00  0.00     0.087 A 
HETATM    9  C11 UNL     1      16.825 -17.173  23.379  1.00  0.00     0.149 A 
HETATM   10  F2  UNL     1      15.931 -18.087  22.924  1.00  0.00    -0.203 F 
BRANCH   4  11
HETATM   11  O1  UNL     1      18.415 -14.019  22.290  1.00  0.00    -0.338 OA
BRANCH  11  12
HETATM   12  C2  UNL     1      18.587 -13.808  20.945  1.00  0.00     0.190 C 
HETATM   13  C1  UNL     1      20.082 -13.556  20.597  1.00  0.00     0.046 C 
BRANCH  12  14
HETATM   14  C25 UNL     1      17.862 -12.576  20.479  1.00  0.00     0.381 C 
HETATM   15  F3  UNL     1      16.796 -12.172  21.217  1.00  0.00    -0.212 F 
HETATM   16  F4  UNL     1      17.488 -12.726  19.125  1.00  0.00    -0.212 F 
ENDBRANCH  12  14
ENDBRANCH  11  12
ENDBRANCH   4  11
BRANCH   5  17
HETATM   17  C5  UNL     1      19.657 -14.386  24.811  1.00  0.00     0.277 C 
BRANCH  17  18
HETATM   18  N1  UNL     1      20.822 -14.154  24.005  1.00  0.00    -0.067 N 
ATOM     19  H12 UNL     1      20.794 -14.685  23.135  1.00  0.00     0.277 HD
ATOM     20  H11 UNL     1      20.830 -13.214  23.608  1.00  0.00     0.277 HD
BRANCH  18  21
HETATM   21  C6  UNL     1      22.040 -14.434  24.779  1.00  0.00     0.186 A 
HETATM   22  C7  UNL     1      23.371 -14.298  24.157  1.00  0.00     0.035 A 
HETATM   23  C8  UNL     1      22.787 -15.656  24.344  1.00  0.00     0.035 A 
ENDBRANCH  18  21
ENDBRANCH  17  18
ENDBRANCH   5  17
ENDBRANCH   1   3
BRANCH   1  24
HETATM   24  C13 UNL     1      15.338 -15.636  21.063  1.00  0.00     0.712 A 
HETATM   25  N3  UNL     1      14.733 -14.464  21.304  1.00  0.00    -0.021 N 
HETATM   26  C14 UNL     1      13.476 -14.171  20.952  1.00  0.00     0.709 A 
ATOM     27  H3  UNL     1      15.270 -13.745  21.789  1.00  0.00     0.203 HD
HETATM   28  N5  UNL     1      12.785 -15.129  20.314  1.00  0.00    -0.021 N 
HETATM   29  C19 UNL     1      13.362 -16.334  20.050  1.00  0.00     0.710 A 
ATOM     30  H5  UNL     1      11.823 -14.954  20.026  1.00  0.00     0.203 HD
HETATM   31  N7  UNL     1      14.619 -16.600  20.412  1.00  0.00    -0.021 N 
ATOM     32  H7  UNL     1      15.036 -17.508  20.207  1.00  0.00     0.203 HD
BRANCH  26  33
HETATM   33  N4  UNL     1      12.844 -12.930  21.209  1.00  0.00    -0.213 N 
HETATM   34  C15 UNL     1      11.684 -12.813  22.084  1.00  0.00     0.167 C 
HETATM   35  C16 UNL     1      11.772 -11.590  22.965  1.00  0.00     0.188 C 
HETATM   36  O2  UNL     1      13.061 -11.053  22.851  1.00  0.00    -0.388 OA
HETATM   37  C17 UNL     1      13.231 -10.555  21.581  1.00  0.00     0.188 C 
HETATM   38  C18 UNL     1      13.318 -11.693  20.611  1.00  0.00     0.167 C 
ENDBRANCH  26  33
BRANCH  29  39
HETATM   39  N6  UNL     1      12.622 -17.343  19.371  1.00  0.00    -0.208 N 
HETATM   40  C20 UNL     1      11.455 -17.033  18.565  1.00  0.00     0.168 C 
HETATM   41  C21 UNL     1      11.027 -18.281  17.864  1.00  0.00     0.188 C 
HETATM   42  O3  UNL     1      12.059 -18.979  17.258  1.00  0.00    -0.388 OA
HETATM   43  C22 UNL     1      13.022 -19.421  18.117  1.00  0.00     0.193 C 
HETATM   44  C23 UNL     1      13.009 -18.737  19.459  1.00  0.00     0.122 C 
HETATM   45  C24 UNL     1      12.195 -19.467  20.492  1.00  0.00     0.035 C 
ENDBRANCH  29  39
ENDBRANCH   1  24
TORSDOF 10
ENDMDL
MODEL 5
REMARK VINA RESULT: -8.092513288      3.021      7.370
REMARK  10 active torsions:
REMARK  status: ('A' for Active; 'I' for Inactive)
REMARK    1  A    between atoms: C2_2  and  O1_3 
REMARK    2  A    between atoms: C2_2  and  C25_43 
REMARK    3  A    between atoms: O1_3  and  C3_4 
REMARK    4  A    between atoms: C4_5  and  C5_6 
REMARK    5  A    between atoms: C5_6  and  N1_7 
REMARK    6  A    between atoms: N1_7  and  C6_10 
REMARK    7  A    between atoms: C12_18  and  N2_19 
REMARK    8  A    between atoms: N2_19  and  C13_21 
REMARK    9  A    between atoms: C14_24  and  N4_25 
REMARK   10  A    between atoms: C19_33  and  N6_34 
ROOT
HETATM    1  N2  UNL     1      16.508 -17.084  21.853  1.00  0.00    -0.185 N 
ATOM      2  H2  UNL     1      17.193 -17.115  21.098  1.00  0.00     0.184 HD
ENDROOT
BRANCH   1   3
HETATM    3  C12 UNL     1      17.044 -17.335  23.110  1.00  0.00     0.121 A 
HETATM    4  C3  UNL     1      17.698 -16.348  23.815  1.00  0.00     0.110 A 
HETATM    5  C4  UNL     1      18.226 -16.721  25.065  1.00  0.00     0.042 A 
HETATM    6  C9  UNL     1      18.088 -18.011  25.546  1.00  0.00     0.130 A 
HETATM    7  F1  UNL     1      18.565 -18.412  26.767  1.00  0.00    -0.205 F 
HETATM    8  C10 UNL     1      17.422 -18.985  24.807  1.00  0.00     0.087 A 
HETATM    9  C11 UNL     1      16.906 -18.634  23.592  1.00  0.00     0.149 A 
HETATM   10  F2  UNL     1      16.276 -19.583  22.854  1.00  0.00    -0.203 F 
BRANCH   4  11
HETATM   11  O1  UNL     1      17.853 -15.070  23.363  1.00  0.00    -0.338 OA
BRANCH  11  12
HETATM   12  C2  UNL     1      18.811 -14.458  22.592  1.00  0.00     0.190 C 
HETATM   13  C1  UNL     1      18.175 -13.719  21.380  1.00  0.00     0.046 C 
BRANCH  12  14
HETATM   14  C25 UNL     1      19.761 -15.456  21.992  1.00  0.00     0.381 C 
HETATM   15  F3  UNL     1      20.786 -15.879  22.776  1.00  0.00    -0.212 F 
HETATM   16  F4  UNL     1      20.258 -14.963  20.764  1.00  0.00    -0.212 F 
ENDBRANCH  12  14
ENDBRANCH  11  12
ENDBRANCH   4  11
BRANCH   5  17
HETATM   17  C5  UNL     1      18.924 -15.731  25.902  1.00  0.00     0.277 C 
BRANCH  17  18
HETATM   18  N1  UNL     1      20.349 -15.873  25.996  1.00  0.00    -0.067 N 
ATOM     19  H12 UNL     1      20.616 -16.610  26.649  1.00  0.00     0.277 HD
ATOM     20  H11 UNL     1      20.750 -16.273  25.147  1.00  0.00     0.277 HD
BRANCH  18  21
HETATM   21  C6  UNL     1      20.968 -14.586  26.341  1.00  0.00     0.186 A 
HETATM   22  C7  UNL     1      20.619 -13.362  25.595  1.00  0.00     0.035 A 
HETATM   23  C8  UNL     1      21.909 -14.050  25.307  1.00  0.00     0.035 A 
ENDBRANCH  18  21
ENDBRANCH  17  18
ENDBRANCH   5  17
ENDBRANCH   1   3
BRANCH   1  24
HETATM   24  C13 UNL     1      15.336 -16.825  21.470  1.00  0.00     0.712 A 
HETATM   25  N3  UNL     1      14.435 -17.709  21.021  1.00  0.00    -0.021 N 
HETATM   26  C14 UNL     1      13.197 -17.396  20.619  1.00  0.00     0.709 A 
ATOM     27  H3  UNL     1      14.711 -18.691  20.984  1.00  0.00     0.203 HD
HETATM   28  N5  UNL     1      12.851 -16.100  20.676  1.00  0.00    -0.021 N 
HETATM   29  C19 UNL     1      13.737 -15.169  21.126  1.00  0.00     0.710 A 
ATOM     30  H5  UNL     1      11.918 -15.811  20.380  1.00  0.00     0.203 HD
HETATM   31  N7  UNL     1      14.966 -15.510  21.521  1.00  0.00    -0.021 N 
ATOM     32  H7  UNL     1      15.618 -14.800  21.855  1.00  0.00     0.203 HD
BRANCH  26  33
HETATM   33  N4  UNL     1      12.250 -18.336  20.147  1.00  0.00    -0.213 N 
HETATM   34  C15 UNL     1      11.246 -17.995  19.147  1.00  0.00     0.167 C 
HETATM   35  C16 UNL     1      11.067 -19.104  18.138  1.00  0.00     0.188 C 
HETATM   36  O2  UNL     1      12.092 -20.041  18.322  1.00  0.00    -0.388 OA
HETATM   37  C17 UNL     1      11.916 -20.668  19.533  1.00  0.00     0.188 C 
HETATM   38  C18 UNL     1      12.220 -19.704  20.638  1.00  0.00     0.167 C 
ENDBRANCH  26  33
BRANCH  29  39
HETATM   39  N6  UNL     1      13.360 -13.798  21.183  1.00  0.00    -0.208 N 
HETATM   40  C20 UNL     1      12.159 -13.357  21.868  1.00  0.00     0.168 C 
HETATM   41  C21 UNL     1      12.154 -11.862  21.887  1.00  0.00     0.188 C 
HETATM   42  O3  UNL     1      13.357 -11.291  22.267  1.00  0.00    -0.388 OA
HETATM   43  C22 UNL     1      14.407 -11.587  21.448  1.00  0.00     0.193 C 
HETATM   44  C23 UNL     1      14.170 -12.775  20.553  1.00  0.00     0.122 C 
HETATM   45  C24 UNL     1      13.627 -12.402  19.200  1.00  0.00     0.035 C 
ENDBRANCH  29  39
ENDBRANCH   1  24
TORSDOF 10
ENDMDL
