MODEL 1
REMARK VINA RESULT: -9.308097379      0.000      0.000
REMARK  16 active torsions:
REMARK  status: ('A' for Active; 'I' for Inactive)
REMARK    1  A    between atoms: C2_2  and  N1_3 
REMARK    2  A    between atoms: C2_2  and  C9_15 
REMARK    3  A    between atoms: N1_3  and  C3_4 
REMARK    4  A    between atoms: C3_4  and  C4_5 
REMARK    5  A    between atoms: C4_5  and  C5_6 
REMARK    6  A    between atoms: C5_6  and  C6_7 
REMARK    7  A    between atoms: C9_15  and  N6_19 
REMARK    8  A    between atoms: N6_19  and  C10_21 
REMARK    9  A    between atoms: C10_21  and  C11_22 
REMARK   10  A    between atoms: C10_21  and  C20_33 
REMARK   11  A    between atoms: C11_22  and  C12_23 
REMARK   12  A    between atoms: C20_33  and  N8_34 
REMARK       I    between atoms: N8_34  and  C22_36 
REMARK   13  A    between atoms: C22_36  and  C23_38 
REMARK   14  A    between atoms: C23_38  and  C24_39 
REMARK   15  A    between atoms: C24_39  and  N9_40 
REMARK   16  A    between atoms: N9_40  and  N10_42 
ROOT
HETATM    1  C10 UNL     1     -15.957  94.827  80.772  1.00  0.00     0.105 C 
ENDROOT
BRANCH   1   2
HETATM    2  N6  UNL     1     -16.657  94.707  81.988  1.00  0.00    -0.368 N 
ATOM      3  H6  UNL     1     -16.938  95.596  82.401  1.00  0.00     0.161 HD
BRANCH   2   4
HETATM    4  C9  UNL     1     -17.036  93.579  82.732  1.00  0.00     0.132 C 
HETATM    5  N5  UNL     1     -18.188  93.639  83.361  1.00  0.00    -0.383 N 
ATOM      6  H52 UNL     1     -18.464  92.819  83.902  1.00  0.00     0.157 HD
ATOM      7  H51 UNL     1     -18.736  94.494  83.264  1.00  0.00     0.157 HD
BRANCH   4   8
HETATM    8  C2  UNL     1     -16.277  92.394  82.867  1.00  0.00     0.122 C 
HETATM    9  C1  UNL     1     -16.146  91.214  82.044  1.00  0.00     0.089 C 
BRANCH   8  10
HETATM   10  N1  UNL     1     -15.578  92.329  83.934  1.00  0.00    -0.423 NA
BRANCH  10  11
HETATM   11  C3  UNL     1     -14.973  92.388  85.047  1.00  0.00     0.155 C 
BRANCH  11  12
HETATM   12  C4  UNL     1     -15.317  93.505  85.898  1.00  0.00     0.067 C 
BRANCH  12  13
HETATM   13  C5  UNL     1     -14.339  93.774  87.004  1.00  0.00     0.084 C 
BRANCH  13  14
HETATM   14  C6  UNL     1     -14.477  95.141  87.562  1.00  0.00     0.099 A 
HETATM   15  N2  UNL     1     -15.635  95.828  87.794  1.00  0.00    -0.340 N 
HETATM   16  C7  UNL     1     -15.312  97.017  88.300  1.00  0.00     0.199 A 
ATOM     17  H2  UNL     1     -16.580  95.489  87.612  1.00  0.00     0.168 HD
HETATM   18  N3  UNL     1     -13.985  97.108  88.396  1.00  0.00    -0.293 N 
HETATM   19  N4  UNL     1     -13.478  95.953  87.942  1.00  0.00    -0.284 N 
ATOM     20  H3  UNL     1     -13.455  97.906  88.748  1.00  0.00     0.188 HD
HETATM   21  C8  UNL     1     -12.068  95.619  87.867  1.00  0.00     0.179 C 
ENDBRANCH  13  14
ENDBRANCH  12  13
ENDBRANCH  11  12
ENDBRANCH  10  11
ENDBRANCH   8  10
ENDBRANCH   4   8
ENDBRANCH   2   4
ENDBRANCH   1   2
BRANCH   1  22
HETATM   22  C11 UNL     1     -15.453  96.188  80.387  1.00  0.00     0.065 C 
BRANCH  22  23
HETATM   23  C12 UNL     1     -14.282  96.153  79.455  1.00  0.00    -0.054 A 
HETATM   24  C13 UNL     1     -14.358  96.765  78.219  1.00  0.00     0.008 A 
HETATM   25  C14 UNL     1     -13.301  96.764  77.354  1.00  0.00     0.014 A 
HETATM   26  C15 UNL     1     -12.120  96.133  77.722  1.00  0.00    -0.008 A 
HETATM   27  C16 UNL     1     -10.935  96.005  77.023  1.00  0.00     0.030 A 
HETATM   28  C18 UNL     1     -12.006  95.514  78.943  1.00  0.00     0.042 A 
HETATM   29  C17 UNL     1     -10.094  95.284  77.862  1.00  0.00     0.089 A 
HETATM   30  N7  UNL     1     -10.762  95.009  78.995  1.00  0.00    -0.365 N 
ATOM     31  H7  UNL     1     -10.378  94.489  79.785  1.00  0.00     0.165 HD
HETATM   32  C19 UNL     1     -13.090  95.541  79.777  1.00  0.00     0.037 A 
ENDBRANCH  22  23
ENDBRANCH   1  22
BRANCH   1  33
HETATM   33  C20 UNL     1     -16.563  94.153  79.565  1.00  0.00     0.150 C 
BRANCH  33  34
HETATM   34  N8  UNL     1     -17.988  94.147  79.543  1.00  0.00    -0.354 N 
HETATM   35  C21 UNL     1     -18.732  95.380  79.474  1.00  0.00     0.152 C 
HETATM   36  C22 UNL     1     -18.710  92.926  79.582  1.00  0.00     0.221 C 
HETATM   37  O1  UNL     1     -18.070  91.850  79.644  1.00  0.00    -0.273 OA
BRANCH  36  38
HETATM   38  C23 UNL     1     -20.184  92.882  79.554  1.00  0.00     0.124 C 
BRANCH  38  39
HETATM   39  C24 UNL     1     -20.764  92.803  80.942  1.00  0.00     0.150 C 
BRANCH  39  40
HETATM   40  N9  UNL     1     -20.360  91.561  81.562  1.00  0.00    -0.322 N 
ATOM     41  H9  UNL     1     -19.414  91.481  81.933  1.00  0.00     0.181 HD
BRANCH  40  42
HETATM   42  N10 UNL     1     -21.221  90.468  81.668  1.00  0.00    -0.254 N 
HETATM   43  N11 UNL     1     -22.257  90.501  82.394  1.00  0.00    -0.331 N 
ATOM     44 2H11 UNL     1     -22.454  91.359  82.909  1.00  0.00     0.178 HD
ATOM     45 1H11 UNL     1     -22.886  89.702  82.472  1.00  0.00     0.178 HD
ATOM     46  H10 UNL     1     -21.008  89.618  81.146  1.00  0.00     0.207 HD
ENDBRANCH  40  42
ENDBRANCH  39  40
ENDBRANCH  38  39
ENDBRANCH  36  38
ENDBRANCH  33  34
ENDBRANCH   1  33
TORSDOF 16
ENDMDL
MODEL 2
REMARK VINA RESULT: -9.205784989      1.528      1.779
REMARK  16 active torsions:
REMARK  status: ('A' for Active; 'I' for Inactive)
REMARK    1  A    between atoms: C2_2  and  N1_3 
REMARK    2  A    between atoms: C2_2  and  C9_15 
REMARK    3  A    between atoms: N1_3  and  C3_4 
REMARK    4  A    between atoms: C3_4  and  C4_5 
REMARK    5  A    between atoms: C4_5  and  C5_6 
REMARK    6  A    between atoms: C5_6  and  C6_7 
REMARK    7  A    between atoms: C9_15  and  N6_19 
REMARK    8  A    between atoms: N6_19  and  C10_21 
REMARK    9  A    between atoms: C10_21  and  C11_22 
REMARK   10  A    between atoms: C10_21  and  C20_33 
REMARK   11  A    between atoms: C11_22  and  C12_23 
REMARK   12  A    between atoms: C20_33  and  N8_34 
REMARK       I    between atoms: N8_34  and  C22_36 
REMARK   13  A    between atoms: C22_36  and  C23_38 
REMARK   14  A    between atoms: C23_38  and  C24_39 
REMARK   15  A    between atoms: C24_39  and  N9_40 
REMARK   16  A    between atoms: N9_40  and  N10_42 
ROOT
HETATM    1  C10 UNL     1     -16.262  94.657  81.198  1.00  0.00     0.105 C 
ENDROOT
BRANCH   1   2
HETATM    2  N6  UNL     1     -16.943  94.492  82.419  1.00  0.00    -0.368 N 
ATOM      3  H6  UNL     1     -17.862  94.933  82.451  1.00  0.00     0.161 HD
BRANCH   2   4
HETATM    4  C9  UNL     1     -16.580  93.827  83.600  1.00  0.00     0.132 C 
HETATM    5  N5  UNL     1     -16.879  94.419  84.735  1.00  0.00    -0.383 N 
ATOM      6  H52 UNL     1     -16.616  93.935  85.593  1.00  0.00     0.157 HD
ATOM      7  H51 UNL     1     -17.360  95.317  84.686  1.00  0.00     0.157 HD
BRANCH   4   8
HETATM    8  C2  UNL     1     -15.914  92.581  83.667  1.00  0.00     0.122 C 
HETATM    9  C1  UNL     1     -15.918  91.420  82.808  1.00  0.00     0.089 C 
BRANCH   8  10
HETATM   10  N1  UNL     1     -15.173  92.430  84.696  1.00  0.00    -0.423 NA
BRANCH  10  11
HETATM   11  C3  UNL     1     -14.315  92.332  85.625  1.00  0.00     0.155 C 
BRANCH  11  12
HETATM   12  C4  UNL     1     -14.677  92.935  86.889  1.00  0.00     0.067 C 
BRANCH  12  13
HETATM   13  C5  UNL     1     -13.612  93.799  87.498  1.00  0.00     0.084 C 
BRANCH  13  14
HETATM   14  C6  UNL     1     -14.166  95.025  88.122  1.00  0.00     0.099 A 
HETATM   15  N2  UNL     1     -15.185  95.805  87.653  1.00  0.00    -0.340 N 
HETATM   16  C7  UNL     1     -15.364  96.805  88.515  1.00  0.00     0.199 A 
ATOM     17  H2  UNL     1     -15.714  95.648  86.795  1.00  0.00     0.168 HD
HETATM   18  N3  UNL     1     -14.492  96.686  89.516  1.00  0.00    -0.293 N 
HETATM   19  N4  UNL     1     -13.758  95.591  89.269  1.00  0.00    -0.284 N 
ATOM     20  H3  UNL     1     -14.399  97.310  90.317  1.00  0.00     0.188 HD
HETATM   21  C8  UNL     1     -12.687  95.085  90.105  1.00  0.00     0.179 C 
ENDBRANCH  13  14
ENDBRANCH  12  13
ENDBRANCH  11  12
ENDBRANCH  10  11
ENDBRANCH   8  10
ENDBRANCH   4   8
ENDBRANCH   2   4
ENDBRANCH   1   2
BRANCH   1  22
HETATM   22  C11 UNL     1     -16.141  96.050  80.648  1.00  0.00     0.065 C 
BRANCH  22  23
HETATM   23  C12 UNL     1     -14.741  96.426  80.271  1.00  0.00    -0.054 A 
HETATM   24  C13 UNL     1     -13.792  95.446  80.055  1.00  0.00     0.008 A 
HETATM   25  C14 UNL     1     -12.512  95.757  79.694  1.00  0.00     0.014 A 
HETATM   26  C15 UNL     1     -12.152  97.090  79.542  1.00  0.00    -0.008 A 
HETATM   27  C16 UNL     1     -10.934  97.638  79.188  1.00  0.00     0.030 A 
HETATM   28  C18 UNL     1     -13.069  98.092  79.748  1.00  0.00     0.042 A 
HETATM   29  C17 UNL     1     -11.140  99.012  79.187  1.00  0.00     0.089 A 
HETATM   30  N7  UNL     1     -12.420  99.248  79.524  1.00  0.00    -0.365 N 
ATOM     31  H7  UNL     1     -12.840 100.174  79.599  1.00  0.00     0.165 HD
HETATM   32  C19 UNL     1     -14.339  97.733  80.107  1.00  0.00     0.037 A 
ENDBRANCH  22  23
ENDBRANCH   1  22
BRANCH   1  33
HETATM   33  C20 UNL     1     -16.618  93.704  80.082  1.00  0.00     0.150 C 
BRANCH  33  34
HETATM   34  N8  UNL     1     -17.947  93.842  79.587  1.00  0.00    -0.354 N 
HETATM   35  C21 UNL     1     -18.247  94.763  78.520  1.00  0.00     0.152 C 
HETATM   36  C22 UNL     1     -19.008  93.071  80.128  1.00  0.00     0.221 C 
HETATM   37  O1  UNL     1     -18.755  92.268  81.058  1.00  0.00    -0.273 OA
BRANCH  36  38
HETATM   38  C23 UNL     1     -20.393  93.181  79.636  1.00  0.00     0.124 C 
BRANCH  38  39
HETATM   39  C24 UNL     1     -20.993  91.827  79.357  1.00  0.00     0.150 C 
BRANCH  39  40
HETATM   40  N9  UNL     1     -21.776  91.405  80.497  1.00  0.00    -0.322 N 
ATOM     41  H9  UNL     1     -22.776  91.606  80.510  1.00  0.00     0.181 HD
BRANCH  40  42
HETATM   42  N10 UNL     1     -21.210  90.733  81.581  1.00  0.00    -0.254 N 
HETATM   43  N11 UNL     1     -21.059  91.288  82.708  1.00  0.00    -0.331 N 
ATOM     44 2H11 UNL     1     -21.365  92.256  82.810  1.00  0.00     0.178 HD
ATOM     45 1H11 UNL     1     -20.646  90.796  83.500  1.00  0.00     0.178 HD
ATOM     46  H10 UNL     1     -20.910  89.765  81.461  1.00  0.00     0.207 HD
ENDBRANCH  40  42
ENDBRANCH  39  40
ENDBRANCH  38  39
ENDBRANCH  36  38
ENDBRANCH  33  34
ENDBRANCH   1  33
TORSDOF 16
ENDMDL
MODEL 3
REMARK VINA RESULT: -9.149004006      2.737      8.955
REMARK  16 active torsions:
REMARK  status: ('A' for Active; 'I' for Inactive)
REMARK    1  A    between atoms: C2_2  and  N1_3 
REMARK    2  A    between atoms: C2_2  and  C9_15 
REMARK    3  A    between atoms: N1_3  and  C3_4 
REMARK    4  A    between atoms: C3_4  and  C4_5 
REMARK    5  A    between atoms: C4_5  and  C5_6 
REMARK    6  A    between atoms: C5_6  and  C6_7 
REMARK    7  A    between atoms: C9_15  and  N6_19 
REMARK    8  A    between atoms: N6_19  and  C10_21 
REMARK    9  A    between atoms: C10_21  and  C11_22 
REMARK   10  A    between atoms: C10_21  and  C20_33 
REMARK   11  A    between atoms: C11_22  and  C12_23 
REMARK   12  A    between atoms: C20_33  and  N8_34 
REMARK       I    between atoms: N8_34  and  C22_36 
REMARK   13  A    between atoms: C22_36  and  C23_38 
REMARK   14  A    between atoms: C23_38  and  C24_39 
REMARK   15  A    between atoms: C24_39  and  N9_40 
REMARK   16  A    between atoms: N9_40  and  N10_42 
ROOT
HETATM    1  C10 UNL     1     -17.755  92.347  81.870  1.00  0.00     0.105 C 
ENDROOT
BRANCH   1   2
HETATM    2  N6  UNL     1     -18.984  91.816  81.433  1.00  0.00    -0.368 N 
ATOM      3  H6  UNL     1     -18.897  91.043  80.774  1.00  0.00     0.161 HD
BRANCH   2   4
HETATM    4  C9  UNL     1     -20.307  92.164  81.744  1.00  0.00     0.132 C 
HETATM    5  N5  UNL     1     -20.917  91.438  82.654  1.00  0.00    -0.383 N 
ATOM      6  H52 UNL     1     -21.879  91.691  82.880  1.00  0.00     0.157 HD
ATOM      7  H51 UNL     1     -20.391  90.675  83.080  1.00  0.00     0.157 HD
BRANCH   4   8
HETATM    8  C2  UNL     1     -21.036  93.222  81.152  1.00  0.00     0.122 C 
HETATM    9  C1  UNL     1     -20.927  94.659  81.244  1.00  0.00     0.089 C 
BRANCH   8  10
HETATM   10  N1  UNL     1     -21.999  92.848  80.401  1.00  0.00    -0.423 NA
BRANCH  10  11
HETATM   11  C3  UNL     1     -22.938  92.619  79.581  1.00  0.00     0.155 C 
BRANCH  11  12
HETATM   12  C4  UNL     1     -24.132  92.017  80.134  1.00  0.00     0.067 C 
BRANCH  12  13
HETATM   13  C5  UNL     1     -23.933  90.644  80.706  1.00  0.00     0.084 C 
BRANCH  13  14
HETATM   14  C6  UNL     1     -24.859  90.359  81.828  1.00  0.00     0.099 A 
HETATM   15  N2  UNL     1     -24.680  90.666  83.147  1.00  0.00    -0.340 N 
HETATM   16  C7  UNL     1     -25.749  90.234  83.816  1.00  0.00     0.199 A 
ATOM     17  H2  UNL     1     -23.872  91.141  83.549  1.00  0.00     0.168 HD
HETATM   18  N3  UNL     1     -26.600  89.662  82.964  1.00  0.00    -0.293 N 
HETATM   19  N4  UNL     1     -26.048  89.742  81.745  1.00  0.00    -0.284 N 
ATOM     20  H3  UNL     1     -27.501  89.244  83.196  1.00  0.00     0.188 HD
HETATM   21  C8  UNL     1     -26.636  89.243  80.516  1.00  0.00     0.179 C 
ENDBRANCH  13  14
ENDBRANCH  12  13
ENDBRANCH  11  12
ENDBRANCH  10  11
ENDBRANCH   8  10
ENDBRANCH   4   8
ENDBRANCH   2   4
ENDBRANCH   1   2
BRANCH   1  22
HETATM   22  C11 UNL     1     -17.792  93.460  82.878  1.00  0.00     0.065 C 
BRANCH  22  23
HETATM   23  C12 UNL     1     -16.782  93.312  83.973  1.00  0.00    -0.054 A 
HETATM   24  C13 UNL     1     -15.927  92.227  83.988  1.00  0.00     0.008 A 
HETATM   25  C14 UNL     1     -14.984  92.073  84.965  1.00  0.00     0.014 A 
HETATM   26  C15 UNL     1     -14.881  93.028  85.968  1.00  0.00    -0.008 A 
HETATM   27  C16 UNL     1     -14.016  93.083  87.045  1.00  0.00     0.030 A 
HETATM   28  C18 UNL     1     -15.714  94.120  85.986  1.00  0.00     0.042 A 
HETATM   29  C17 UNL     1     -14.353  94.249  87.722  1.00  0.00     0.089 A 
HETATM   30  N7  UNL     1     -15.365  94.842  87.065  1.00  0.00    -0.365 N 
ATOM     31  H7  UNL     1     -15.807  95.717  87.347  1.00  0.00     0.165 HD
HETATM   32  C19 UNL     1     -16.642  94.233  84.988  1.00  0.00     0.037 A 
ENDBRANCH  22  23
ENDBRANCH   1  22
BRANCH   1  33
HETATM   33  C20 UNL     1     -16.729  92.662  80.808  1.00  0.00     0.150 C 
BRANCH  33  34
HETATM   34  N8  UNL     1     -16.988  93.855  80.071  1.00  0.00    -0.354 N 
HETATM   35  C21 UNL     1     -18.037  93.900  79.083  1.00  0.00     0.152 C 
HETATM   36  C22 UNL     1     -16.223  95.028  80.295  1.00  0.00     0.221 C 
HETATM   37  O1  UNL     1     -15.308  94.996  81.152  1.00  0.00    -0.273 OA
BRANCH  36  38
HETATM   38  C23 UNL     1     -16.468  96.281  79.557  1.00  0.00     0.124 C 
BRANCH  38  39
HETATM   39  C24 UNL     1     -15.188  96.870  79.024  1.00  0.00     0.150 C 
BRANCH  39  40
HETATM   40  N9  UNL     1     -14.278  95.804  78.670  1.00  0.00    -0.322 N 
ATOM     41  H9  UNL     1     -14.584  95.096  78.002  1.00  0.00     0.181 HD
BRANCH  40  42
HETATM   42  N10 UNL     1     -12.995  95.709  79.212  1.00  0.00    -0.254 N 
HETATM   43  N11 UNL     1     -12.649  96.375  80.231  1.00  0.00    -0.331 N 
ATOM     44 2H11 UNL     1     -13.339  96.994  80.656  1.00  0.00     0.178 HD
ATOM     45 1H11 UNL     1     -11.711  96.305  80.626  1.00  0.00     0.178 HD
ATOM     46  H10 UNL     1     -12.318  95.084  78.774  1.00  0.00     0.207 HD
ENDBRANCH  40  42
ENDBRANCH  39  40
ENDBRANCH  38  39
ENDBRANCH  36  38
ENDBRANCH  33  34
ENDBRANCH   1  33
TORSDOF 16
ENDMDL
MODEL 4
REMARK VINA RESULT: -9.133090816      1.986      2.927
REMARK  16 active torsions:
REMARK  status: ('A' for Active; 'I' for Inactive)
REMARK    1  A    between atoms: C2_2  and  N1_3 
REMARK    2  A    between atoms: C2_2  and  C9_15 
REMARK    3  A    between atoms: N1_3  and  C3_4 
REMARK    4  A    between atoms: C3_4  and  C4_5 
REMARK    5  A    between atoms: C4_5  and  C5_6 
REMARK    6  A    between atoms: C5_6  and  C6_7 
REMARK    7  A    between atoms: C9_15  and  N6_19 
REMARK    8  A    between atoms: N6_19  and  C10_21 
REMARK    9  A    between atoms: C10_21  and  C11_22 
REMARK   10  A    between atoms: C10_21  and  C20_33 
REMARK   11  A    between atoms: C11_22  and  C12_23 
REMARK   12  A    between atoms: C20_33  and  N8_34 
REMARK       I    between atoms: N8_34  and  C22_36 
REMARK   13  A    between atoms: C22_36  and  C23_38 
REMARK   14  A    between atoms: C23_38  and  C24_39 
REMARK   15  A    between atoms: C24_39  and  N9_40 
REMARK   16  A    between atoms: N9_40  and  N10_42 
ROOT
HETATM    1  C10 UNL     1     -17.599  93.612  82.068  1.00  0.00     0.105 C 
ENDROOT
BRANCH   1   2
HETATM    2  N6  UNL     1     -17.731  93.805  83.456  1.00  0.00    -0.368 N 
ATOM      3  H6  UNL     1     -18.695  93.889  83.779  1.00  0.00     0.161 HD
BRANCH   2   4
HETATM    4  C9  UNL     1     -16.772  93.904  84.475  1.00  0.00     0.132 C 
HETATM    5  N5  UNL     1     -16.893  94.907  85.315  1.00  0.00    -0.383 N 
ATOM      6  H52 UNL     1     -16.195  94.978  86.056  1.00  0.00     0.157 HD
ATOM      7  H51 UNL     1     -17.677  95.545  85.179  1.00  0.00     0.157 HD
BRANCH   4   8
HETATM    8  C2  UNL     1     -15.684  93.020  84.664  1.00  0.00     0.122 C 
HETATM    9  C1  UNL     1     -15.103  91.989  83.835  1.00  0.00     0.089 C 
BRANCH   8  10
HETATM   10  N1  UNL     1     -15.102  93.127  85.795  1.00  0.00    -0.423 NA
BRANCH  10  11
HETATM   11  C3  UNL     1     -14.442  93.101  86.878  1.00  0.00     0.155 C 
BRANCH  11  12
HETATM   12  C4  UNL     1     -13.753  94.322  87.231  1.00  0.00     0.067 C 
BRANCH  12  13
HETATM   13  C5  UNL     1     -13.660  94.584  88.706  1.00  0.00     0.084 C 
BRANCH  13  14
HETATM   14  C6  UNL     1     -13.919  96.005  89.046  1.00  0.00     0.099 A 
HETATM   15  N2  UNL     1     -14.409  96.977  88.221  1.00  0.00    -0.340 N 
HETATM   16  C7  UNL     1     -14.488  98.107  88.923  1.00  0.00     0.199 A 
ATOM     17  H2  UNL     1     -14.669  96.859  87.242  1.00  0.00     0.168 HD
HETATM   18  N3  UNL     1     -14.063  97.883  90.167  1.00  0.00    -0.293 N 
HETATM   19  N4  UNL     1     -13.715  96.591  90.236  1.00  0.00    -0.284 N 
ATOM     20  H3  UNL     1     -14.012  98.567  90.923  1.00  0.00     0.188 HD
HETATM   21  C8  UNL     1     -13.197  95.916  91.411  1.00  0.00     0.179 C 
ENDBRANCH  13  14
ENDBRANCH  12  13
ENDBRANCH  11  12
ENDBRANCH  10  11
ENDBRANCH   8  10
ENDBRANCH   4   8
ENDBRANCH   2   4
ENDBRANCH   1   2
BRANCH   1  22
HETATM   22  C11 UNL     1     -17.957  94.757  81.165  1.00  0.00     0.065 C 
BRANCH  22  23
HETATM   23  C12 UNL     1     -16.795  95.301  80.394  1.00  0.00    -0.054 A 
HETATM   24  C13 UNL     1     -15.503  94.981  80.766  1.00  0.00     0.008 A 
HETATM   25  C14 UNL     1     -14.423  95.449  80.073  1.00  0.00     0.014 A 
HETATM   26  C15 UNL     1     -14.624  96.265  78.968  1.00  0.00    -0.008 A 
HETATM   27  C16 UNL     1     -13.698  96.848  78.124  1.00  0.00     0.030 A 
HETATM   28  C18 UNL     1     -15.894  96.604  78.568  1.00  0.00     0.042 A 
HETATM   29  C17 UNL     1     -14.449  97.557  77.194  1.00  0.00     0.089 A 
HETATM   30  N7  UNL     1     -15.750  97.390  77.486  1.00  0.00    -0.365 N 
ATOM     31  H7  UNL     1     -16.522  97.802  76.961  1.00  0.00     0.165 HD
HETATM   32  C19 UNL     1     -16.945  96.113  79.291  1.00  0.00     0.037 A 
ENDBRANCH  22  23
ENDBRANCH   1  22
BRANCH   1  33
HETATM   33  C20 UNL     1     -18.154  92.329  81.500  1.00  0.00     0.150 C 
BRANCH  33  34
HETATM   34  N8  UNL     1     -19.481  92.433  80.988  1.00  0.00    -0.354 N 
HETATM   35  C21 UNL     1     -19.719  92.576  79.574  1.00  0.00     0.152 C 
HETATM   36  C22 UNL     1     -20.601  92.394  81.859  1.00  0.00     0.221 C 
HETATM   37  O1  UNL     1     -20.401  92.272  83.091  1.00  0.00    -0.273 OA
BRANCH  36  38
HETATM   38  C23 UNL     1     -21.986  92.491  81.365  1.00  0.00     0.124 C 
BRANCH  38  39
HETATM   39  C24 UNL     1     -22.604  91.131  81.172  1.00  0.00     0.150 C 
BRANCH  39  40
HETATM   40  N9  UNL     1     -22.448  90.356  82.383  1.00  0.00    -0.322 N 
ATOM     41  H9  UNL     1     -21.633  90.522  82.972  1.00  0.00     0.181 HD
BRANCH  40  42
HETATM   42  N10 UNL     1     -23.376  89.389  82.772  1.00  0.00    -0.254 N 
HETATM   43  N11 UNL     1     -24.545  89.697  83.146  1.00  0.00    -0.331 N 
ATOM     44 2H11 UNL     1     -24.801  90.685  83.158  1.00  0.00     0.178 HD
ATOM     45 1H11 UNL     1     -25.224  88.990  83.431  1.00  0.00     0.178 HD
ATOM     46  H10 UNL     1     -23.104  88.406  82.754  1.00  0.00     0.207 HD
ENDBRANCH  40  42
ENDBRANCH  39  40
ENDBRANCH  38  39
ENDBRANCH  36  38
ENDBRANCH  33  34
ENDBRANCH   1  33
TORSDOF 16
ENDMDL
MODEL 5
REMARK VINA RESULT: -9.050115086      2.703      3.788
REMARK  16 active torsions:
REMARK  status: ('A' for Active; 'I' for Inactive)
REMARK    1  A    between atoms: C2_2  and  N1_3 
REMARK    2  A    between atoms: C2_2  and  C9_15 
REMARK    3  A    between atoms: N1_3  and  C3_4 
REMARK    4  A    between atoms: C3_4  and  C4_5 
REMARK    5  A    between atoms: C4_5  and  C5_6 
REMARK    6  A    between atoms: C5_6  and  C6_7 
REMARK    7  A    between atoms: C9_15  and  N6_19 
REMARK    8  A    between atoms: N6_19  and  C10_21 
REMARK    9  A    between atoms: C10_21  and  C11_22 
REMARK   10  A    between atoms: C10_21  and  C20_33 
REMARK   11  A    between atoms: C11_22  and  C12_23 
REMARK   12  A    between atoms: C20_33  and  N8_34 
REMARK       I    between atoms: N8_34  and  C22_36 
REMARK   13  A    between atoms: C22_36  and  C23_38 
REMARK   14  A    between atoms: C23_38  and  C24_39 
REMARK   15  A    between atoms: C24_39  and  N9_40 
REMARK   16  A    between atoms: N9_40  and  N10_42 
ROOT
HETATM    1  C10 UNL     1     -18.424  92.244  81.772  1.00  0.00     0.105 C 
ENDROOT
BRANCH   1   2
HETATM    2  N6  UNL     1     -18.019  92.337  83.117  1.00  0.00    -0.368 N 
ATOM      3  H6  UNL     1     -18.780  92.514  83.773  1.00  0.00     0.161 HD
BRANCH   2   4
HETATM    4  C9  UNL     1     -16.755  92.228  83.714  1.00  0.00     0.132 C 
HETATM    5  N5  UNL     1     -16.017  91.197  83.368  1.00  0.00    -0.383 N 
ATOM      6  H52 UNL     1     -15.097  91.119  83.802  1.00  0.00     0.157 HD
ATOM      7  H51 UNL     1     -16.405  90.547  82.684  1.00  0.00     0.157 HD
BRANCH   4   8
HETATM    8  C2  UNL     1     -16.217  93.129  84.663  1.00  0.00     0.122 C 
HETATM    9  C1  UNL     1     -16.555  94.485  85.028  1.00  0.00     0.089 C 
BRANCH   8  10
HETATM   10  N1  UNL     1     -15.221  92.676  85.321  1.00  0.00    -0.423 NA
BRANCH  10  11
HETATM   11  C3  UNL     1     -14.184  92.380  85.988  1.00  0.00     0.155 C 
BRANCH  11  12
HETATM   12  C4  UNL     1     -14.180  92.798  87.373  1.00  0.00     0.067 C 
BRANCH  12  13
HETATM   13  C5  UNL     1     -13.218  93.906  87.689  1.00  0.00     0.084 C 
BRANCH  13  14
HETATM   14  C6  UNL     1     -13.888  95.079  88.301  1.00  0.00     0.099 A 
HETATM   15  N2  UNL     1     -14.906  95.821  87.771  1.00  0.00    -0.340 N 
HETATM   16  C7  UNL     1     -15.212  96.779  88.645  1.00  0.00     0.199 A 
ATOM     17  H2  UNL     1     -15.353  95.667  86.867  1.00  0.00     0.168 HD
HETATM   18  N3  UNL     1     -14.420  96.671  89.712  1.00  0.00    -0.293 N 
HETATM   19  N4  UNL     1     -13.610  95.625  89.495  1.00  0.00    -0.284 N 
ATOM     20  H3  UNL     1     -14.429  97.270  90.538  1.00  0.00     0.188 HD
HETATM   21  C8  UNL     1     -12.586  95.146  90.404  1.00  0.00     0.179 C 
ENDBRANCH  13  14
ENDBRANCH  12  13
ENDBRANCH  11  12
ENDBRANCH  10  11
ENDBRANCH   8  10
ENDBRANCH   4   8
ENDBRANCH   2   4
ENDBRANCH   1   2
BRANCH   1  22
HETATM   22  C11 UNL     1     -17.353  92.232  80.718  1.00  0.00     0.065 C 
BRANCH  22  23
HETATM   23  C12 UNL     1     -16.995  93.594  80.211  1.00  0.00    -0.054 A 
HETATM   24  C13 UNL     1     -16.020  94.338  80.847  1.00  0.00     0.008 A 
HETATM   25  C14 UNL     1     -15.660  95.577  80.398  1.00  0.00     0.014 A 
HETATM   26  C15 UNL     1     -16.286  96.104  79.276  1.00  0.00    -0.008 A 
HETATM   27  C16 UNL     1     -16.090  97.319  78.647  1.00  0.00     0.030 A 
HETATM   28  C18 UNL     1     -17.259  95.393  78.617  1.00  0.00     0.042 A 
HETATM   29  C17 UNL     1     -16.980  97.323  77.580  1.00  0.00     0.089 A 
HETATM   30  N7  UNL     1     -17.659  96.164  77.591  1.00  0.00    -0.365 N 
ATOM     31  H7  UNL     1     -18.378  95.905  76.915  1.00  0.00     0.165 HD
HETATM   32  C19 UNL     1     -17.587  94.157  79.102  1.00  0.00     0.037 A 
ENDBRANCH  22  23
ENDBRANCH   1  22
BRANCH   1  33
HETATM   33  C20 UNL     1     -19.552  93.147  81.333  1.00  0.00     0.150 C 
BRANCH  33  34
HETATM   34  N8  UNL     1     -20.717  92.461  80.880  1.00  0.00    -0.354 N 
HETATM   35  C21 UNL     1     -21.006  92.343  79.473  1.00  0.00     0.152 C 
HETATM   36  C22 UNL     1     -21.619  91.874  81.805  1.00  0.00     0.221 C 
HETATM   37  O1  UNL     1     -21.375  91.975  83.031  1.00  0.00    -0.273 OA
BRANCH  36  38
HETATM   38  C23 UNL     1     -22.830  91.151  81.373  1.00  0.00     0.124 C 
BRANCH  38  39
HETATM   39  C24 UNL     1     -23.222  90.084  82.361  1.00  0.00     0.150 C 
BRANCH  39  40
HETATM   40  N9  UNL     1     -24.373  90.527  83.116  1.00  0.00    -0.322 N 
ATOM     41  H9  UNL     1     -24.294  91.370  83.684  1.00  0.00     0.181 HD
BRANCH  40  42
HETATM   42  N10 UNL     1     -25.587  89.840  83.093  1.00  0.00    -0.254 N 
HETATM   43  N11 UNL     1     -26.026  89.224  84.108  1.00  0.00    -0.331 N 
ATOM     44 2H11 UNL     1     -25.464  89.241  84.959  1.00  0.00     0.178 HD
ATOM     45 1H11 UNL     1     -26.914  88.723  84.091  1.00  0.00     0.178 HD
ATOM     46  H10 UNL     1     -26.137  89.835  82.234  1.00  0.00     0.207 HD
ENDBRANCH  40  42
ENDBRANCH  39  40
ENDBRANCH  38  39
ENDBRANCH  36  38
ENDBRANCH  33  34
ENDBRANCH   1  33
TORSDOF 16
ENDMDL
