MODEL 1
REMARK VINA RESULT: -9.573687193      0.000      0.000
REMARK  15 active torsions:
REMARK  status: ('A' for Active; 'I' for Inactive)
REMARK    1  A    between atoms: C2_2  and  C3_3 
REMARK    2  A    between atoms: C2_2  and  C4_6 
REMARK    3  A    between atoms: C3_3  and  O1_4 
REMARK    4  A    between atoms: C4_6  and  C5_7 
REMARK    5  A    between atoms: C5_7  and  C6_8 
REMARK    6  A    between atoms: C6_8  and  C7_9 
REMARK    7  A    between atoms: C7_9  and  N1_10 
REMARK       I    between atoms: N1_10  and  C8_12 
REMARK    8  A    between atoms: C8_12  and  C9_14 
REMARK    9  A    between atoms: N2_17  and  C12_18 
REMARK   10  A    between atoms: C13_19  and  C14_20 
REMARK   11  A    between atoms: N3_23  and  C17_24 
REMARK   12  A    between atoms: C17_24  and  C18_25 
REMARK   13  A    between atoms: C18_25  and  N4_26 
REMARK   14  A    between atoms: C21_29  and  C22_30 
REMARK   15  A    between atoms: N5_31  and  N6_33 
ROOT
HETATM    1  C12 UNL     1     -19.295  92.391  82.547  1.00  0.00     0.118 C 
HETATM    2  C13 UNL     1     -18.015  92.520  82.333  1.00  0.00     0.030 C 
ENDROOT
BRANCH   2   3
HETATM    3  C14 UNL     1     -17.067  92.758  83.406  1.00  0.00    -0.032 A 
HETATM    4  C15 UNL     1     -16.087  91.793  83.669  1.00  0.00     0.028 A 
HETATM    5  C16 UNL     1     -15.167  91.979  84.680  1.00  0.00     0.091 A 
HETATM    6  N3  UNL     1     -15.154  93.061  85.450  1.00  0.00    -0.365 N 
HETATM    7  C23 UNL     1     -16.082  94.002  85.221  1.00  0.00     0.091 A 
HETATM    8  C24 UNL     1     -17.044  93.872  84.210  1.00  0.00     0.028 A 
BRANCH   6   9
HETATM    9  C17 UNL     1     -14.207  93.267  86.501  1.00  0.00     0.149 C 
BRANCH   9  10
HETATM   10  C18 UNL     1     -14.828  93.559  87.829  1.00  0.00     0.168 C 
BRANCH  10  11
HETATM   11  N4  UNL     1     -14.046  94.652  88.435  1.00  0.00    -0.301 N 
HETATM   12  C19 UNL     1     -12.711  94.683  88.501  1.00  0.00     0.112 A 
HETATM   13  C20 UNL     1     -12.378  95.866  89.139  1.00  0.00     0.051 A 
HETATM   14  C21 UNL     1     -13.530  96.551  89.460  1.00  0.00     0.066 A 
HETATM   15  N8  UNL     1     -14.535  95.739  88.992  1.00  0.00    -0.298 N 
ATOM     16  H8  UNL     1     -15.530  95.951  89.068  1.00  0.00     0.187 HD
BRANCH  14  17
HETATM   17  C22 UNL     1     -13.723  97.824  90.126  1.00  0.00     0.139 C 
HETATM   18  N5  UNL     1     -13.660  98.004  91.362  1.00  0.00    -0.296 N 
ATOM     19  H5  UNL     1     -13.823  98.969  91.650  1.00  0.00     0.187 HD
BRANCH  18  20
HETATM   20  N6  UNL     1     -13.413  97.147  92.398  1.00  0.00    -0.250 N 
HETATM   21  N7  UNL     1     -12.325  97.270  93.065  1.00  0.00    -0.331 N 
ATOM     22  H72 UNL     1     -11.662  98.003  92.812  1.00  0.00     0.178 HD
ATOM     23  H71 UNL     1     -12.140  96.630  93.838  1.00  0.00     0.178 HD
ATOM     24  H6  UNL     1     -14.087  96.420  92.638  1.00  0.00     0.207 HD
ENDBRANCH  18  20
ENDBRANCH  14  17
ENDBRANCH  10  11
ENDBRANCH   9  10
ENDBRANCH   6   9
ENDBRANCH   2   3
BRANCH   1  25
HETATM   25  N2  UNL     1     -20.174  92.160  81.468  1.00  0.00    -0.264 N 
HETATM   26  C11 UNL     1     -20.160  92.912  80.444  1.00  0.00     0.119 A 
HETATM   27  C10 UNL     1     -21.080  92.660  79.332  1.00  0.00     0.056 A 
HETATM   28  C9  UNL     1     -21.936  91.673  79.341  1.00  0.00     0.118 A 
HETATM   29  N10 UNL     1     -21.927  90.842  80.510  1.00  0.00    -0.281 N 
HETATM   30  N9  UNL     1     -21.059  91.093  81.542  1.00  0.00    -0.236 N 
ATOM     31  H10 UNL     1     -22.573  90.055  80.573  1.00  0.00     0.188 HD
ATOM     32  H9  UNL     1     -21.064  90.493  82.368  1.00  0.00     0.209 HD
BRANCH  28  33
HETATM   33  C8  UNL     1     -22.870  91.380  78.262  1.00  0.00     0.269 C 
HETATM   34  N1  UNL     1     -23.883  90.436  78.404  1.00  0.00    -0.356 N 
ATOM     35  H1  UNL     1     -23.937  89.950  79.300  1.00  0.00     0.162 HD
HETATM   36  O2  UNL     1     -22.731  92.014  77.186  1.00  0.00    -0.266 OA
BRANCH  34  37
HETATM   37  C7  UNL     1     -24.875  90.072  77.401  1.00  0.00     0.123 C 
BRANCH  37  38
HETATM   38  C6  UNL     1     -26.183  89.799  78.095  1.00  0.00     0.020 C 
BRANCH  38  39
HETATM   39  C5  UNL     1     -26.140  88.494  78.775  1.00  0.00     0.002 C 
BRANCH  39  40
HETATM   40  C4  UNL     1     -26.514  88.353  80.187  1.00  0.00     0.006 C 
BRANCH  40  41
HETATM   41  C2  UNL     1     -26.554  89.521  81.077  1.00  0.00     0.005 C 
HETATM   42  C1  UNL     1     -27.677  89.428  82.110  1.00  0.00     0.012 C 
BRANCH  41  43
HETATM   43  C3  UNL     1     -25.326  90.019  81.731  1.00  0.00     0.168 C 
BRANCH  43  44
HETATM   44  O1  UNL     1     -24.216  89.202  81.536  1.00  0.00    -0.400 OA
ATOM     45  H1  UNL     1     -23.521  89.344  82.168  1.00  0.00     0.209 HD
ENDBRANCH  43  44
ENDBRANCH  41  43
ENDBRANCH  40  41
ENDBRANCH  39  40
ENDBRANCH  38  39
ENDBRANCH  37  38
ENDBRANCH  34  37
ENDBRANCH  28  33
ENDBRANCH   1  25
TORSDOF 15
ENDMDL
MODEL 2
REMARK VINA RESULT: -9.541486656      3.784     13.476
REMARK  15 active torsions:
REMARK  status: ('A' for Active; 'I' for Inactive)
REMARK    1  A    between atoms: C2_2  and  C3_3 
REMARK    2  A    between atoms: C2_2  and  C4_6 
REMARK    3  A    between atoms: C3_3  and  O1_4 
REMARK    4  A    between atoms: C4_6  and  C5_7 
REMARK    5  A    between atoms: C5_7  and  C6_8 
REMARK    6  A    between atoms: C6_8  and  C7_9 
REMARK    7  A    between atoms: C7_9  and  N1_10 
REMARK       I    between atoms: N1_10  and  C8_12 
REMARK    8  A    between atoms: C8_12  and  C9_14 
REMARK    9  A    between atoms: N2_17  and  C12_18 
REMARK   10  A    between atoms: C13_19  and  C14_20 
REMARK   11  A    between atoms: N3_23  and  C17_24 
REMARK   12  A    between atoms: C17_24  and  C18_25 
REMARK   13  A    between atoms: C18_25  and  N4_26 
REMARK   14  A    between atoms: C21_29  and  C22_30 
REMARK   15  A    between atoms: N5_31  and  N6_33 
ROOT
HETATM    1  C12 UNL     1     -18.120  92.643  82.302  1.00  0.00     0.118 C 
HETATM    2  C13 UNL     1     -19.416  92.618  82.447  1.00  0.00     0.030 C 
ENDROOT
BRANCH   2   3
HETATM    3  C14 UNL     1     -20.314  92.290  81.355  1.00  0.00    -0.032 A 
HETATM    4  C15 UNL     1     -21.422  91.471  81.613  1.00  0.00     0.028 A 
HETATM    5  C16 UNL     1     -22.300  91.135  80.605  1.00  0.00     0.091 A 
HETATM    6  N3  UNL     1     -22.154  91.556  79.354  1.00  0.00    -0.365 N 
HETATM    7  C23 UNL     1     -21.101  92.340  79.077  1.00  0.00     0.091 A 
HETATM    8  C24 UNL     1     -20.173  92.718  80.058  1.00  0.00     0.028 A 
BRANCH   6   9
HETATM    9  C17 UNL     1     -23.057  91.214  78.299  1.00  0.00     0.149 C 
BRANCH   9  10
HETATM   10  C18 UNL     1     -24.439  91.751  78.487  1.00  0.00     0.168 C 
BRANCH  10  11
HETATM   11  N4  UNL     1     -25.253  90.651  79.037  1.00  0.00    -0.301 N 
HETATM   12  C19 UNL     1     -25.386  89.449  78.468  1.00  0.00     0.112 A 
HETATM   13  C20 UNL     1     -26.224  88.717  79.292  1.00  0.00     0.051 A 
HETATM   14  C21 UNL     1     -26.598  89.492  80.368  1.00  0.00     0.066 A 
HETATM   15  N8  UNL     1     -25.956  90.688  80.148  1.00  0.00    -0.298 N 
ATOM     16  H8  UNL     1     -26.018  91.497  80.766  1.00  0.00     0.187 HD
BRANCH  14  17
HETATM   17  C22 UNL     1     -27.454  89.196  81.500  1.00  0.00     0.139 C 
HETATM   18  N5  UNL     1     -27.103  89.254  82.699  1.00  0.00    -0.296 N 
ATOM     19  H5  UNL     1     -27.842  89.011  83.360  1.00  0.00     0.187 HD
BRANCH  18  20
HETATM   20  N6  UNL     1     -25.915  89.582  83.289  1.00  0.00    -0.250 N 
HETATM   21  N7  UNL     1     -25.756  90.764  83.759  1.00  0.00    -0.331 N 
ATOM     22  H72 UNL     1     -26.517  91.439  83.686  1.00  0.00     0.178 HD
ATOM     23  H71 UNL     1     -24.869  91.009  84.199  1.00  0.00     0.178 HD
ATOM     24  H6  UNL     1     -25.164  88.895  83.353  1.00  0.00     0.207 HD
ENDBRANCH  18  20
ENDBRANCH  14  17
ENDBRANCH  10  11
ENDBRANCH   9  10
ENDBRANCH   6   9
ENDBRANCH   2   3
BRANCH   1  25
HETATM   25  N2  UNL     1     -17.291  92.969  83.397  1.00  0.00    -0.264 N 
HETATM   26  C11 UNL     1     -16.348  92.196  83.752  1.00  0.00     0.119 A 
HETATM   27  C10 UNL     1     -15.496  92.548  84.890  1.00  0.00     0.056 A 
HETATM   28  C9  UNL     1     -15.664  93.648  85.577  1.00  0.00     0.118 A 
HETATM   29  N10 UNL     1     -16.736  94.499  85.151  1.00  0.00    -0.281 N 
HETATM   30  N9  UNL     1     -17.524  94.153  84.083  1.00  0.00    -0.236 N 
ATOM     31  H10 UNL     1     -16.914  95.372  85.648  1.00  0.00     0.188 HD
ATOM     32  H9  UNL     1     -18.284  94.768  83.792  1.00  0.00     0.209 HD
BRANCH  28  33
HETATM   33  C8  UNL     1     -14.845  94.042  86.715  1.00  0.00     0.269 C 
HETATM   34  N1  UNL     1     -13.817  93.236  87.195  1.00  0.00    -0.356 N 
ATOM     35  H1  UNL     1     -13.668  92.347  86.716  1.00  0.00     0.162 HD
HETATM   36  O2  UNL     1     -15.098  95.148  87.258  1.00  0.00    -0.266 OA
BRANCH  34  37
HETATM   37  C7  UNL     1     -12.931  93.533  88.314  1.00  0.00     0.123 C 
BRANCH  37  38
HETATM   38  C6  UNL     1     -11.891  94.519  87.854  1.00  0.00     0.020 C 
BRANCH  38  39
HETATM   39  C5  UNL     1     -11.624  95.511  88.908  1.00  0.00     0.002 C 
BRANCH  39  40
HETATM   40  C4  UNL     1     -12.122  95.328  90.276  1.00  0.00     0.006 C 
BRANCH  40  41
HETATM   41  C2  UNL     1     -13.251  96.122  90.780  1.00  0.00     0.005 C 
HETATM   42  C1  UNL     1     -13.079  96.511  92.249  1.00  0.00     0.012 C 
BRANCH  41  43
HETATM   43  C3  UNL     1     -13.761  97.284  90.022  1.00  0.00     0.168 C 
BRANCH  43  44
HETATM   44  O1  UNL     1     -14.898  97.004  89.268  1.00  0.00    -0.400 OA
ATOM     45  H1  UNL     1     -14.776  97.124  88.334  1.00  0.00     0.209 HD
ENDBRANCH  43  44
ENDBRANCH  41  43
ENDBRANCH  40  41
ENDBRANCH  39  40
ENDBRANCH  38  39
ENDBRANCH  37  38
ENDBRANCH  34  37
ENDBRANCH  28  33
ENDBRANCH   1  25
TORSDOF 15
ENDMDL
MODEL 3
REMARK VINA RESULT: -9.461848810      1.005      1.296
REMARK  15 active torsions:
REMARK  status: ('A' for Active; 'I' for Inactive)
REMARK    1  A    between atoms: C2_2  and  C3_3 
REMARK    2  A    between atoms: C2_2  and  C4_6 
REMARK    3  A    between atoms: C3_3  and  O1_4 
REMARK    4  A    between atoms: C4_6  and  C5_7 
REMARK    5  A    between atoms: C5_7  and  C6_8 
REMARK    6  A    between atoms: C6_8  and  C7_9 
REMARK    7  A    between atoms: C7_9  and  N1_10 
REMARK       I    between atoms: N1_10  and  C8_12 
REMARK    8  A    between atoms: C8_12  and  C9_14 
REMARK    9  A    between atoms: N2_17  and  C12_18 
REMARK   10  A    between atoms: C13_19  and  C14_20 
REMARK   11  A    between atoms: N3_23  and  C17_24 
REMARK   12  A    between atoms: C17_24  and  C18_25 
REMARK   13  A    between atoms: C18_25  and  N4_26 
REMARK   14  A    between atoms: C21_29  and  C22_30 
REMARK   15  A    between atoms: N5_31  and  N6_33 
ROOT
HETATM    1  C12 UNL     1     -19.094  92.558  82.331  1.00  0.00     0.118 C 
HETATM    2  C13 UNL     1     -17.803  92.663  82.179  1.00  0.00     0.030 C 
ENDROOT
BRANCH   2   3
HETATM    3  C14 UNL     1     -16.896  92.804  83.304  1.00  0.00    -0.032 A 
HETATM    4  C15 UNL     1     -15.876  91.859  83.471  1.00  0.00     0.028 A 
HETATM    5  C16 UNL     1     -14.993  91.955  84.527  1.00  0.00     0.091 A 
HETATM    6  N3  UNL     1     -15.055  92.927  85.430  1.00  0.00    -0.365 N 
HETATM    7  C23 UNL     1     -16.023  93.845  85.295  1.00  0.00     0.091 A 
HETATM    8  C24 UNL     1     -16.950  93.803  84.244  1.00  0.00     0.028 A 
BRANCH   6   9
HETATM    9  C17 UNL     1     -14.146  93.038  86.528  1.00  0.00     0.149 C 
BRANCH   9  10
HETATM   10  C18 UNL     1     -14.796  93.430  87.816  1.00  0.00     0.168 C 
BRANCH  10  11
HETATM   11  N4  UNL     1     -14.060  94.600  88.327  1.00  0.00    -0.301 N 
HETATM   12  C19 UNL     1     -12.728  94.706  88.350  1.00  0.00     0.112 A 
HETATM   13  C20 UNL     1     -12.443  95.944  88.901  1.00  0.00     0.051 A 
HETATM   14  C21 UNL     1     -13.621  96.587  89.213  1.00  0.00     0.066 A 
HETATM   15  N8  UNL     1     -14.593  95.693  88.829  1.00  0.00    -0.298 N 
ATOM     16  H8  UNL     1     -15.596  95.857  88.921  1.00  0.00     0.187 HD
BRANCH  14  17
HETATM   17  C22 UNL     1     -13.866  97.888  89.802  1.00  0.00     0.139 C 
HETATM   18  N5  UNL     1     -13.770  98.154  91.021  1.00  0.00    -0.296 N 
ATOM     19  H5  UNL     1     -13.980  99.125  91.252  1.00  0.00     0.187 HD
BRANCH  18  20
HETATM   20  N6  UNL     1     -13.436  97.384  92.100  1.00  0.00    -0.250 N 
HETATM   21  N7  UNL     1     -12.352  97.637  92.736  1.00  0.00    -0.331 N 
ATOM     22  H72 UNL     1     -11.758  98.407  92.429  1.00  0.00     0.178 HD
ATOM     23  H71 UNL     1     -12.103  97.063  93.542  1.00  0.00     0.178 HD
ATOM     24  H6  UNL     1     -14.041  96.618  92.394  1.00  0.00     0.207 HD
ENDBRANCH  18  20
ENDBRANCH  14  17
ENDBRANCH  10  11
ENDBRANCH   9  10
ENDBRANCH   6   9
ENDBRANCH   2   3
BRANCH   1  25
HETATM   25  N2  UNL     1     -19.932  92.423  81.203  1.00  0.00    -0.264 N 
HETATM   26  C11 UNL     1     -19.856  93.241  80.235  1.00  0.00     0.119 A 
HETATM   27  C10 UNL     1     -20.733  93.089  79.072  1.00  0.00     0.056 A 
HETATM   28  C9  UNL     1     -21.613  92.127  78.979  1.00  0.00     0.118 A 
HETATM   29  N10 UNL     1     -21.674  91.219  80.087  1.00  0.00    -0.281 N 
HETATM   30  N9  UNL     1     -20.845  91.378  81.169  1.00  0.00    -0.236 N 
ATOM     31  H10 UNL     1     -22.340  90.448  80.071  1.00  0.00     0.188 HD
ATOM     32  H9  UNL     1     -20.900  90.725  81.952  1.00  0.00     0.209 HD
BRANCH  28  33
HETATM   33  C8  UNL     1     -22.506  91.932  77.845  1.00  0.00     0.269 C 
HETATM   34  N1  UNL     1     -22.789  90.665  77.342  1.00  0.00    -0.356 N 
ATOM     35  H1  UNL     1     -22.333  89.876  77.800  1.00  0.00     0.162 HD
HETATM   36  O2  UNL     1     -23.021  92.956  77.328  1.00  0.00    -0.266 OA
BRANCH  34  37
HETATM   37  C7  UNL     1     -23.671  90.352  76.225  1.00  0.00     0.123 C 
BRANCH  37  38
HETATM   38  C6  UNL     1     -25.097  90.450  76.698  1.00  0.00     0.020 C 
BRANCH  38  39
HETATM   39  C5  UNL     1     -25.332  89.521  77.815  1.00  0.00     0.002 C 
BRANCH  39  40
HETATM   40  C4  UNL     1     -26.594  89.527  78.564  1.00  0.00     0.006 C 
BRANCH  40  41
HETATM   41  C2  UNL     1     -26.941  88.419  79.465  1.00  0.00     0.005 C 
HETATM   42  C1  UNL     1     -25.811  87.396  79.590  1.00  0.00     0.012 C 
BRANCH  41  43
HETATM   43  C3  UNL     1     -27.519  88.678  80.800  1.00  0.00     0.168 C 
BRANCH  43  44
HETATM   44  O1  UNL     1     -27.655  87.534  81.582  1.00  0.00    -0.400 OA
ATOM     45  H1  UNL     1     -28.545  87.207  81.630  1.00  0.00     0.209 HD
ENDBRANCH  43  44
ENDBRANCH  41  43
ENDBRANCH  40  41
ENDBRANCH  39  40
ENDBRANCH  38  39
ENDBRANCH  37  38
ENDBRANCH  34  37
ENDBRANCH  28  33
ENDBRANCH   1  25
TORSDOF 15
ENDMDL
MODEL 4
REMARK VINA RESULT: -9.427061658      4.183     14.338
REMARK  15 active torsions:
REMARK  status: ('A' for Active; 'I' for Inactive)
REMARK    1  A    between atoms: C2_2  and  C3_3 
REMARK    2  A    between atoms: C2_2  and  C4_6 
REMARK    3  A    between atoms: C3_3  and  O1_4 
REMARK    4  A    between atoms: C4_6  and  C5_7 
REMARK    5  A    between atoms: C5_7  and  C6_8 
REMARK    6  A    between atoms: C6_8  and  C7_9 
REMARK    7  A    between atoms: C7_9  and  N1_10 
REMARK       I    between atoms: N1_10  and  C8_12 
REMARK    8  A    between atoms: C8_12  and  C9_14 
REMARK    9  A    between atoms: N2_17  and  C12_18 
REMARK   10  A    between atoms: C13_19  and  C14_20 
REMARK   11  A    between atoms: N3_23  and  C17_24 
REMARK   12  A    between atoms: C17_24  and  C18_25 
REMARK   13  A    between atoms: C18_25  and  N4_26 
REMARK   14  A    between atoms: C21_29  and  C22_30 
REMARK   15  A    between atoms: N5_31  and  N6_33 
ROOT
HETATM    1  C12 UNL     1     -18.179  92.678  82.351  1.00  0.00     0.118 C 
HETATM    2  C13 UNL     1     -19.469  92.616  82.532  1.00  0.00     0.030 C 
ENDROOT
BRANCH   2   3
HETATM    3  C14 UNL     1     -20.391  92.300  81.456  1.00  0.00    -0.032 A 
HETATM    4  C15 UNL     1     -21.527  91.532  81.743  1.00  0.00     0.028 A 
HETATM    5  C16 UNL     1     -22.429  91.209  80.751  1.00  0.00     0.091 A 
HETATM    6  N3  UNL     1     -22.279  91.597  79.489  1.00  0.00    -0.365 N 
HETATM    7  C23 UNL     1     -21.199  92.332  79.186  1.00  0.00     0.091 A 
HETATM    8  C24 UNL     1     -20.247  92.694  80.148  1.00  0.00     0.028 A 
BRANCH   6   9
HETATM    9  C17 UNL     1     -23.206  91.269  78.451  1.00  0.00     0.149 C 
BRANCH   9  10
HETATM   10  C18 UNL     1     -23.174  92.211  77.291  1.00  0.00     0.168 C 
BRANCH  10  11
HETATM   11  N4  UNL     1     -23.260  91.388  76.070  1.00  0.00    -0.301 N 
HETATM   12  C19 UNL     1     -23.428  90.062  76.061  1.00  0.00     0.112 A 
HETATM   13  C20 UNL     1     -23.456  89.681  74.730  1.00  0.00     0.051 A 
HETATM   14  C21 UNL     1     -23.302  90.794  73.933  1.00  0.00     0.066 A 
HETATM   15  N8  UNL     1     -23.185  91.827  74.832  1.00  0.00    -0.298 N 
ATOM     16  H8  UNL     1     -23.057  92.805  74.573  1.00  0.00     0.187 HD
BRANCH  14  17
HETATM   17  C22 UNL     1     -23.263  90.931  72.490  1.00  0.00     0.139 C 
HETATM   18  N5  UNL     1     -22.228  91.126  71.816  1.00  0.00    -0.296 N 
ATOM     19  H5  UNL     1     -22.393  91.196  70.812  1.00  0.00     0.187 HD
BRANCH  18  20
HETATM   20  N6  UNL     1     -20.916  91.263  72.175  1.00  0.00    -0.250 N 
HETATM   21  N7  UNL     1     -20.370  90.360  72.903  1.00  0.00    -0.331 N 
ATOM     22  H72 UNL     1     -20.922  89.556  73.203  1.00  0.00     0.178 HD
ATOM     23  H71 UNL     1     -19.391  90.462  73.172  1.00  0.00     0.178 HD
ATOM     24  H6  UNL     1     -20.379  92.073  71.867  1.00  0.00     0.207 HD
ENDBRANCH  18  20
ENDBRANCH  14  17
ENDBRANCH  10  11
ENDBRANCH   9  10
ENDBRANCH   6   9
ENDBRANCH   2   3
BRANCH   1  25
HETATM   25  N2  UNL     1     -17.326  92.990  83.431  1.00  0.00    -0.264 N 
HETATM   26  C11 UNL     1     -16.387  92.203  83.767  1.00  0.00     0.119 A 
HETATM   27  C10 UNL     1     -15.511  92.540  84.891  1.00  0.00     0.056 A 
HETATM   28  C9  UNL     1     -15.651  93.640  85.584  1.00  0.00     0.118 A 
HETATM   29  N10 UNL     1     -16.719  94.507  85.179  1.00  0.00    -0.281 N 
HETATM   30  N9  UNL     1     -17.531  94.175  84.124  1.00  0.00    -0.236 N 
ATOM     31  H10 UNL     1     -16.876  95.381  85.682  1.00  0.00     0.188 HD
ATOM     32  H9  UNL     1     -18.287  94.802  83.849  1.00  0.00     0.209 HD
BRANCH  28  33
HETATM   33  C8  UNL     1     -14.807  94.020  86.708  1.00  0.00     0.269 C 
HETATM   34  N1  UNL     1     -13.776  93.202  87.162  1.00  0.00    -0.356 N 
ATOM     35  H1  UNL     1     -13.644  92.316  86.674  1.00  0.00     0.162 HD
HETATM   36  O2  UNL     1     -15.040  95.124  87.263  1.00  0.00    -0.266 OA
BRANCH  34  37
HETATM   37  C7  UNL     1     -12.866  93.484  88.265  1.00  0.00     0.123 C 
BRANCH  37  38
HETATM   38  C6  UNL     1     -11.889  94.542  87.823  1.00  0.00     0.020 C 
BRANCH  38  39
HETATM   39  C5  UNL     1     -11.671  95.519  88.901  1.00  0.00     0.002 C 
BRANCH  39  40
HETATM   40  C4  UNL     1     -12.183  95.292  90.258  1.00  0.00     0.006 C 
BRANCH  40  41
HETATM   41  C2  UNL     1     -13.290  96.098  90.789  1.00  0.00     0.005 C 
HETATM   42  C1  UNL     1     -13.085  96.473  92.258  1.00  0.00     0.012 C 
BRANCH  41  43
HETATM   43  C3  UNL     1     -13.800  97.272  90.051  1.00  0.00     0.168 C 
BRANCH  43  44
HETATM   44  O1  UNL     1     -14.925  97.001  89.277  1.00  0.00    -0.400 OA
ATOM     45  H1  UNL     1     -15.492  96.334  89.646  1.00  0.00     0.209 HD
ENDBRANCH  43  44
ENDBRANCH  41  43
ENDBRANCH  40  41
ENDBRANCH  39  40
ENDBRANCH  38  39
ENDBRANCH  37  38
ENDBRANCH  34  37
ENDBRANCH  28  33
ENDBRANCH   1  25
TORSDOF 15
ENDMDL
MODEL 5
REMARK VINA RESULT: -9.418339619      1.059      1.485
REMARK  15 active torsions:
REMARK  status: ('A' for Active; 'I' for Inactive)
REMARK    1  A    between atoms: C2_2  and  C3_3 
REMARK    2  A    between atoms: C2_2  and  C4_6 
REMARK    3  A    between atoms: C3_3  and  O1_4 
REMARK    4  A    between atoms: C4_6  and  C5_7 
REMARK    5  A    between atoms: C5_7  and  C6_8 
REMARK    6  A    between atoms: C6_8  and  C7_9 
REMARK    7  A    between atoms: C7_9  and  N1_10 
REMARK       I    between atoms: N1_10  and  C8_12 
REMARK    8  A    between atoms: C8_12  and  C9_14 
REMARK    9  A    between atoms: N2_17  and  C12_18 
REMARK   10  A    between atoms: C13_19  and  C14_20 
REMARK   11  A    between atoms: N3_23  and  C17_24 
REMARK   12  A    between atoms: C17_24  and  C18_25 
REMARK   13  A    between atoms: C18_25  and  N4_26 
REMARK   14  A    between atoms: C21_29  and  C22_30 
REMARK   15  A    between atoms: N5_31  and  N6_33 
ROOT
HETATM    1  C12 UNL     1     -19.374  92.698  82.711  1.00  0.00     0.118 C 
HETATM    2  C13 UNL     1     -18.103  92.810  82.443  1.00  0.00     0.030 C 
ENDROOT
BRANCH   2   3
HETATM    3  C14 UNL     1     -17.091  92.866  83.483  1.00  0.00    -0.032 A 
HETATM    4  C15 UNL     1     -16.214  91.783  83.631  1.00  0.00     0.028 A 
HETATM    5  C16 UNL     1     -15.239  91.795  84.606  1.00  0.00     0.091 A 
HETATM    6  N3  UNL     1     -15.075  92.809  85.447  1.00  0.00    -0.365 N 
HETATM    7  C23 UNL     1     -15.901  93.859  85.329  1.00  0.00     0.091 A 
HETATM    8  C24 UNL     1     -16.912  93.908  84.359  1.00  0.00     0.028 A 
BRANCH   6   9
HETATM    9  C17 UNL     1     -14.068  92.834  86.462  1.00  0.00     0.149 C 
BRANCH   9  10
HETATM   10  C18 UNL     1     -14.582  93.202  87.817  1.00  0.00     0.168 C 
BRANCH  10  11
HETATM   11  N4  UNL     1     -13.972  94.497  88.168  1.00  0.00    -0.301 N 
HETATM   12  C19 UNL     1     -12.668  94.773  88.067  1.00  0.00     0.112 A 
HETATM   13  C20 UNL     1     -12.511  96.082  88.490  1.00  0.00     0.051 A 
HETATM   14  C21 UNL     1     -13.738  96.596  88.850  1.00  0.00     0.066 A 
HETATM   15  N8  UNL     1     -14.607  95.555  88.624  1.00  0.00    -0.298 N 
ATOM     16  H8  UNL     1     -15.613  95.598  88.789  1.00  0.00     0.187 HD
BRANCH  14  17
HETATM   17  C22 UNL     1     -14.109  97.904  89.353  1.00  0.00     0.139 C 
HETATM   18  N5  UNL     1     -14.074  98.247  90.555  1.00  0.00    -0.296 N 
ATOM     19  H5  UNL     1     -14.372  99.209  90.721  1.00  0.00     0.187 HD
BRANCH  18  20
HETATM   20  N6  UNL     1     -13.710  97.574  91.687  1.00  0.00    -0.250 N 
HETATM   21  N7  UNL     1     -12.587  97.846  92.243  1.00  0.00    -0.331 N 
ATOM     22  H72 UNL     1     -11.985  98.560  91.832  1.00  0.00     0.178 HD
ATOM     23  H71 UNL     1     -12.315  97.343  93.088  1.00  0.00     0.178 HD
ATOM     24  H6  UNL     1     -14.324  96.863  92.084  1.00  0.00     0.207 HD
ENDBRANCH  18  20
ENDBRANCH  14  17
ENDBRANCH  10  11
ENDBRANCH   9  10
ENDBRANCH   6   9
ENDBRANCH   2   3
BRANCH   1  25
HETATM   25  N2  UNL     1     -20.317  92.649  81.662  1.00  0.00    -0.264 N 
HETATM   26  C11 UNL     1     -20.744  93.715  81.120  1.00  0.00     0.119 A 
HETATM   27  C10 UNL     1     -21.723  93.647  80.033  1.00  0.00     0.056 A 
HETATM   28  C9  UNL     1     -22.192  92.514  79.581  1.00  0.00     0.118 A 
HETATM   29  N10 UNL     1     -21.690  91.329  80.214  1.00  0.00    -0.281 N 
HETATM   30  N9  UNL     1     -20.773  91.411  81.231  1.00  0.00    -0.236 N 
ATOM     31  H10 UNL     1     -22.019  90.414  79.903  1.00  0.00     0.188 HD
ATOM     32  H9  UNL     1     -20.426  90.559  81.672  1.00  0.00     0.209 HD
BRANCH  28  33
HETATM   33  C8  UNL     1     -23.165  92.394  78.504  1.00  0.00     0.269 C 
HETATM   34  N1  UNL     1     -22.851  91.773  77.298  1.00  0.00    -0.356 N 
ATOM     35  H1  UNL     1     -21.902  91.413  77.199  1.00  0.00     0.162 HD
HETATM   36  O2  UNL     1     -24.311  92.873  78.699  1.00  0.00    -0.266 OA
BRANCH  34  37
HETATM   37  C7  UNL     1     -23.744  91.587  76.161  1.00  0.00     0.123 C 
BRANCH  37  38
HETATM   38  C6  UNL     1     -24.001  90.114  75.988  1.00  0.00     0.020 C 
BRANCH  38  39
HETATM   39  C5  UNL     1     -24.395  89.508  77.270  1.00  0.00     0.002 C 
BRANCH  39  40
HETATM   40  C4  UNL     1     -25.738  89.700  77.828  1.00  0.00     0.006 C 
BRANCH  40  41
HETATM   41  C2  UNL     1     -26.131  89.053  79.088  1.00  0.00     0.005 C 
HETATM   42  C1  UNL     1     -25.898  87.542  79.063  1.00  0.00     0.012 C 
BRANCH  41  43
HETATM   43  C3  UNL     1     -25.691  89.595  80.390  1.00  0.00     0.168 C 
BRANCH  43  44
HETATM   44  O1  UNL     1     -25.694  90.986  80.448  1.00  0.00    -0.400 OA
ATOM     45  H1  UNL     1     -25.412  91.335  81.285  1.00  0.00     0.209 HD
ENDBRANCH  43  44
ENDBRANCH  41  43
ENDBRANCH  40  41
ENDBRANCH  39  40
ENDBRANCH  38  39
ENDBRANCH  37  38
ENDBRANCH  34  37
ENDBRANCH  28  33
ENDBRANCH   1  25
TORSDOF 15
ENDMDL
