MODEL 1
REMARK VINA RESULT: -8.723864228      0.000      0.000
REMARK  14 active torsions:
REMARK  status: ('A' for Active; 'I' for Inactive)
REMARK    1  A    between atoms: C3_5  and  C4_6 
REMARK    2  A    between atoms: C4_6  and  C5_7 
REMARK    3  A    between atoms: C5_7  and  N2_8 
REMARK    4  A    between atoms: C5_7  and  C12_24 
REMARK       I    between atoms: N2_8  and  C6_10 
REMARK    5  A    between atoms: C6_10  and  C7_12 
REMARK    6  A    between atoms: C9_14  and  N3_15 
REMARK    7  A    between atoms: N8_28  and  C14_29 
REMARK    8  A    between atoms: C14_29  and  C15_30 
REMARK    9  A    between atoms: C15_30  and  C16_31 
REMARK   10  A    between atoms: C16_31  and  C17_32 
REMARK   11  A    between atoms: C17_32  and  C18_33 
REMARK   12  A    between atoms: C18_33  and  C19_34 
REMARK   13  A    between atoms: C19_34  and  C20_35 
REMARK   14  A    between atoms: C20_35  and  N9_36 
ROOT
HETATM    1  C4  UNL     1     -18.824  93.416  82.742  1.00  0.00     0.093 C 
ENDROOT
BRANCH   1   2
HETATM    2  C3  UNL     1     -19.828  92.821  81.855  1.00  0.00     0.028 A 
HETATM    3  N1  UNL     1     -20.065  92.932  80.538  1.00  0.00    -0.348 N 
HETATM    4  C2  UNL     1     -21.128  92.153  80.189  1.00  0.00     0.079 A 
ATOM      5  H1  UNL     1     -19.529  93.513  79.893  1.00  0.00     0.167 HD
HETATM    6  C1  UNL     1     -21.681  92.021  78.817  1.00  0.00     0.089 C 
HETATM    7  N8  UNL     1     -21.583  91.533  81.289  1.00  0.00    -0.345 N 
HETATM    8  C13 UNL     1     -20.806  91.926  82.311  1.00  0.00     0.117 A 
BRANCH   7   9
HETATM    9  C14 UNL     1     -22.719  90.597  81.340  1.00  0.00     0.130 C 
BRANCH   9  10
HETATM   10  C15 UNL     1     -23.675  91.014  82.380  1.00  0.00     0.024 C 
BRANCH  10  11
HETATM   11  C16 UNL     1     -24.491  89.974  83.032  1.00  0.00     0.028 C 
BRANCH  11  12
HETATM   12  C17 UNL     1     -25.721  90.326  83.761  1.00  0.00    -0.030 C 
BRANCH  12  13
HETATM   13  C18 UNL     1     -26.612  91.391  83.331  1.00  0.00    -0.026 C 
BRANCH  13  14
HETATM   14  C19 UNL     1     -27.652  91.249  82.332  1.00  0.00     0.072 C 
BRANCH  14  15
HETATM   15  C20 UNL     1     -27.346  91.281  80.890  1.00  0.00     0.072 C 
BRANCH  15  16
HETATM   16  N9  UNL     1     -26.883  90.109  80.259  1.00  0.00    -0.347 N 
HETATM   17  C21 UNL     1     -27.227  88.870  80.575  1.00  0.00     0.095 A 
HETATM   18  C22 UNL     1     -26.752  87.729  79.941  1.00  0.00     0.018 A 
HETATM   19  C23 UNL     1     -25.854  87.884  78.899  1.00  0.00     0.003 A 
HETATM   20  C24 UNL     1     -25.501  89.168  78.575  1.00  0.00     0.018 A 
HETATM   21  C25 UNL     1     -25.996  90.254  79.230  1.00  0.00     0.095 A 
ENDBRANCH  15  16
ENDBRANCH  14  15
ENDBRANCH  13  14
ENDBRANCH  12  13
ENDBRANCH  11  12
ENDBRANCH  10  11
ENDBRANCH   9  10
ENDBRANCH   7   9
ENDBRANCH   1   2
BRANCH   1  22
HETATM   22  C5  UNL     1     -17.405  93.059  82.477  1.00  0.00     0.179 C 
BRANCH  22  23
HETATM   23  N2  UNL     1     -16.644  93.454  83.678  1.00  0.00    -0.346 N 
HETATM   24  C6  UNL     1     -15.564  92.663  84.139  1.00  0.00     0.249 C 
HETATM   25  O1  UNL     1     -15.281  91.620  83.493  1.00  0.00    -0.271 OA
ATOM     26  H2  UNL     1     -16.898  94.304  84.180  1.00  0.00     0.163 HD
BRANCH  24  27
HETATM   27  C7  UNL     1     -14.832  93.094  85.339  1.00  0.00     0.279 C 
HETATM   28  C8  UNL     1     -15.728  94.031  86.137  1.00  0.00     0.069 C 
HETATM   29  C9  UNL     1     -14.923  94.095  87.437  1.00  0.00     0.112 C 
HETATM   30  C11 UNL     1     -14.464  92.654  87.589  1.00  0.00     0.258 C 
HETATM   31  N6  UNL     1     -14.559  92.049  86.275  1.00  0.00    -0.060 N 
ATOM     32  H62 UNL     1     -15.241  91.291  86.234  1.00  0.00     0.278 HD
ATOM     33  H61 UNL     1     -13.735  91.500  86.029  1.00  0.00     0.278 HD
BRANCH  29  34
HETATM   34  N3  UNL     1     -13.825  94.982  87.186  1.00  0.00    -0.361 N 
HETATM   35  C10 UNL     1     -13.142  95.615  88.059  1.00  0.00     0.197 C 
HETATM   36  N4  UNL     1     -13.396  95.513  89.475  1.00  0.00    -0.067 NA
HETATM   37  N5  UNL     1     -12.087  96.455  87.638  1.00  0.00    -0.067 NA
ATOM     38  H3  UNL     1     -13.563  95.122  86.210  1.00  0.00     0.162 HD
ENDBRANCH  29  34
ENDBRANCH  24  27
ENDBRANCH  22  23
BRANCH  22  39
HETATM   39  C12 UNL     1     -16.846  93.705  81.285  1.00  0.00     0.254 C 
HETATM   40  N7  UNL     1     -16.847  93.175  79.975  1.00  0.00    -0.060 NA
HETATM   41  O2  UNL     1     -16.291  94.860  81.388  1.00  0.00    -0.275 OA
ENDBRANCH  22  39
ENDBRANCH   1  22
TORSDOF 14
ENDMDL
MODEL 2
REMARK VINA RESULT: -8.693174158      1.054      2.834
REMARK  14 active torsions:
REMARK  status: ('A' for Active; 'I' for Inactive)
REMARK    1  A    between atoms: C3_5  and  C4_6 
REMARK    2  A    between atoms: C4_6  and  C5_7 
REMARK    3  A    between atoms: C5_7  and  N2_8 
REMARK    4  A    between atoms: C5_7  and  C12_24 
REMARK       I    between atoms: N2_8  and  C6_10 
REMARK    5  A    between atoms: C6_10  and  C7_12 
REMARK    6  A    between atoms: C9_14  and  N3_15 
REMARK    7  A    between atoms: N8_28  and  C14_29 
REMARK    8  A    between atoms: C14_29  and  C15_30 
REMARK    9  A    between atoms: C15_30  and  C16_31 
REMARK   10  A    between atoms: C16_31  and  C17_32 
REMARK   11  A    between atoms: C17_32  and  C18_33 
REMARK   12  A    between atoms: C18_33  and  C19_34 
REMARK   13  A    between atoms: C19_34  and  C20_35 
REMARK   14  A    between atoms: C20_35  and  N9_36 
ROOT
HETATM    1  C4  UNL     1     -18.945  93.513  82.854  1.00  0.00     0.093 C 
ENDROOT
BRANCH   1   2
HETATM    2  C3  UNL     1     -20.064  92.739  82.307  1.00  0.00     0.028 A 
HETATM    3  N1  UNL     1     -20.706  91.638  82.728  1.00  0.00    -0.348 N 
HETATM    4  C2  UNL     1     -21.701  91.316  81.852  1.00  0.00     0.079 A 
ATOM      5  H1  UNL     1     -20.484  91.120  83.578  1.00  0.00     0.167 HD
HETATM    6  C1  UNL     1     -22.623  90.160  81.989  1.00  0.00     0.089 C 
HETATM    7  N8  UNL     1     -21.700  92.215  80.856  1.00  0.00    -0.345 N 
HETATM    8  C13 UNL     1     -20.713  93.088  81.114  1.00  0.00     0.117 A 
BRANCH   7   9
HETATM    9  C14 UNL     1     -22.624  92.226  79.708  1.00  0.00     0.130 C 
BRANCH   9  10
HETATM   10  C15 UNL     1     -22.118  91.345  78.641  1.00  0.00     0.024 C 
BRANCH  10  11
HETATM   11  C16 UNL     1     -22.893  91.251  77.391  1.00  0.00     0.028 C 
BRANCH  11  12
HETATM   12  C17 UNL     1     -23.726  90.071  77.106  1.00  0.00    -0.030 C 
BRANCH  12  13
HETATM   13  C18 UNL     1     -25.122  89.981  77.501  1.00  0.00    -0.026 C 
BRANCH  13  14
HETATM   14  C19 UNL     1     -25.590  89.837  78.866  1.00  0.00     0.072 C 
BRANCH  14  15
HETATM   15  C20 UNL     1     -26.154  90.977  79.612  1.00  0.00     0.072 C 
BRANCH  15  16
HETATM   16  N9  UNL     1     -26.093  90.974  81.020  1.00  0.00    -0.347 N 
HETATM   17  C21 UNL     1     -26.423  89.964  81.809  1.00  0.00     0.095 A 
HETATM   18  C22 UNL     1     -26.358  89.988  83.197  1.00  0.00     0.018 A 
HETATM   19  C23 UNL     1     -25.916  91.146  83.813  1.00  0.00     0.003 A 
HETATM   20  C24 UNL     1     -25.574  92.189  82.992  1.00  0.00     0.018 A 
HETATM   21  C25 UNL     1     -25.657  92.114  81.635  1.00  0.00     0.095 A 
ENDBRANCH  15  16
ENDBRANCH  14  15
ENDBRANCH  13  14
ENDBRANCH  12  13
ENDBRANCH  11  12
ENDBRANCH  10  11
ENDBRANCH   9  10
ENDBRANCH   7   9
ENDBRANCH   1   2
BRANCH   1  22
HETATM   22  C5  UNL     1     -17.583  92.956  82.641  1.00  0.00     0.179 C 
BRANCH  22  23
HETATM   23  N2  UNL     1     -16.782  93.351  83.816  1.00  0.00    -0.346 N 
HETATM   24  C6  UNL     1     -15.613  92.633  84.166  1.00  0.00     0.249 C 
HETATM   25  O1  UNL     1     -15.287  91.654  83.444  1.00  0.00    -0.271 OA
ATOM     26  H2  UNL     1     -17.074  94.148  84.382  1.00  0.00     0.163 HD
BRANCH  24  27
HETATM   27  C7  UNL     1     -14.845  93.061  85.344  1.00  0.00     0.279 C 
HETATM   28  C8  UNL     1     -15.715  93.999  86.170  1.00  0.00     0.069 C 
HETATM   29  C9  UNL     1     -14.871  94.059  87.445  1.00  0.00     0.112 C 
HETATM   30  C11 UNL     1     -14.411  92.617  87.581  1.00  0.00     0.258 C 
HETATM   31  N6  UNL     1     -14.547  92.014  86.270  1.00  0.00    -0.060 N 
ATOM     32  H62 UNL     1     -15.230  91.258  86.249  1.00  0.00     0.278 HD
ATOM     33  H61 UNL     1     -13.731  91.464  85.999  1.00  0.00     0.278 HD
BRANCH  29  34
HETATM   34  N3  UNL     1     -13.779  94.945  87.163  1.00  0.00    -0.361 N 
HETATM   35  C10 UNL     1     -13.102  95.614  88.012  1.00  0.00     0.197 C 
HETATM   36  N4  UNL     1     -13.357  95.563  89.430  1.00  0.00    -0.067 NA
HETATM   37  N5  UNL     1     -12.053  96.446  87.561  1.00  0.00    -0.067 NA
ATOM     38  H3  UNL     1     -13.518  95.050  86.183  1.00  0.00     0.162 HD
ENDBRANCH  29  34
ENDBRANCH  24  27
ENDBRANCH  22  23
BRANCH  22  39
HETATM   39  C12 UNL     1     -16.940  93.422  81.408  1.00  0.00     0.254 C 
HETATM   40  N7  UNL     1     -16.920  92.736  80.172  1.00  0.00    -0.060 NA
HETATM   41  O2  UNL     1     -16.323  94.550  81.398  1.00  0.00    -0.275 OA
ENDBRANCH  22  39
ENDBRANCH   1  22
TORSDOF 14
ENDMDL
MODEL 3
REMARK VINA RESULT: -8.517885678      3.162     12.416
REMARK  14 active torsions:
REMARK  status: ('A' for Active; 'I' for Inactive)
REMARK    1  A    between atoms: C3_5  and  C4_6 
REMARK    2  A    between atoms: C4_6  and  C5_7 
REMARK    3  A    between atoms: C5_7  and  N2_8 
REMARK    4  A    between atoms: C5_7  and  C12_24 
REMARK       I    between atoms: N2_8  and  C6_10 
REMARK    5  A    between atoms: C6_10  and  C7_12 
REMARK    6  A    between atoms: C9_14  and  N3_15 
REMARK    7  A    between atoms: N8_28  and  C14_29 
REMARK    8  A    between atoms: C14_29  and  C15_30 
REMARK    9  A    between atoms: C15_30  and  C16_31 
REMARK   10  A    between atoms: C16_31  and  C17_32 
REMARK   11  A    between atoms: C17_32  and  C18_33 
REMARK   12  A    between atoms: C18_33  and  C19_34 
REMARK   13  A    between atoms: C19_34  and  C20_35 
REMARK   14  A    between atoms: C20_35  and  N9_36 
ROOT
HETATM    1  C4  UNL     1     -20.984  93.861  81.166  1.00  0.00     0.093 C 
ENDROOT
BRANCH   1   2
HETATM    2  C3  UNL     1     -19.545  94.141  81.149  1.00  0.00     0.028 A 
HETATM    3  N1  UNL     1     -18.806  95.089  80.551  1.00  0.00    -0.348 N 
HETATM    4  C2  UNL     1     -17.489  94.917  80.862  1.00  0.00     0.079 A 
ATOM      5  H1  UNL     1     -19.174  95.829  79.952  1.00  0.00     0.167 HD
HETATM    6  C1  UNL     1     -16.376  95.776  80.383  1.00  0.00     0.089 C 
HETATM    7  N8  UNL     1     -17.376  93.849  81.667  1.00  0.00    -0.345 N 
HETATM    8  C13 UNL     1     -18.615  93.364  81.853  1.00  0.00     0.117 A 
BRANCH   7   9
HETATM    9  C14 UNL     1     -16.120  93.330  82.233  1.00  0.00     0.130 C 
BRANCH   9  10
HETATM   10  C15 UNL     1     -16.310  91.948  82.709  1.00  0.00     0.024 C 
BRANCH  10  11
HETATM   11  C16 UNL     1     -15.958  91.639  84.106  1.00  0.00     0.028 C 
BRANCH  11  12
HETATM   12  C17 UNL     1     -15.364  92.664  84.980  1.00  0.00    -0.030 C 
BRANCH  12  13
HETATM   13  C18 UNL     1     -14.311  92.367  85.937  1.00  0.00    -0.026 C 
BRANCH  13  14
HETATM   14  C19 UNL     1     -14.197  92.958  87.255  1.00  0.00     0.072 C 
BRANCH  14  15
HETATM   15  C20 UNL     1     -14.351  94.410  87.465  1.00  0.00     0.072 C 
BRANCH  15  16
HETATM   16  N9  UNL     1     -13.757  95.008  88.595  1.00  0.00    -0.347 N 
HETATM   17  C21 UNL     1     -14.268  96.003  89.304  1.00  0.00     0.095 A 
HETATM   18  C22 UNL     1     -13.661  96.579  90.413  1.00  0.00     0.018 A 
HETATM   19  C23 UNL     1     -12.432  96.087  90.817  1.00  0.00     0.003 A 
HETATM   20  C24 UNL     1     -11.908  95.057  90.080  1.00  0.00     0.018 A 
HETATM   21  C25 UNL     1     -12.544  94.528  89.000  1.00  0.00     0.095 A 
ENDBRANCH  15  16
ENDBRANCH  14  15
ENDBRANCH  13  14
ENDBRANCH  12  13
ENDBRANCH  11  12
ENDBRANCH  10  11
ENDBRANCH   9  10
ENDBRANCH   7   9
ENDBRANCH   1   2
BRANCH   1  22
HETATM   22  C5  UNL     1     -21.385  92.430  81.090  1.00  0.00     0.179 C 
BRANCH  22  23
HETATM   23  N2  UNL     1     -22.438  92.346  80.059  1.00  0.00    -0.346 N 
HETATM   24  C6  UNL     1     -22.191  91.694  78.828  1.00  0.00     0.249 C 
HETATM   25  O1  UNL     1     -21.050  91.194  78.646  1.00  0.00    -0.271 OA
ATOM     26  H2  UNL     1     -23.353  92.762  80.237  1.00  0.00     0.163 HD
BRANCH  24  27
HETATM   27  C7  UNL     1     -23.269  91.632  77.830  1.00  0.00     0.279 C 
HETATM   28  C8  UNL     1     -23.029  90.421  76.938  1.00  0.00     0.069 C 
HETATM   29  C9  UNL     1     -24.378  90.375  76.218  1.00  0.00     0.112 C 
HETATM   30  C11 UNL     1     -25.344  90.709  77.343  1.00  0.00     0.258 C 
HETATM   31  N6  UNL     1     -24.565  91.369  78.372  1.00  0.00    -0.060 N 
ATOM     32  H62 UNL     1     -24.532  90.842  79.245  1.00  0.00     0.278 HD
ATOM     33  H61 UNL     1     -25.020  92.206  78.740  1.00  0.00     0.278 HD
BRANCH  29  34
HETATM   34  N3  UNL     1     -24.338  91.407  75.223  1.00  0.00    -0.361 N 
HETATM   35  C10 UNL     1     -24.171  91.249  73.967  1.00  0.00     0.197 C 
HETATM   36  N4  UNL     1     -23.995  89.954  73.359  1.00  0.00    -0.067 NA
HETATM   37  N5  UNL     1     -24.157  92.381  73.122  1.00  0.00    -0.067 NA
ATOM     38  H3  UNL     1     -24.455  92.364  75.552  1.00  0.00     0.162 HD
ENDBRANCH  29  34
ENDBRANCH  24  27
ENDBRANCH  22  23
BRANCH  22  39
HETATM   39  C12 UNL     1     -21.871  91.884  82.360  1.00  0.00     0.254 C 
HETATM   40  N7  UNL     1     -23.219  91.608  82.684  1.00  0.00    -0.060 NA
HETATM   41  O2  UNL     1     -21.036  91.617  83.300  1.00  0.00    -0.275 OA
ENDBRANCH  22  39
ENDBRANCH   1  22
TORSDOF 14
ENDMDL
MODEL 4
REMARK VINA RESULT: -8.426982719      2.415     12.017
REMARK  14 active torsions:
REMARK  status: ('A' for Active; 'I' for Inactive)
REMARK    1  A    between atoms: C3_5  and  C4_6 
REMARK    2  A    between atoms: C4_6  and  C5_7 
REMARK    3  A    between atoms: C5_7  and  N2_8 
REMARK    4  A    between atoms: C5_7  and  C12_24 
REMARK       I    between atoms: N2_8  and  C6_10 
REMARK    5  A    between atoms: C6_10  and  C7_12 
REMARK    6  A    between atoms: C9_14  and  N3_15 
REMARK    7  A    between atoms: N8_28  and  C14_29 
REMARK    8  A    between atoms: C14_29  and  C15_30 
REMARK    9  A    between atoms: C15_30  and  C16_31 
REMARK   10  A    between atoms: C16_31  and  C17_32 
REMARK   11  A    between atoms: C17_32  and  C18_33 
REMARK   12  A    between atoms: C18_33  and  C19_34 
REMARK   13  A    between atoms: C19_34  and  C20_35 
REMARK   14  A    between atoms: C20_35  and  N9_36 
ROOT
HETATM    1  C4  UNL     1     -20.651  92.811  80.301  1.00  0.00     0.093 C 
ENDROOT
BRANCH   1   2
HETATM    2  C3  UNL     1     -19.232  93.163  80.417  1.00  0.00     0.028 A 
HETATM    3  N1  UNL     1     -18.392  93.847  79.623  1.00  0.00    -0.348 N 
HETATM    4  C2  UNL     1     -17.156  93.906  80.196  1.00  0.00     0.079 A 
ATOM      5  H1  UNL     1     -18.642  94.262  78.726  1.00  0.00     0.167 HD
HETATM    6  C1  UNL     1     -15.971  94.582  79.609  1.00  0.00     0.089 C 
HETATM    7  N8  UNL     1     -17.196  93.253  81.368  1.00  0.00    -0.345 N 
HETATM    8  C13 UNL     1     -18.449  92.795  81.520  1.00  0.00     0.117 A 
BRANCH   7   9
HETATM    9  C14 UNL     1     -16.067  93.090  82.299  1.00  0.00     0.130 C 
BRANCH   9  10
HETATM   10  C15 UNL     1     -16.058  91.724  82.852  1.00  0.00     0.024 C 
BRANCH  10  11
HETATM   11  C16 UNL     1     -15.932  91.566  84.312  1.00  0.00     0.028 C 
BRANCH  11  12
HETATM   12  C17 UNL     1     -15.300  92.611  85.134  1.00  0.00    -0.030 C 
BRANCH  12  13
HETATM   13  C18 UNL     1     -14.201  92.337  86.045  1.00  0.00    -0.026 C 
BRANCH  13  14
HETATM   14  C19 UNL     1     -14.023  92.961  87.341  1.00  0.00     0.072 C 
BRANCH  14  15
HETATM   15  C20 UNL     1     -14.372  94.376  87.570  1.00  0.00     0.072 C 
BRANCH  15  16
HETATM   16  N9  UNL     1     -13.801  95.056  88.664  1.00  0.00    -0.347 N 
HETATM   17  C21 UNL     1     -14.297  96.136  89.249  1.00  0.00     0.095 A 
HETATM   18  C22 UNL     1     -13.712  96.792  90.325  1.00  0.00     0.018 A 
HETATM   19  C23 UNL     1     -12.526  96.292  90.833  1.00  0.00     0.003 A 
HETATM   20  C24 UNL     1     -12.018  95.173  90.225  1.00  0.00     0.018 A 
HETATM   21  C25 UNL     1     -12.631  94.568  89.171  1.00  0.00     0.095 A 
ENDBRANCH  15  16
ENDBRANCH  14  15
ENDBRANCH  13  14
ENDBRANCH  12  13
ENDBRANCH  11  12
ENDBRANCH  10  11
ENDBRANCH   9  10
ENDBRANCH   7   9
ENDBRANCH   1   2
BRANCH   1  22
HETATM   22  C5  UNL     1     -21.603  93.605  81.123  1.00  0.00     0.179 C 
BRANCH  22  23
HETATM   23  N2  UNL     1     -22.918  92.948  80.989  1.00  0.00    -0.346 N 
HETATM   24  C6  UNL     1     -23.411  92.108  82.015  1.00  0.00     0.249 C 
HETATM   25  O1  UNL     1     -22.691  91.942  83.036  1.00  0.00    -0.271 OA
ATOM     26  H2  UNL     1     -23.476  93.102  80.150  1.00  0.00     0.163 HD
BRANCH  24  27
HETATM   27  C7  UNL     1     -24.726  91.475  81.842  1.00  0.00     0.279 C 
HETATM   28  C8  UNL     1     -24.859  90.357  82.867  1.00  0.00     0.069 C 
HETATM   29  C9  UNL     1     -26.354  90.066  82.721  1.00  0.00     0.112 C 
HETATM   30  C11 UNL     1     -26.930  91.464  82.572  1.00  0.00     0.258 C 
HETATM   31  N6  UNL     1     -25.837  92.319  82.153  1.00  0.00    -0.060 N 
ATOM     32  H62 UNL     1     -25.609  93.038  82.839  1.00  0.00     0.278 HD
ATOM     33  H61 UNL     1     -26.090  92.942  81.386  1.00  0.00     0.278 HD
BRANCH  29  34
HETATM   34  N3  UNL     1     -26.499  89.296  81.520  1.00  0.00    -0.361 N 
HETATM   35  C10 UNL     1     -27.477  88.536  81.215  1.00  0.00     0.197 C 
HETATM   36  N4  UNL     1     -28.618  88.345  82.076  1.00  0.00    -0.067 NA
HETATM   37  N5  UNL     1     -27.460  87.845  79.982  1.00  0.00    -0.067 NA
ATOM     38  H3  UNL     1     -25.742  89.364  80.840  1.00  0.00     0.162 HD
ENDBRANCH  29  34
ENDBRANCH  24  27
ENDBRANCH  22  23
BRANCH  22  39
HETATM   39  C12 UNL     1     -21.695  95.013  80.725  1.00  0.00     0.254 C 
HETATM   40  N7  UNL     1     -20.652  95.965  80.795  1.00  0.00    -0.060 NA
HETATM   41  O2  UNL     1     -22.804  95.475  80.266  1.00  0.00    -0.275 OA
ENDBRANCH  22  39
ENDBRANCH   1  22
TORSDOF 14
ENDMDL
MODEL 5
REMARK VINA RESULT: -8.404124164      5.802     10.849
REMARK  14 active torsions:
REMARK  status: ('A' for Active; 'I' for Inactive)
REMARK    1  A    between atoms: C3_5  and  C4_6 
REMARK    2  A    between atoms: C4_6  and  C5_7 
REMARK    3  A    between atoms: C5_7  and  N2_8 
REMARK    4  A    between atoms: C5_7  and  C12_24 
REMARK       I    between atoms: N2_8  and  C6_10 
REMARK    5  A    between atoms: C6_10  and  C7_12 
REMARK    6  A    between atoms: C9_14  and  N3_15 
REMARK    7  A    between atoms: N8_28  and  C14_29 
REMARK    8  A    between atoms: C14_29  and  C15_30 
REMARK    9  A    between atoms: C15_30  and  C16_31 
REMARK   10  A    between atoms: C16_31  and  C17_32 
REMARK   11  A    between atoms: C17_32  and  C18_33 
REMARK   12  A    between atoms: C18_33  and  C19_34 
REMARK   13  A    between atoms: C19_34  and  C20_35 
REMARK   14  A    between atoms: C20_35  and  N9_36 
ROOT
HETATM    1  C4  UNL     1     -14.423  96.001  80.117  1.00  0.00     0.093 C 
ENDROOT
BRANCH   1   2
HETATM    2  C3  UNL     1     -15.517  95.030  80.222  1.00  0.00     0.028 A 
HETATM    3  N1  UNL     1     -16.518  94.689  79.395  1.00  0.00    -0.348 N 
HETATM    4  C2  UNL     1     -17.276  93.707  79.963  1.00  0.00     0.079 A 
ATOM      5  H1  UNL     1     -16.687  95.102  78.478  1.00  0.00     0.167 HD
HETATM    6  C1  UNL     1     -18.470  93.079  79.342  1.00  0.00     0.089 C 
HETATM    7  N8  UNL     1     -16.762  93.413  81.167  1.00  0.00    -0.345 N 
HETATM    8  C13 UNL     1     -15.692  94.206  81.342  1.00  0.00     0.117 A 
BRANCH   7   9
HETATM    9  C14 UNL     1     -17.285  92.401  82.100  1.00  0.00     0.130 C 
BRANCH   9  10
HETATM   10  C15 UNL     1     -16.176  91.631  82.690  1.00  0.00     0.024 C 
BRANCH  10  11
HETATM   11  C16 UNL     1     -16.078  91.568  84.159  1.00  0.00     0.028 C 
BRANCH  11  12
HETATM   12  C17 UNL     1     -15.026  92.306  84.879  1.00  0.00    -0.030 C 
BRANCH  12  13
HETATM   13  C18 UNL     1     -15.313  93.432  85.751  1.00  0.00    -0.026 C 
BRANCH  13  14
HETATM   14  C19 UNL     1     -14.563  93.769  86.945  1.00  0.00     0.072 C 
BRANCH  14  15
HETATM   15  C20 UNL     1     -14.673  95.097  87.576  1.00  0.00     0.072 C 
BRANCH  15  16
HETATM   16  N9  UNL     1     -13.898  95.382  88.718  1.00  0.00    -0.347 N 
HETATM   17  C21 UNL     1     -14.183  96.287  89.642  1.00  0.00     0.095 A 
HETATM   18  C22 UNL     1     -13.399  96.553  90.759  1.00  0.00     0.018 A 
HETATM   19  C23 UNL     1     -12.234  95.826  90.930  1.00  0.00     0.003 A 
HETATM   20  C24 UNL     1     -11.944  94.890  89.971  1.00  0.00     0.018 A 
HETATM   21  C25 UNL     1     -12.747  94.669  88.894  1.00  0.00     0.095 A 
ENDBRANCH  15  16
ENDBRANCH  14  15
ENDBRANCH  13  14
ENDBRANCH  12  13
ENDBRANCH  11  12
ENDBRANCH  10  11
ENDBRANCH   9  10
ENDBRANCH   7   9
ENDBRANCH   1   2
BRANCH   1  22
HETATM   22  C5  UNL     1     -13.870  96.236  78.756  1.00  0.00     0.179 C 
BRANCH  22  23
HETATM   23  N2  UNL     1     -12.411  96.036  78.859  1.00  0.00    -0.346 N 
HETATM   24  C6  UNL     1     -11.671  95.549  77.755  1.00  0.00     0.249 C 
HETATM   25  O1  UNL     1     -12.299  95.293  76.694  1.00  0.00    -0.271 OA
ATOM     26  H2  UNL     1     -11.932  96.251  79.733  1.00  0.00     0.163 HD
BRANCH  24  27
HETATM   27  C7  UNL     1     -10.221  95.366  77.900  1.00  0.00     0.279 C 
HETATM   28  C8  UNL     1      -9.926  94.988  79.345  1.00  0.00     0.069 C 
HETATM   29  C9  UNL     1      -8.466  94.554  79.195  1.00  0.00     0.112 C 
HETATM   30  C11 UNL     1      -8.499  93.807  77.871  1.00  0.00     0.258 C 
HETATM   31  N6  UNL     1      -9.686  94.258  77.172  1.00  0.00    -0.060 N 
ATOM     32  H62 UNL     1     -10.367  93.513  77.025  1.00  0.00     0.278 HD
ATOM     33  H61 UNL     1      -9.512  94.474  76.190  1.00  0.00     0.278 HD
BRANCH  29  34
HETATM   34  N3  UNL     1      -7.695  95.760  79.109  1.00  0.00    -0.361 N 
HETATM   35  C10 UNL     1      -6.777  96.136  79.911  1.00  0.00     0.197 C 
HETATM   36  N4  UNL     1      -6.375  95.360  81.059  1.00  0.00    -0.067 NA
HETATM   37  N5  UNL     1      -6.113  97.362  79.680  1.00  0.00    -0.067 NA
ATOM     38  H3  UNL     1      -7.903  96.381  78.327  1.00  0.00     0.162 HD
ENDBRANCH  29  34
ENDBRANCH  24  27
ENDBRANCH  22  23
BRANCH  22  39
HETATM   39  C12 UNL     1     -14.164  97.569  78.222  1.00  0.00     0.254 C 
HETATM   40  N7  UNL     1     -14.970  97.853  77.096  1.00  0.00    -0.060 NA
HETATM   41  O2  UNL     1     -13.666  98.609  78.792  1.00  0.00    -0.275 OA
ENDBRANCH  22  39
ENDBRANCH   1  22
TORSDOF 14
ENDMDL
