MODEL 1
REMARK VINA RESULT: -7.671491846      0.000      0.000
REMARK  16 active torsions:
REMARK  status: ('A' for Active; 'I' for Inactive)
REMARK    1  A    between atoms: C2_2  and  C3_3 
REMARK    2  A    between atoms: C3_3  and  C4_4 
REMARK    3  A    between atoms: C4_4  and  C5_5 
REMARK    4  A    between atoms: C5_5  and  N1_6 
REMARK    5  A    between atoms: N1_6  and  C6_7 
REMARK    6  A    between atoms: C6_7  and  O1_8 
REMARK    7  A    between atoms: C6_7  and  C7_10 
REMARK    8  A    between atoms: C7_10  and  N2_11 
REMARK    9  A    between atoms: N3_14  and  C10_15 
REMARK   10  A    between atoms: C10_15  and  C11_16 
REMARK   11  A    between atoms: C11_16  and  N4_17 
REMARK       I    between atoms: N4_17  and  C12_19 
REMARK       I    between atoms: C12_19  and  N6_23 
REMARK   12  A    between atoms: C16_28  and  C17_29 
REMARK   13  A    between atoms: C17_29  and  N7_30 
REMARK   14  A    between atoms: N7_30  and  C18_31 
REMARK       I    between atoms: N7_30  and  C23_37 
REMARK   15  A    between atoms: C18_31  and  C19_32 
REMARK   16  A    between atoms: C19_32  and  N8_33 
ROOT
HETATM    1  N2  UNL     1     -16.813  93.106  83.010  1.00  0.00    -0.037 N 
HETATM    2  C8  UNL     1     -16.587  91.841  82.227  1.00  0.00     0.271 C 
HETATM    3  C9  UNL     1     -16.929  92.170  80.807  1.00  0.00     0.266 C 
HETATM    4  N3  UNL     1     -17.792  93.308  80.710  1.00  0.00    -0.055 N 
HETATM    5  C14 UNL     1     -16.997  94.486  81.088  1.00  0.00     0.266 C 
HETATM    6  C15 UNL     1     -16.134  94.150  82.294  1.00  0.00     0.271 C 
HETATM    7  C16 UNL     1     -18.887  93.273  81.653  1.00  0.00     0.235 C 
HETATM    8  C24 UNL     1     -18.236  93.242  83.043  1.00  0.00     0.278 C 
ENDROOT
BRANCH   7   9
HETATM    9  C17 UNL     1     -19.824  92.152  81.459  1.00  0.00     0.160 C 
BRANCH   9  10
HETATM   10  N7  UNL     1     -21.236  92.500  81.364  1.00  0.00    -0.352 N 
HETATM   11  C23 UNL     1     -21.771  93.429  80.430  1.00  0.00     0.184 C 
HETATM   12  N9  UNL     1     -22.528  94.375  80.923  1.00  0.00    -0.374 N 
HETATM   13  N10 UNL     1     -21.562  93.423  79.035  1.00  0.00    -0.064 NA
ATOM     14  H92 UNL     1     -22.678  94.379  81.932  1.00  0.00     0.158 HD
ATOM     15  H91 UNL     1     -22.912  95.042  80.253  1.00  0.00     0.158 HD
BRANCH  10  16
HETATM   16  C18 UNL     1     -22.199  91.888  82.278  1.00  0.00     0.153 C 
BRANCH  16  17
HETATM   17  C19 UNL     1     -22.954  90.737  81.791  1.00  0.00     0.255 C 
BRANCH  17  18
HETATM   18  N8  UNL     1     -24.356  90.658  81.928  1.00  0.00    -0.077 N 
HETATM   19  C20 UNL     1     -24.884  90.270  83.191  1.00  0.00     0.271 C 
HETATM   20  C21 UNL     1     -25.057  91.890  81.519  1.00  0.00     0.271 C 
HETATM   21  C22 UNL     1     -24.886  89.667  80.943  1.00  0.00     0.271 C 
ENDBRANCH  17  18
ENDBRANCH  16  17
ENDBRANCH  10  16
ENDBRANCH   9  10
ENDBRANCH   7   9
BRANCH   4  22
HETATM   22  C10 UNL     1     -18.218  93.533  79.363  1.00  0.00     0.258 C 
BRANCH  22  23
HETATM   23  C11 UNL     1     -17.893  94.889  78.809  1.00  0.00     0.166 C 
BRANCH  23  24
HETATM   24  N4  UNL     1     -19.024  95.280  77.976  1.00  0.00    -0.225 N 
HETATM   25  C12 UNL     1     -19.742  96.495  78.175  1.00  0.00     0.667 C 
HETATM   26  N5  UNL     1     -19.459  97.530  77.435  1.00  0.00    -0.235 N 
HETATM   27  N6  UNL     1     -20.765  96.640  79.143  1.00  0.00    -0.231 N 
ATOM     28  H52 UNL     1     -18.721  97.426  76.738  1.00  0.00     0.174 HD
ATOM     29  H51 UNL     1     -19.972  98.399  77.577  1.00  0.00     0.174 HD
HETATM   30  C13 UNL     1     -20.476  97.367  80.354  1.00  0.00     0.165 C 
ATOM     31  H6  UNL     1     -21.689  96.237  78.987  1.00  0.00     0.177 HD
ATOM     32  H4  UNL     1     -19.314  94.658  77.221  1.00  0.00     0.177 HD
ENDBRANCH  23  24
ENDBRANCH  22  23
ENDBRANCH   4  22
BRANCH   1  33
HETATM   33  C7  UNL     1     -16.261  92.821  84.275  1.00  0.00     0.273 C 
BRANCH  33  34
HETATM   34  C6  UNL     1     -16.180  93.877  85.300  1.00  0.00     0.236 C 
BRANCH  34  35
HETATM   35  N1  UNL     1     -15.451  93.859  86.413  1.00  0.00    -0.396 NA
BRANCH  35  36
HETATM   36  C5  UNL     1     -14.763  93.906  87.606  1.00  0.00     0.158 C 
BRANCH  36  37
HETATM   37  C4  UNL     1     -13.393  93.287  87.555  1.00  0.00     0.059 C 
BRANCH  37  38
HETATM   38  C3  UNL     1     -12.238  94.097  87.977  1.00  0.00     0.006 C 
BRANCH  38  39
HETATM   39  C2  UNL     1     -12.425  95.242  88.899  1.00  0.00    -0.004 C 
HETATM   40  C1  UNL     1     -12.411  95.031  90.361  1.00  0.00     0.005 C 
ENDBRANCH  38  39
ENDBRANCH  37  38
ENDBRANCH  36  37
ENDBRANCH  35  36
ENDBRANCH  34  35
BRANCH  34  41
HETATM   41  O1  UNL     1     -16.899  94.952  85.099  1.00  0.00    -0.335 OA
ATOM     42  H1  UNL     1     -17.841  94.832  85.109  1.00  0.00     0.220 HD
ENDBRANCH  34  41
ENDBRANCH  33  34
ENDBRANCH   1  33
TORSDOF 16
ENDMDL
MODEL 2
REMARK VINA RESULT: -7.589257634      2.057      3.816
REMARK  16 active torsions:
REMARK  status: ('A' for Active; 'I' for Inactive)
REMARK    1  A    between atoms: C2_2  and  C3_3 
REMARK    2  A    between atoms: C3_3  and  C4_4 
REMARK    3  A    between atoms: C4_4  and  C5_5 
REMARK    4  A    between atoms: C5_5  and  N1_6 
REMARK    5  A    between atoms: N1_6  and  C6_7 
REMARK    6  A    between atoms: C6_7  and  O1_8 
REMARK    7  A    between atoms: C6_7  and  C7_10 
REMARK    8  A    between atoms: C7_10  and  N2_11 
REMARK    9  A    between atoms: N3_14  and  C10_15 
REMARK   10  A    between atoms: C10_15  and  C11_16 
REMARK   11  A    between atoms: C11_16  and  N4_17 
REMARK       I    between atoms: N4_17  and  C12_19 
REMARK       I    between atoms: C12_19  and  N6_23 
REMARK   12  A    between atoms: C16_28  and  C17_29 
REMARK   13  A    between atoms: C17_29  and  N7_30 
REMARK   14  A    between atoms: N7_30  and  C18_31 
REMARK       I    between atoms: N7_30  and  C23_37 
REMARK   15  A    between atoms: C18_31  and  C19_32 
REMARK   16  A    between atoms: C19_32  and  N8_33 
ROOT
HETATM    1  N2  UNL     1     -17.029  92.927  82.635  1.00  0.00    -0.037 N 
HETATM    2  C8  UNL     1     -16.867  91.950  81.502  1.00  0.00     0.271 C 
HETATM    3  C9  UNL     1     -16.922  92.763  80.247  1.00  0.00     0.266 C 
HETATM    4  N3  UNL     1     -17.581  94.018  80.446  1.00  0.00    -0.055 N 
HETATM    5  C14 UNL     1     -16.694  94.845  81.278  1.00  0.00     0.266 C 
HETATM    6  C15 UNL     1     -16.096  93.991  82.385  1.00  0.00     0.271 C 
HETATM    7  C16 UNL     1     -18.807  93.902  81.201  1.00  0.00     0.235 C 
HETATM    8  C24 UNL     1     -18.402  93.317  82.562  1.00  0.00     0.278 C 
ENDROOT
BRANCH   7   9
HETATM    9  C17 UNL     1     -19.855  93.100  80.546  1.00  0.00     0.160 C 
BRANCH   9  10
HETATM   10  N7  UNL     1     -21.218  93.305  81.019  1.00  0.00    -0.352 N 
HETATM   11  C23 UNL     1     -21.934  92.376  81.822  1.00  0.00     0.184 C 
HETATM   12  N9  UNL     1     -23.124  92.039  81.396  1.00  0.00    -0.374 N 
HETATM   13  N10 UNL     1     -21.484  91.792  83.024  1.00  0.00    -0.064 NA
ATOM     14  H92 UNL     1     -23.449  92.462  80.526  1.00  0.00     0.158 HD
ATOM     15  H91 UNL     1     -23.639  91.373  81.972  1.00  0.00     0.158 HD
BRANCH  10  16
HETATM   16  C18 UNL     1     -21.938  94.524  80.657  1.00  0.00     0.153 C 
BRANCH  16  17
HETATM   17  C19 UNL     1     -21.677  95.096  79.339  1.00  0.00     0.255 C 
BRANCH  17  18
HETATM   18  N8  UNL     1     -21.356  96.460  79.175  1.00  0.00    -0.077 N 
HETATM   19  C20 UNL     1     -20.618  97.104  80.207  1.00  0.00     0.271 C 
HETATM   20  C21 UNL     1     -20.675  96.754  77.899  1.00  0.00     0.271 C 
HETATM   21  C22 UNL     1     -22.621  97.243  79.030  1.00  0.00     0.271 C 
ENDBRANCH  17  18
ENDBRANCH  16  17
ENDBRANCH  10  16
ENDBRANCH   9  10
ENDBRANCH   7   9
BRANCH   4  22
HETATM   22  C10 UNL     1     -17.744  94.728  79.215  1.00  0.00     0.258 C 
BRANCH  22  23
HETATM   23  C11 UNL     1     -17.219  96.134  79.213  1.00  0.00     0.166 C 
BRANCH  23  24
HETATM   24  N4  UNL     1     -16.155  96.179  78.217  1.00  0.00    -0.225 N 
HETATM   25  C12 UNL     1     -14.806  96.502  78.548  1.00  0.00     0.667 C 
HETATM   26  N5  UNL     1     -13.946  95.539  78.720  1.00  0.00    -0.235 N 
HETATM   27  N6  UNL     1     -14.343  97.831  78.694  1.00  0.00    -0.231 N 
ATOM     28  H52 UNL     1     -14.280  94.580  78.615  1.00  0.00     0.174 HD
ATOM     29  H51 UNL     1     -12.981  95.769  78.957  1.00  0.00     0.174 HD
HETATM   30  C13 UNL     1     -14.109  98.342  80.023  1.00  0.00     0.165 C 
ATOM     31  H6  UNL     1     -14.177  98.417  77.876  1.00  0.00     0.177 HD
ATOM     32  H4  UNL     1     -16.385  95.972  77.246  1.00  0.00     0.177 HD
ENDBRANCH  23  24
ENDBRANCH  22  23
ENDBRANCH   4  22
BRANCH   1  33
HETATM   33  C7  UNL     1     -16.737  92.162  83.782  1.00  0.00     0.273 C 
BRANCH  33  34
HETATM   34  C6  UNL     1     -15.646  92.573  84.685  1.00  0.00     0.236 C 
BRANCH  34  35
HETATM   35  N1  UNL     1     -15.689  93.527  85.612  1.00  0.00    -0.396 NA
BRANCH  35  36
HETATM   36  C5  UNL     1     -15.726  94.583  86.496  1.00  0.00     0.158 C 
BRANCH  36  37
HETATM   37  C4  UNL     1     -14.833  94.419  87.694  1.00  0.00     0.059 C 
BRANCH  37  38
HETATM   38  C3  UNL     1     -13.527  93.762  87.514  1.00  0.00     0.006 C 
BRANCH  38  39
HETATM   39  C2  UNL     1     -12.369  94.161  88.346  1.00  0.00    -0.004 C 
HETATM   40  C1  UNL     1     -11.420  95.185  87.861  1.00  0.00     0.005 C 
ENDBRANCH  38  39
ENDBRANCH  37  38
ENDBRANCH  36  37
ENDBRANCH  35  36
ENDBRANCH  34  35
BRANCH  34  41
HETATM   41  O1  UNL     1     -14.510  91.934  84.569  1.00  0.00    -0.335 OA
ATOM     42  H1  UNL     1     -13.737  92.397  84.870  1.00  0.00     0.220 HD
ENDBRANCH  34  41
ENDBRANCH  33  34
ENDBRANCH   1  33
TORSDOF 16
ENDMDL
MODEL 3
REMARK VINA RESULT: -7.585933688      3.486      7.075
REMARK  16 active torsions:
REMARK  status: ('A' for Active; 'I' for Inactive)
REMARK    1  A    between atoms: C2_2  and  C3_3 
REMARK    2  A    between atoms: C3_3  and  C4_4 
REMARK    3  A    between atoms: C4_4  and  C5_5 
REMARK    4  A    between atoms: C5_5  and  N1_6 
REMARK    5  A    between atoms: N1_6  and  C6_7 
REMARK    6  A    between atoms: C6_7  and  O1_8 
REMARK    7  A    between atoms: C6_7  and  C7_10 
REMARK    8  A    between atoms: C7_10  and  N2_11 
REMARK    9  A    between atoms: N3_14  and  C10_15 
REMARK   10  A    between atoms: C10_15  and  C11_16 
REMARK   11  A    between atoms: C11_16  and  N4_17 
REMARK       I    between atoms: N4_17  and  C12_19 
REMARK       I    between atoms: C12_19  and  N6_23 
REMARK   12  A    between atoms: C16_28  and  C17_29 
REMARK   13  A    between atoms: C17_29  and  N7_30 
REMARK   14  A    between atoms: N7_30  and  C18_31 
REMARK       I    between atoms: N7_30  and  C23_37 
REMARK   15  A    between atoms: C18_31  and  C19_32 
REMARK   16  A    between atoms: C19_32  and  N8_33 
ROOT
HETATM    1  N2  UNL     1     -21.068  92.410  80.567  1.00  0.00    -0.037 N 
HETATM    2  C8  UNL     1     -22.086  93.516  80.615  1.00  0.00     0.271 C 
HETATM    3  C9  UNL     1     -23.311  92.920  81.236  1.00  0.00     0.266 C 
HETATM    4  N3  UNL     1     -23.335  91.493  81.119  1.00  0.00    -0.055 N 
HETATM    5  C14 UNL     1     -22.286  90.969  82.006  1.00  0.00     0.266 C 
HETATM    6  C15 UNL     1     -21.040  91.831  81.882  1.00  0.00     0.271 C 
HETATM    7  C16 UNL     1     -22.981  91.026  79.799  1.00  0.00     0.235 C 
HETATM    8  C24 UNL     1     -21.554  91.534  79.547  1.00  0.00     0.278 C 
ENDROOT
BRANCH   7   9
HETATM    9  C17 UNL     1     -23.910  91.442  78.733  1.00  0.00     0.160 C 
BRANCH   9  10
HETATM   10  N7  UNL     1     -24.485  90.376  77.923  1.00  0.00    -0.352 N 
HETATM   11  C23 UNL     1     -25.640  89.630  78.286  1.00  0.00     0.184 C 
HETATM   12  N9  UNL     1     -25.523  88.328  78.249  1.00  0.00    -0.374 N 
HETATM   13  N10 UNL     1     -26.887  90.160  78.677  1.00  0.00    -0.064 NA
ATOM     14  H92 UNL     1     -24.621  87.945  77.965  1.00  0.00     0.158 HD
ATOM     15  H91 UNL     1     -26.352  87.792  78.509  1.00  0.00     0.158 HD
BRANCH  10  16
HETATM   16  C18 UNL     1     -23.861  90.008  76.655  1.00  0.00     0.153 C 
BRANCH  16  17
HETATM   17  C19 UNL     1     -24.176  90.823  75.485  1.00  0.00     0.255 C 
BRANCH  17  18
HETATM   18  N8  UNL     1     -23.354  90.821  74.337  1.00  0.00    -0.077 N 
HETATM   19  C20 UNL     1     -23.004  92.075  73.763  1.00  0.00     0.271 C 
HETATM   20  C21 UNL     1     -22.106  90.053  74.509  1.00  0.00     0.271 C 
HETATM   21  C22 UNL     1     -24.036  90.051  73.253  1.00  0.00     0.271 C 
ENDBRANCH  17  18
ENDBRANCH  16  17
ENDBRANCH  10  16
ENDBRANCH   9  10
ENDBRANCH   7   9
BRANCH   4  22
HETATM   22  C10 UNL     1     -24.568  90.947  81.597  1.00  0.00     0.258 C 
BRANCH  22  23
HETATM   23  C11 UNL     1     -24.681  90.832  83.089  1.00  0.00     0.166 C 
BRANCH  23  24
HETATM   24  N4  UNL     1     -25.760  89.888  83.353  1.00  0.00    -0.225 N 
HETATM   25  C12 UNL     1     -26.927  89.806  82.538  1.00  0.00     0.667 C 
HETATM   26  N5  UNL     1     -26.996  88.887  81.618  1.00  0.00    -0.235 N 
HETATM   27  N6  UNL     1     -28.032  90.679  82.681  1.00  0.00    -0.231 N 
ATOM     28  H52 UNL     1     -26.199  88.258  81.515  1.00  0.00     0.174 HD
ATOM     29  H51 UNL     1     -27.830  88.828  81.035  1.00  0.00     0.174 HD
HETATM   30  C13 UNL     1     -28.215  91.730  81.711  1.00  0.00     0.165 C 
ATOM     31  H6  UNL     1     -28.687  90.566  83.455  1.00  0.00     0.177 HD
ATOM     32  H4  UNL     1     -25.677  89.262  84.154  1.00  0.00     0.177 HD
ENDBRANCH  23  24
ENDBRANCH  22  23
ENDBRANCH   4  22
BRANCH   1  33
HETATM   33  C7  UNL     1     -19.875  93.067  80.202  1.00  0.00     0.273 C 
BRANCH  33  34
HETATM   34  C6  UNL     1     -18.573  92.526  80.631  1.00  0.00     0.236 C 
BRANCH  34  35
HETATM   35  N1  UNL     1     -17.895  92.848  81.730  1.00  0.00    -0.396 NA
BRANCH  35  36
HETATM   36  C5  UNL     1     -17.254  93.122  82.919  1.00  0.00     0.158 C 
BRANCH  36  37
HETATM   37  C4  UNL     1     -15.989  92.339  83.135  1.00  0.00     0.059 C 
BRANCH  37  38
HETATM   38  C3  UNL     1     -15.743  91.750  84.462  1.00  0.00     0.006 C 
BRANCH  38  39
HETATM   39  C2  UNL     1     -14.701  92.317  85.350  1.00  0.00    -0.004 C 
HETATM   40  C1  UNL     1     -15.008  93.473  86.217  1.00  0.00     0.005 C 
ENDBRANCH  38  39
ENDBRANCH  37  38
ENDBRANCH  36  37
ENDBRANCH  35  36
ENDBRANCH  34  35
BRANCH  34  41
HETATM   41  O1  UNL     1     -18.020  91.630  79.855  1.00  0.00    -0.335 OA
ATOM     42  H1  UNL     1     -17.505  91.966  79.130  1.00  0.00     0.220 HD
ENDBRANCH  34  41
ENDBRANCH  33  34
ENDBRANCH   1  33
TORSDOF 16
ENDMDL
MODEL 4
REMARK VINA RESULT: -7.534430955      0.912      1.247
REMARK  16 active torsions:
REMARK  status: ('A' for Active; 'I' for Inactive)
REMARK    1  A    between atoms: C2_2  and  C3_3 
REMARK    2  A    between atoms: C3_3  and  C4_4 
REMARK    3  A    between atoms: C4_4  and  C5_5 
REMARK    4  A    between atoms: C5_5  and  N1_6 
REMARK    5  A    between atoms: N1_6  and  C6_7 
REMARK    6  A    between atoms: C6_7  and  O1_8 
REMARK    7  A    between atoms: C6_7  and  C7_10 
REMARK    8  A    between atoms: C7_10  and  N2_11 
REMARK    9  A    between atoms: N3_14  and  C10_15 
REMARK   10  A    between atoms: C10_15  and  C11_16 
REMARK   11  A    between atoms: C11_16  and  N4_17 
REMARK       I    between atoms: N4_17  and  C12_19 
REMARK       I    between atoms: C12_19  and  N6_23 
REMARK   12  A    between atoms: C16_28  and  C17_29 
REMARK   13  A    between atoms: C17_29  and  N7_30 
REMARK   14  A    between atoms: N7_30  and  C18_31 
REMARK       I    between atoms: N7_30  and  C23_37 
REMARK   15  A    between atoms: C18_31  and  C19_32 
REMARK   16  A    between atoms: C19_32  and  N8_33 
ROOT
HETATM    1  N2  UNL     1     -16.859  93.096  82.971  1.00  0.00    -0.037 N 
HETATM    2  C8  UNL     1     -16.558  91.869  82.154  1.00  0.00     0.271 C 
HETATM    3  C9  UNL     1     -16.944  92.206  80.748  1.00  0.00     0.266 C 
HETATM    4  N3  UNL     1     -17.885  93.283  80.691  1.00  0.00    -0.055 N 
HETATM    5  C14 UNL     1     -17.169  94.504  81.087  1.00  0.00     0.266 C 
HETATM    6  C15 UNL     1     -16.266  94.202  82.271  1.00  0.00     0.271 C 
HETATM    7  C16 UNL     1     -18.960  93.149  81.647  1.00  0.00     0.235 C 
HETATM    8  C24 UNL     1     -18.287  93.132  83.028  1.00  0.00     0.278 C 
ENDROOT
BRANCH   7   9
HETATM    9  C17 UNL     1     -19.820  91.971  81.439  1.00  0.00     0.160 C 
BRANCH   9  10
HETATM   10  N7  UNL     1     -21.245  92.230  81.272  1.00  0.00    -0.352 N 
HETATM   11  C23 UNL     1     -21.835  92.704  80.069  1.00  0.00     0.184 C 
HETATM   12  N9  UNL     1     -22.605  93.757  80.177  1.00  0.00    -0.374 N 
HETATM   13  N10 UNL     1     -21.670  92.149  78.783  1.00  0.00    -0.064 NA
ATOM     14  H92 UNL     1     -22.724  94.158  81.107  1.00  0.00     0.158 HD
ATOM     15  H91 UNL     1     -23.029  94.097  79.314  1.00  0.00     0.158 HD
BRANCH  10  16
HETATM   16  C18 UNL     1     -22.160  92.017  82.391  1.00  0.00     0.153 C 
BRANCH  16  17
HETATM   17  C19 UNL     1     -23.010  90.831  82.351  1.00  0.00     0.255 C 
BRANCH  17  18
HETATM   18  N8  UNL     1     -24.416  90.929  82.279  1.00  0.00    -0.077 N 
HETATM   19  C20 UNL     1     -25.045  90.641  81.036  1.00  0.00     0.271 C 
HETATM   20  C21 UNL     1     -25.113  90.144  83.316  1.00  0.00     0.271 C 
HETATM   21  C22 UNL     1     -24.824  92.323  82.629  1.00  0.00     0.271 C 
ENDBRANCH  17  18
ENDBRANCH  16  17
ENDBRANCH  10  16
ENDBRANCH   9  10
ENDBRANCH   7   9
BRANCH   4  22
HETATM   22  C10 UNL     1     -18.346  93.509  79.355  1.00  0.00     0.258 C 
BRANCH  22  23
HETATM   23  C11 UNL     1     -18.849  94.896  79.079  1.00  0.00     0.166 C 
BRANCH  23  24
HETATM   24  N4  UNL     1     -18.296  95.289  77.789  1.00  0.00    -0.225 N 
HETATM   25  C12 UNL     1     -18.016  96.647  77.455  1.00  0.00     0.667 C 
HETATM   26  N5  UNL     1     -16.797  97.092  77.571  1.00  0.00    -0.235 N 
HETATM   27  N6  UNL     1     -19.004  97.548  76.991  1.00  0.00    -0.231 N 
ATOM     28  H52 UNL     1     -16.085  96.443  77.906  1.00  0.00     0.174 HD
ATOM     29  H51 UNL     1     -16.597  98.063  77.332  1.00  0.00     0.174 HD
HETATM   30  C13 UNL     1     -19.507  98.552  77.896  1.00  0.00     0.165 C 
ATOM     31  H6  UNL     1     -19.353  97.489  76.034  1.00  0.00     0.177 HD
ATOM     32  H4  UNL     1     -18.102  94.565  77.098  1.00  0.00     0.177 HD
ENDBRANCH  23  24
ENDBRANCH  22  23
ENDBRANCH   4  22
BRANCH   1  33
HETATM   33  C7  UNL     1     -16.269  92.821  84.221  1.00  0.00     0.273 C 
BRANCH  33  34
HETATM   34  C6  UNL     1     -16.232  93.861  85.265  1.00  0.00     0.236 C 
BRANCH  34  35
HETATM   35  N1  UNL     1     -15.495  93.859  86.373  1.00  0.00    -0.396 NA
BRANCH  35  36
HETATM   36  C5  UNL     1     -14.786  93.935  87.552  1.00  0.00     0.158 C 
BRANCH  36  37
HETATM   37  C4  UNL     1     -13.430  93.289  87.502  1.00  0.00     0.059 C 
BRANCH  37  38
HETATM   38  C3  UNL     1     -12.267  94.054  87.983  1.00  0.00     0.006 C 
BRANCH  38  39
HETATM   39  C2  UNL     1     -12.457  95.217  88.881  1.00  0.00    -0.004 C 
HETATM   40  C1  UNL     1     -12.441  95.037  90.348  1.00  0.00     0.005 C 
ENDBRANCH  38  39
ENDBRANCH  37  38
ENDBRANCH  36  37
ENDBRANCH  35  36
ENDBRANCH  34  35
BRANCH  34  41
HETATM   41  O1  UNL     1     -17.004  94.903  85.089  1.00  0.00    -0.335 OA
ATOM     42  H1  UNL     1     -17.117  95.193  84.191  1.00  0.00     0.220 HD
ENDBRANCH  34  41
ENDBRANCH  33  34
ENDBRANCH   1  33
TORSDOF 16
ENDMDL
MODEL 5
REMARK VINA RESULT: -7.483339210      0.864      1.305
REMARK  16 active torsions:
REMARK  status: ('A' for Active; 'I' for Inactive)
REMARK    1  A    between atoms: C2_2  and  C3_3 
REMARK    2  A    between atoms: C3_3  and  C4_4 
REMARK    3  A    between atoms: C4_4  and  C5_5 
REMARK    4  A    between atoms: C5_5  and  N1_6 
REMARK    5  A    between atoms: N1_6  and  C6_7 
REMARK    6  A    between atoms: C6_7  and  O1_8 
REMARK    7  A    between atoms: C6_7  and  C7_10 
REMARK    8  A    between atoms: C7_10  and  N2_11 
REMARK    9  A    between atoms: N3_14  and  C10_15 
REMARK   10  A    between atoms: C10_15  and  C11_16 
REMARK   11  A    between atoms: C11_16  and  N4_17 
REMARK       I    between atoms: N4_17  and  C12_19 
REMARK       I    between atoms: C12_19  and  N6_23 
REMARK   12  A    between atoms: C16_28  and  C17_29 
REMARK   13  A    between atoms: C17_29  and  N7_30 
REMARK   14  A    between atoms: N7_30  and  C18_31 
REMARK       I    between atoms: N7_30  and  C23_37 
REMARK   15  A    between atoms: C18_31  and  C19_32 
REMARK   16  A    between atoms: C19_32  and  N8_33 
ROOT
HETATM    1  N2  UNL     1     -17.060  92.995  82.740  1.00  0.00    -0.037 N 
HETATM    2  C8  UNL     1     -16.847  91.852  81.785  1.00  0.00     0.271 C 
HETATM    3  C9  UNL     1     -17.241  92.365  80.435  1.00  0.00     0.266 C 
HETATM    4  N3  UNL     1     -18.119  93.493  80.522  1.00  0.00    -0.055 N 
HETATM    5  C14 UNL     1     -17.325  94.620  81.031  1.00  0.00     0.266 C 
HETATM    6  C15 UNL     1     -16.417  94.137  82.151  1.00  0.00     0.271 C 
HETATM    7  C16 UNL     1     -19.180  93.312  81.486  1.00  0.00     0.235 C 
HETATM    8  C24 UNL     1     -18.482  93.104  82.838  1.00  0.00     0.278 C 
ENDROOT
BRANCH   7   9
HETATM    9  C17 UNL     1     -20.112  92.214  81.172  1.00  0.00     0.160 C 
BRANCH   9  10
HETATM   10  N7  UNL     1     -21.531  92.547  81.181  1.00  0.00    -0.352 N 
HETATM   11  C23 UNL     1     -22.168  93.356  80.201  1.00  0.00     0.184 C 
HETATM   12  N9  UNL     1     -22.884  94.355  80.650  1.00  0.00    -0.374 N 
HETATM   13  N10 UNL     1     -22.102  93.182  78.803  1.00  0.00    -0.064 NA
ATOM     14  H92 UNL     1     -22.932  94.480  81.662  1.00  0.00     0.158 HD
ATOM     15  H91 UNL     1     -23.342  94.935  79.948  1.00  0.00     0.158 HD
BRANCH  10  16
HETATM   16  C18 UNL     1     -22.388  92.051  82.254  1.00  0.00     0.153 C 
BRANCH  16  17
HETATM   17  C19 UNL     1     -23.281  90.937  81.944  1.00  0.00     0.255 C 
BRANCH  17  18
HETATM   18  N8  UNL     1     -24.665  91.001  82.213  1.00  0.00    -0.077 N 
HETATM   19  C20 UNL     1     -25.567  90.753  81.140  1.00  0.00     0.271 C 
HETATM   20  C21 UNL     1     -25.084  90.151  83.344  1.00  0.00     0.271 C 
HETATM   21  C22 UNL     1     -25.000  92.366  82.720  1.00  0.00     0.271 C 
ENDBRANCH  17  18
ENDBRANCH  16  17
ENDBRANCH  10  16
ENDBRANCH   9  10
ENDBRANCH   7   9
BRANCH   4  22
HETATM   22  C10 UNL     1     -18.593  93.892  79.233  1.00  0.00     0.258 C 
BRANCH  22  23
HETATM   23  C11 UNL     1     -18.618  95.372  78.991  1.00  0.00     0.166 C 
BRANCH  23  24
HETATM   24  N4  UNL     1     -20.019  95.774  79.009  1.00  0.00    -0.225 N 
HETATM   25  C12 UNL     1     -20.650  96.412  77.901  1.00  0.00     0.667 C 
HETATM   26  N5  UNL     1     -21.364  95.697  77.077  1.00  0.00    -0.235 N 
HETATM   27  N6  UNL     1     -20.546  97.800  77.646  1.00  0.00    -0.231 N 
ATOM     28  H52 UNL     1     -21.438  94.697  77.260  1.00  0.00     0.174 HD
ATOM     29  H51 UNL     1     -21.815  96.154  76.285  1.00  0.00     0.174 HD
HETATM   30  C13 UNL     1     -19.681  98.248  76.583  1.00  0.00     0.165 C 
ATOM     31  H6  UNL     1     -21.073  98.472  78.205  1.00  0.00     0.177 HD
ATOM     32  H4  UNL     1     -20.570  95.591  79.847  1.00  0.00     0.177 HD
ENDBRANCH  23  24
ENDBRANCH  22  23
ENDBRANCH   4  22
BRANCH   1  33
HETATM   33  C7  UNL     1     -16.461  92.550  83.936  1.00  0.00     0.273 C 
BRANCH  33  34
HETATM   34  C6  UNL     1     -16.088  93.521  84.980  1.00  0.00     0.236 C 
BRANCH  34  35
HETATM   35  N1  UNL     1     -15.159  93.368  85.921  1.00  0.00    -0.396 NA
BRANCH  35  36
HETATM   36  C5  UNL     1     -14.224  93.113  86.900  1.00  0.00     0.158 C 
BRANCH  36  37
HETATM   37  C4  UNL     1     -13.607  94.344  87.503  1.00  0.00     0.059 C 
BRANCH  37  38
HETATM   38  C3  UNL     1     -12.226  94.265  88.008  1.00  0.00     0.006 C 
BRANCH  38  39
HETATM   39  C2  UNL     1     -11.790  95.128  89.131  1.00  0.00    -0.004 C 
HETATM   40  C1  UNL     1     -12.514  95.099  90.419  1.00  0.00     0.005 C 
ENDBRANCH  38  39
ENDBRANCH  37  38
ENDBRANCH  36  37
ENDBRANCH  35  36
ENDBRANCH  34  35
BRANCH  34  41
HETATM   41  O1  UNL     1     -16.735  94.658  84.989  1.00  0.00    -0.335 OA
ATOM     42  H1  UNL     1     -17.576  94.664  84.545  1.00  0.00     0.220 HD
ENDBRANCH  34  41
ENDBRANCH  33  34
ENDBRANCH   1  33
TORSDOF 16
ENDMDL
