MODEL 1
REMARK VINA RESULT: -9.285576750      0.000      0.000
REMARK  14 active torsions:
REMARK  status: ('A' for Active; 'I' for Inactive)
REMARK    1  A    between atoms: N1_2  and  C4_5 
REMARK    2  A    between atoms: C4_5  and  C5_6 
REMARK    3  A    between atoms: C5_6  and  C6_7 
REMARK    4  A    between atoms: C6_7  and  O1_8 
REMARK    5  A    between atoms: C6_7  and  C7_10 
REMARK    6  A    between atoms: C7_10  and  C8_11 
REMARK    7  A    between atoms: C7_10  and  N6_33 
REMARK    8  A    between atoms: C8_11  and  C9_12 
REMARK    9  A    between atoms: C9_12  and  C10_13 
REMARK       I    between atoms: C10_13  and  N2_15 
REMARK   10  A    between atoms: N2_15  and  C11_17 
REMARK   11  A    between atoms: C11_17  and  C12_18 
REMARK   12  A    between atoms: C12_18  and  N3_19 
REMARK   13  A    between atoms: C18_25  and  N4_26 
REMARK       I    between atoms: N6_33  and  C20_35 
REMARK       I    between atoms: C20_35  and  N8_39 
REMARK   14  A    between atoms: N8_39  and  C21_41 
ROOT
HETATM    1  C7  UNL     1     -16.798  92.506  82.152  1.00  0.00     0.128 C 
ENDROOT
BRANCH   1   2
HETATM    2  C6  UNL     1     -17.067  93.889  81.568  1.00  0.00     0.143 C 
BRANCH   2   3
HETATM    3  C5  UNL     1     -16.512  94.027  80.181  1.00  0.00     0.061 C 
BRANCH   3   4
HETATM    4  C4  UNL     1     -17.539  94.331  79.173  1.00  0.00     0.238 C 
BRANCH   4   5
HETATM    5  N1  UNL     1     -17.865  95.662  78.853  1.00  0.00    -0.079 N 
HETATM    6  C1  UNL     1     -18.356  95.747  77.458  1.00  0.00     0.271 C 
HETATM    7  C2  UNL     1     -16.626  96.453  78.832  1.00  0.00     0.271 C 
HETATM    8  C3  UNL     1     -18.792  96.344  79.672  1.00  0.00     0.271 C 
ENDBRANCH   4   5
ENDBRANCH   3   4
ENDBRANCH   2   3
BRANCH   2   9
HETATM    9  O1  UNL     1     -16.466  94.889  82.336  1.00  0.00    -0.393 OA
ATOM     10  H1  UNL     1     -15.613  94.558  82.589  1.00  0.00     0.210 HD
ENDBRANCH   2   9
ENDBRANCH   1   2
BRANCH   1  11
HETATM   11  C8  UNL     1     -15.576  92.464  82.989  1.00  0.00     0.037 C 
BRANCH  11  12
HETATM   12  C9  UNL     1     -15.843  92.211  84.417  1.00  0.00     0.105 C 
BRANCH  12  13
HETATM   13  C10 UNL     1     -15.723  93.360  85.334  1.00  0.00     0.217 C 
HETATM   14  O2  UNL     1     -16.465  94.353  85.244  1.00  0.00    -0.274 OA
HETATM   15  N2  UNL     1     -14.730  93.325  86.344  1.00  0.00    -0.359 N 
ATOM     16  H2  UNL     1     -14.132  92.501  86.405  1.00  0.00     0.162 HD
BRANCH  15  17
HETATM   17  C11 UNL     1     -14.525  94.379  87.276  1.00  0.00     0.151 C 
BRANCH  17  18
HETATM   18  C12 UNL     1     -13.508  94.072  88.332  1.00  0.00     0.266 C 
BRANCH  18  19
HETATM   19  N3  UNL     1     -12.735  95.262  88.651  1.00  0.00    -0.006 N 
HETATM   20  C13 UNL     1     -11.368  95.062  88.222  1.00  0.00     0.283 C 
HETATM   21  C14 UNL     1     -13.248  96.429  87.982  1.00  0.00     0.247 C 
HETATM   22  C15 UNL     1     -14.544  96.927  88.545  1.00  0.00     0.029 C 
HETATM   23  C16 UNL     1     -14.471  97.422  89.952  1.00  0.00     0.004 C 
HETATM   24  C17 UNL     1     -13.122  97.901  90.376  1.00  0.00     0.036 C 
HETATM   25  C18 UNL     1     -12.219  96.735  90.725  1.00  0.00     0.199 C 
HETATM   26  C19 UNL     1     -12.708  95.525  90.048  1.00  0.00     0.342 C 
HETATM   27  O3  UNL     1     -13.160  94.594  90.716  1.00  0.00    -0.263 OA
BRANCH  25  28
HETATM   28  N4  UNL     1     -12.137  96.596  92.133  1.00  0.00    -0.329 N 
HETATM   29  N5  UNL     1     -13.132  96.570  92.866  1.00  0.00    -0.349 N 
ATOM     30  H52 UNL     1     -14.046  96.653  92.422  1.00  0.00     0.176 HD
ATOM     31  H51 UNL     1     -13.072  96.470  93.879  1.00  0.00     0.176 HD
ATOM     32  H4  UNL     1     -11.214  96.514  92.560  1.00  0.00     0.180 HD
ENDBRANCH  25  28
ENDBRANCH  18  19
ENDBRANCH  17  18
ENDBRANCH  15  17
ENDBRANCH  12  13
ENDBRANCH  11  12
ENDBRANCH   1  11
BRANCH   1  33
HETATM   33  N6  UNL     1     -17.991  92.081  82.819  1.00  0.00    -0.220 N 
HETATM   34  C20 UNL     1     -19.304  92.560  82.623  1.00  0.00     0.668 C 
HETATM   35  N7  UNL     1     -19.579  93.827  82.526  1.00  0.00    -0.235 N 
HETATM   36  N8  UNL     1     -20.372  91.627  82.537  1.00  0.00    -0.222 N 
ATOM     37  H72 UNL     1     -18.811  94.498  82.587  1.00  0.00     0.174 HD
ATOM     38  H71 UNL     1     -20.528  94.173  82.384  1.00  0.00     0.174 HD
ATOM     39  H8  UNL     1     -20.179  90.653  82.773  1.00  0.00     0.178 HD
ATOM     40  H6  UNL     1     -17.878  91.347  83.517  1.00  0.00     0.178 HD
BRANCH  36  41
HETATM   41  C21 UNL     1     -21.699  91.971  82.139  1.00  0.00     0.099 C 
HETATM   42  C22 UNL     1     -22.041  91.844  80.674  1.00  0.00     0.026 C 
HETATM   43  C23 UNL     1     -23.420  91.342  81.134  1.00  0.00     0.004 C 
HETATM   44  C24 UNL     1     -22.734  90.911  82.420  1.00  0.00     0.026 C 
ENDBRANCH  36  41
ENDBRANCH   1  33
TORSDOF 14
ENDMDL
MODEL 2
REMARK VINA RESULT: -9.242929677      5.446      8.756
REMARK  14 active torsions:
REMARK  status: ('A' for Active; 'I' for Inactive)
REMARK    1  A    between atoms: N1_2  and  C4_5 
REMARK    2  A    between atoms: C4_5  and  C5_6 
REMARK    3  A    between atoms: C5_6  and  C6_7 
REMARK    4  A    between atoms: C6_7  and  O1_8 
REMARK    5  A    between atoms: C6_7  and  C7_10 
REMARK    6  A    between atoms: C7_10  and  C8_11 
REMARK    7  A    between atoms: C7_10  and  N6_33 
REMARK    8  A    between atoms: C8_11  and  C9_12 
REMARK    9  A    between atoms: C9_12  and  C10_13 
REMARK       I    between atoms: C10_13  and  N2_15 
REMARK   10  A    between atoms: N2_15  and  C11_17 
REMARK   11  A    between atoms: C11_17  and  C12_18 
REMARK   12  A    between atoms: C12_18  and  N3_19 
REMARK   13  A    between atoms: C18_25  and  N4_26 
REMARK       I    between atoms: N6_33  and  C20_35 
REMARK       I    between atoms: C20_35  and  N8_39 
REMARK   14  A    between atoms: N8_39  and  C21_41 
ROOT
HETATM    1  C7  UNL     1     -16.788  93.656  80.427  1.00  0.00     0.128 C 
ENDROOT
BRANCH   1   2
HETATM    2  C6  UNL     1     -17.963  92.938  79.772  1.00  0.00     0.143 C 
BRANCH   2   3
HETATM    3  C5  UNL     1     -19.281  93.478  80.243  1.00  0.00     0.061 C 
BRANCH   3   4
HETATM    4  C4  UNL     1     -20.421  92.618  79.888  1.00  0.00     0.238 C 
BRANCH   4   5
HETATM    5  N1  UNL     1     -21.427  92.329  80.827  1.00  0.00    -0.079 N 
HETATM    6  C1  UNL     1     -22.398  93.446  80.898  1.00  0.00     0.271 C 
HETATM    7  C2  UNL     1     -20.823  92.311  82.168  1.00  0.00     0.271 C 
HETATM    8  C3  UNL     1     -22.165  91.134  80.678  1.00  0.00     0.271 C 
ENDBRANCH   4   5
ENDBRANCH   3   4
ENDBRANCH   2   3
BRANCH   2   9
HETATM    9  O1  UNL     1     -17.961  91.576  80.082  1.00  0.00    -0.393 OA
ATOM     10  H1  UNL     1     -17.068  91.276  79.969  1.00  0.00     0.210 HD
ENDBRANCH   2   9
ENDBRANCH   1   2
BRANCH   1  11
HETATM   11  C8  UNL     1     -16.256  94.761  79.597  1.00  0.00     0.037 C 
BRANCH  11  12
HETATM   12  C9  UNL     1     -15.507  95.773  80.365  1.00  0.00     0.105 C 
BRANCH  12  13
HETATM   13  C10 UNL     1     -14.198  96.188  79.825  1.00  0.00     0.217 C 
HETATM   14  O2  UNL     1     -13.669  97.266  80.143  1.00  0.00    -0.274 OA
HETATM   15  N2  UNL     1     -13.531  95.327  78.920  1.00  0.00    -0.359 N 
ATOM     16  H2  UNL     1     -13.979  94.445  78.673  1.00  0.00     0.162 HD
BRANCH  15  17
HETATM   17  C11 UNL     1     -12.270  95.630  78.338  1.00  0.00     0.151 C 
BRANCH  17  18
HETATM   18  C12 UNL     1     -11.100  95.061  79.082  1.00  0.00     0.266 C 
BRANCH  18  19
HETATM   19  N3  UNL     1      -9.868  95.304  78.348  1.00  0.00    -0.006 N 
HETATM   20  C13 UNL     1     -10.144  95.229  76.930  1.00  0.00     0.283 C 
HETATM   21  C14 UNL     1      -9.324  96.606  78.630  1.00  0.00     0.247 C 
HETATM   22  C15 UNL     1      -8.720  96.725  79.997  1.00  0.00     0.029 C 
HETATM   23  C16 UNL     1      -7.522  95.866  80.233  1.00  0.00     0.004 C 
HETATM   24  C17 UNL     1      -6.765  95.496  79.000  1.00  0.00     0.036 C 
HETATM   25  C18 UNL     1      -7.450  94.364  78.263  1.00  0.00     0.199 C 
HETATM   26  C19 UNL     1      -8.871  94.332  78.638  1.00  0.00     0.342 C 
HETATM   27  O3  UNL     1      -9.311  93.377  79.281  1.00  0.00    -0.263 OA
BRANCH  25  28
HETATM   28  N4  UNL     1      -6.774  93.145  78.523  1.00  0.00    -0.329 N 
HETATM   29  N5  UNL     1      -6.665  92.244  77.683  1.00  0.00    -0.349 N 
ATOM     30  H52 UNL     1      -7.085  92.401  76.767  1.00  0.00     0.176 HD
ATOM     31  H51 UNL     1      -6.178  91.367  77.870  1.00  0.00     0.176 HD
ATOM     32  H4  UNL     1      -6.359  93.005  79.444  1.00  0.00     0.180 HD
ENDBRANCH  25  28
ENDBRANCH  18  19
ENDBRANCH  17  18
ENDBRANCH  15  17
ENDBRANCH  12  13
ENDBRANCH  11  12
ENDBRANCH   1  11
BRANCH   1  33
HETATM   33  N6  UNL     1     -17.199  94.043  81.741  1.00  0.00    -0.220 N 
HETATM   34  C20 UNL     1     -16.995  93.343  82.950  1.00  0.00     0.668 C 
HETATM   35  N7  UNL     1     -17.192  92.061  83.056  1.00  0.00    -0.235 N 
HETATM   36  N8  UNL     1     -16.568  94.060  84.099  1.00  0.00    -0.222 N 
ATOM     37  H72 UNL     1     -17.500  91.546  82.230  1.00  0.00     0.174 HD
ATOM     38  H71 UNL     1     -17.044  91.555  83.929  1.00  0.00     0.174 HD
ATOM     39  H8  UNL     1     -16.570  95.079  84.057  1.00  0.00     0.178 HD
ATOM     40  H6  UNL     1     -17.698  94.930  81.813  1.00  0.00     0.178 HD
BRANCH  36  41
HETATM   41  C21 UNL     1     -16.135  93.438  85.308  1.00  0.00     0.099 C 
HETATM   42  C22 UNL     1     -14.838  92.664  85.268  1.00  0.00     0.026 C 
HETATM   43  C23 UNL     1     -14.568  93.221  86.676  1.00  0.00     0.004 C 
HETATM   44  C24 UNL     1     -15.486  94.373  86.298  1.00  0.00     0.026 C 
ENDBRANCH  36  41
ENDBRANCH   1  33
TORSDOF 14
ENDMDL
MODEL 3
REMARK VINA RESULT: -9.162372693      5.432      8.902
REMARK  14 active torsions:
REMARK  status: ('A' for Active; 'I' for Inactive)
REMARK    1  A    between atoms: N1_2  and  C4_5 
REMARK    2  A    between atoms: C4_5  and  C5_6 
REMARK    3  A    between atoms: C5_6  and  C6_7 
REMARK    4  A    between atoms: C6_7  and  O1_8 
REMARK    5  A    between atoms: C6_7  and  C7_10 
REMARK    6  A    between atoms: C7_10  and  C8_11 
REMARK    7  A    between atoms: C7_10  and  N6_33 
REMARK    8  A    between atoms: C8_11  and  C9_12 
REMARK    9  A    between atoms: C9_12  and  C10_13 
REMARK       I    between atoms: C10_13  and  N2_15 
REMARK   10  A    between atoms: N2_15  and  C11_17 
REMARK   11  A    between atoms: C11_17  and  C12_18 
REMARK   12  A    between atoms: C12_18  and  N3_19 
REMARK   13  A    between atoms: C18_25  and  N4_26 
REMARK       I    between atoms: N6_33  and  C20_35 
REMARK       I    between atoms: C20_35  and  N8_39 
REMARK   14  A    between atoms: N8_39  and  C21_41 
ROOT
HETATM    1  C7  UNL     1     -16.493  93.822  81.990  1.00  0.00     0.128 C 
ENDROOT
BRANCH   1   2
HETATM    2  C6  UNL     1     -17.497  92.825  81.422  1.00  0.00     0.143 C 
BRANCH   2   3
HETATM    3  C5  UNL     1     -18.849  92.968  82.057  1.00  0.00     0.061 C 
BRANCH   3   4
HETATM    4  C4  UNL     1     -19.845  93.585  81.167  1.00  0.00     0.238 C 
BRANCH   4   5
HETATM    5  N1  UNL     1     -21.031  92.907  80.832  1.00  0.00    -0.079 N 
HETATM    6  C1  UNL     1     -21.241  91.760  81.745  1.00  0.00     0.271 C 
HETATM    7  C2  UNL     1     -20.850  92.273  79.517  1.00  0.00     0.271 C 
HETATM    8  C3  UNL     1     -22.237  93.641  80.788  1.00  0.00     0.271 C 
ENDBRANCH   4   5
ENDBRANCH   3   4
ENDBRANCH   2   3
BRANCH   2   9
HETATM    9  O1  UNL     1     -17.090  91.509  81.652  1.00  0.00    -0.393 OA
ATOM     10  H1  UNL     1     -16.155  91.541  81.815  1.00  0.00     0.210 HD
ENDBRANCH   2   9
ENDBRANCH   1   2
BRANCH   1  11
HETATM   11  C8  UNL     1     -16.411  95.071  81.197  1.00  0.00     0.037 C 
BRANCH  11  12
HETATM   12  C9  UNL     1     -15.663  94.924  79.935  1.00  0.00     0.105 C 
BRANCH  12  13
HETATM   13  C10 UNL     1     -14.376  95.638  79.834  1.00  0.00     0.217 C 
HETATM   14  O2  UNL     1     -14.089  96.584  80.586  1.00  0.00    -0.274 OA
HETATM   15  N2  UNL     1     -13.445  95.227  78.849  1.00  0.00    -0.359 N 
ATOM     16  H2  UNL     1     -13.696  94.447  78.242  1.00  0.00     0.162 HD
BRANCH  15  17
HETATM   17  C11 UNL     1     -12.179  95.847  78.662  1.00  0.00     0.151 C 
BRANCH  17  18
HETATM   18  C12 UNL     1     -11.030  95.077  79.239  1.00  0.00     0.266 C 
BRANCH  18  19
HETATM   19  N3  UNL     1      -9.835  95.277  78.435  1.00  0.00    -0.006 N 
HETATM   20  C13 UNL     1     -10.190  95.191  77.036  1.00  0.00     0.283 C 
HETATM   21  C14 UNL     1      -9.241  96.568  78.669  1.00  0.00     0.247 C 
HETATM   22  C15 UNL     1      -8.561  96.688  79.999  1.00  0.00     0.029 C 
HETATM   23  C16 UNL     1      -7.375  95.800  80.182  1.00  0.00     0.004 C 
HETATM   24  C17 UNL     1      -6.696  95.394  78.915  1.00  0.00     0.036 C 
HETATM   25  C18 UNL     1      -7.450  94.270  78.233  1.00  0.00     0.199 C 
HETATM   26  C19 UNL     1      -8.849  94.283  78.685  1.00  0.00     0.342 C 
HETATM   27  O3  UNL     1      -9.278  93.348  79.365  1.00  0.00    -0.263 OA
BRANCH  25  28
HETATM   28  N4  UNL     1      -6.794  93.038  78.473  1.00  0.00    -0.329 N 
HETATM   29  N5  UNL     1      -6.631  92.180  77.598  1.00  0.00    -0.349 N 
ATOM     30  H52 UNL     1      -6.992  92.384  76.666  1.00  0.00     0.176 HD
ATOM     31  H51 UNL     1      -6.159  91.292  77.770  1.00  0.00     0.176 HD
ATOM     32  H4  UNL     1      -6.439  92.850  79.411  1.00  0.00     0.180 HD
ENDBRANCH  25  28
ENDBRANCH  18  19
ENDBRANCH  17  18
ENDBRANCH  15  17
ENDBRANCH  12  13
ENDBRANCH  11  12
ENDBRANCH   1  11
BRANCH   1  33
HETATM   33  N6  UNL     1     -16.814  94.015  83.371  1.00  0.00    -0.220 N 
HETATM   34  C20 UNL     1     -16.262  93.347  84.486  1.00  0.00     0.668 C 
HETATM   35  N7  UNL     1     -16.080  92.060  84.508  1.00  0.00    -0.235 N 
HETATM   36  N8  UNL     1     -15.900  94.103  85.632  1.00  0.00    -0.222 N 
ATOM     37  H72 UNL     1     -16.341  91.517  83.684  1.00  0.00     0.174 HD
ATOM     38  H71 UNL     1     -15.681  91.577  85.313  1.00  0.00     0.174 HD
ATOM     39  H8  UNL     1     -16.191  95.080  85.675  1.00  0.00     0.178 HD
ATOM     40  H6  UNL     1     -17.525  94.718  83.573  1.00  0.00     0.178 HD
BRANCH  36  41
HETATM   41  C21 UNL     1     -15.152  93.577  86.728  1.00  0.00     0.099 C 
HETATM   42  C22 UNL     1     -13.906  92.787  86.404  1.00  0.00     0.026 C 
HETATM   43  C23 UNL     1     -13.274  93.452  87.638  1.00  0.00     0.004 C 
HETATM   44  C24 UNL     1     -14.271  94.581  87.428  1.00  0.00     0.026 C 
ENDBRANCH  36  41
ENDBRANCH   1  33
TORSDOF 14
ENDMDL
MODEL 4
REMARK VINA RESULT: -9.113954024      3.813     11.457
REMARK  14 active torsions:
REMARK  status: ('A' for Active; 'I' for Inactive)
REMARK    1  A    between atoms: N1_2  and  C4_5 
REMARK    2  A    between atoms: C4_5  and  C5_6 
REMARK    3  A    between atoms: C5_6  and  C6_7 
REMARK    4  A    between atoms: C6_7  and  O1_8 
REMARK    5  A    between atoms: C6_7  and  C7_10 
REMARK    6  A    between atoms: C7_10  and  C8_11 
REMARK    7  A    between atoms: C7_10  and  N6_33 
REMARK    8  A    between atoms: C8_11  and  C9_12 
REMARK    9  A    between atoms: C9_12  and  C10_13 
REMARK       I    between atoms: C10_13  and  N2_15 
REMARK   10  A    between atoms: N2_15  and  C11_17 
REMARK   11  A    between atoms: C11_17  and  C12_18 
REMARK   12  A    between atoms: C12_18  and  N3_19 
REMARK   13  A    between atoms: C18_25  and  N4_26 
REMARK       I    between atoms: N6_33  and  C20_35 
REMARK       I    between atoms: C20_35  and  N8_39 
REMARK   14  A    between atoms: N8_39  and  C21_41 
ROOT
HETATM    1  C7  UNL     1     -18.203  93.382  82.090  1.00  0.00     0.128 C 
ENDROOT
BRANCH   1   2
HETATM    2  C6  UNL     1     -17.606  92.614  80.916  1.00  0.00     0.143 C 
BRANCH   2   3
HETATM    3  C5  UNL     1     -18.328  92.905  79.633  1.00  0.00     0.061 C 
BRANCH   3   4
HETATM    4  C4  UNL     1     -17.793  94.075  78.920  1.00  0.00     0.238 C 
BRANCH   4   5
HETATM    5  N1  UNL     1     -18.616  95.176  78.621  1.00  0.00    -0.079 N 
HETATM    6  C1  UNL     1     -18.516  96.195  79.691  1.00  0.00     0.271 C 
HETATM    7  C2  UNL     1     -20.020  94.742  78.690  1.00  0.00     0.271 C 
HETATM    8  C3  UNL     1     -18.436  95.838  77.387  1.00  0.00     0.271 C 
ENDBRANCH   4   5
ENDBRANCH   3   4
ENDBRANCH   2   3
BRANCH   2   9
HETATM    9  O1  UNL     1     -17.693  91.234  81.115  1.00  0.00    -0.393 OA
ATOM     10  H1  UNL     1     -16.820  90.887  80.980  1.00  0.00     0.210 HD
ENDBRANCH   2   9
ENDBRANCH   1   2
BRANCH   1  11
HETATM   11  C8  UNL     1     -19.680  93.468  82.029  1.00  0.00     0.037 C 
BRANCH  11  12
HETATM   12  C9  UNL     1     -20.365  92.252  82.507  1.00  0.00     0.105 C 
BRANCH  12  13
HETATM   13  C10 UNL     1     -21.789  92.104  82.149  1.00  0.00     0.217 C 
HETATM   14  O2  UNL     1     -22.648  91.788  82.989  1.00  0.00    -0.274 OA
HETATM   15  N2  UNL     1     -22.181  92.329  80.807  1.00  0.00    -0.359 N 
ATOM     16  H2  UNL     1     -21.463  92.590  80.131  1.00  0.00     0.162 HD
BRANCH  15  17
HETATM   17  C11 UNL     1     -23.523  92.209  80.353  1.00  0.00     0.151 C 
BRANCH  17  18
HETATM   18  C12 UNL     1     -23.858  90.864  79.783  1.00  0.00     0.266 C 
BRANCH  18  19
HETATM   19  N3  UNL     1     -25.301  90.685  79.727  1.00  0.00    -0.006 N 
HETATM   20  C13 UNL     1     -25.941  91.959  79.971  1.00  0.00     0.283 C 
HETATM   21  C14 UNL     1     -25.732  90.205  78.440  1.00  0.00     0.247 C 
HETATM   22  C15 UNL     1     -25.383  88.771  78.182  1.00  0.00     0.029 C 
HETATM   23  C16 UNL     1     -26.055  87.788  79.084  1.00  0.00     0.004 C 
HETATM   24  C17 UNL     1     -27.348  88.256  79.666  1.00  0.00     0.036 C 
HETATM   25  C18 UNL     1     -27.108  89.188  80.837  1.00  0.00     0.199 C 
HETATM   26  C19 UNL     1     -25.767  89.779  80.719  1.00  0.00     0.342 C 
HETATM   27  O3  UNL     1     -24.900  89.492  81.546  1.00  0.00    -0.263 OA
BRANCH  25  28
HETATM   28  N4  UNL     1     -27.309  88.491  82.054  1.00  0.00    -0.329 N 
HETATM   29  N5  UNL     1     -27.310  89.049  83.157  1.00  0.00    -0.349 N 
ATOM     30  H52 UNL     1     -27.159  90.057  83.175  1.00  0.00     0.176 HD
ATOM     31  H51 UNL     1     -27.455  88.546  84.033  1.00  0.00     0.176 HD
ATOM     32  H4  UNL     1     -27.459  87.482  82.018  1.00  0.00     0.180 HD
ENDBRANCH  25  28
ENDBRANCH  18  19
ENDBRANCH  17  18
ENDBRANCH  15  17
ENDBRANCH  12  13
ENDBRANCH  11  12
ENDBRANCH   1  11
BRANCH   1  33
HETATM   33  N6  UNL     1     -17.689  92.799  83.292  1.00  0.00    -0.220 N 
HETATM   34  C20 UNL     1     -16.376  92.890  83.801  1.00  0.00     0.668 C 
HETATM   35  N7  UNL     1     -15.324  92.743  83.051  1.00  0.00    -0.235 N 
HETATM   36  N8  UNL     1     -16.190  93.142  85.187  1.00  0.00    -0.222 N 
ATOM     37  H72 UNL     1     -15.458  92.562  82.055  1.00  0.00     0.174 HD
ATOM     38  H71 UNL     1     -14.375  92.809  83.419  1.00  0.00     0.174 HD
ATOM     39  H8  UNL     1     -17.007  93.096  85.796  1.00  0.00     0.178 HD
ATOM     40  H6  UNL     1     -18.350  92.253  83.844  1.00  0.00     0.178 HD
BRANCH  36  41
HETATM   41  C21 UNL     1     -14.929  93.456  85.775  1.00  0.00     0.099 C 
HETATM   42  C22 UNL     1     -14.940  94.109  87.138  1.00  0.00     0.026 C 
HETATM   43  C23 UNL     1     -13.706  93.247  87.459  1.00  0.00     0.004 C 
HETATM   44  C24 UNL     1     -14.217  92.283  86.400  1.00  0.00     0.026 C 
ENDBRANCH  36  41
ENDBRANCH   1  33
TORSDOF 14
ENDMDL
MODEL 5
REMARK VINA RESULT: -9.088574463      3.710     10.835
REMARK  14 active torsions:
REMARK  status: ('A' for Active; 'I' for Inactive)
REMARK    1  A    between atoms: N1_2  and  C4_5 
REMARK    2  A    between atoms: C4_5  and  C5_6 
REMARK    3  A    between atoms: C5_6  and  C6_7 
REMARK    4  A    between atoms: C6_7  and  O1_8 
REMARK    5  A    between atoms: C6_7  and  C7_10 
REMARK    6  A    between atoms: C7_10  and  C8_11 
REMARK    7  A    between atoms: C7_10  and  N6_33 
REMARK    8  A    between atoms: C8_11  and  C9_12 
REMARK    9  A    between atoms: C9_12  and  C10_13 
REMARK       I    between atoms: C10_13  and  N2_15 
REMARK   10  A    between atoms: N2_15  and  C11_17 
REMARK   11  A    between atoms: C11_17  and  C12_18 
REMARK   12  A    between atoms: C12_18  and  N3_19 
REMARK   13  A    between atoms: C18_25  and  N4_26 
REMARK       I    between atoms: N6_33  and  C20_35 
REMARK       I    between atoms: C20_35  and  N8_39 
REMARK   14  A    between atoms: N8_39  and  C21_41 
ROOT
HETATM    1  C7  UNL     1     -17.482  93.415  82.038  1.00  0.00     0.128 C 
ENDROOT
BRANCH   1   2
HETATM    2  C6  UNL     1     -17.070  92.555  80.848  1.00  0.00     0.143 C 
BRANCH   2   3
HETATM    3  C5  UNL     1     -17.795  92.951  79.595  1.00  0.00     0.061 C 
BRANCH   3   4
HETATM    4  C4  UNL     1     -17.526  94.338  79.184  1.00  0.00     0.238 C 
BRANCH   4   5
HETATM    5  N1  UNL     1     -18.576  95.193  78.803  1.00  0.00    -0.079 N 
HETATM    6  C1  UNL     1     -18.768  96.252  79.822  1.00  0.00     0.271 C 
HETATM    7  C2  UNL     1     -19.836  94.436  78.852  1.00  0.00     0.271 C 
HETATM    8  C3  UNL     1     -18.508  95.826  77.542  1.00  0.00     0.271 C 
ENDBRANCH   4   5
ENDBRANCH   3   4
ENDBRANCH   2   3
BRANCH   2   9
HETATM    9  O1  UNL     1     -17.368  91.208  81.068  1.00  0.00    -0.393 OA
ATOM     10  H1  UNL     1     -17.065  91.006  81.945  1.00  0.00     0.210 HD
ENDBRANCH   2   9
ENDBRANCH   1   2
BRANCH   1  11
HETATM   11  C8  UNL     1     -18.596  92.824  82.815  1.00  0.00     0.037 C 
BRANCH  11  12
HETATM   12  C9  UNL     1     -19.932  93.221  82.334  1.00  0.00     0.105 C 
BRANCH  12  13
HETATM   13  C10 UNL     1     -20.958  92.164  82.263  1.00  0.00     0.217 C 
HETATM   14  O2  UNL     1     -21.434  91.641  83.284  1.00  0.00    -0.274 OA
HETATM   15  N2  UNL     1     -21.411  91.739  80.990  1.00  0.00    -0.359 N 
ATOM     16  H2  UNL     1     -21.012  92.181  80.163  1.00  0.00     0.162 HD
BRANCH  15  17
HETATM   17  C11 UNL     1     -22.392  90.726  80.807  1.00  0.00     0.151 C 
BRANCH  17  18
HETATM   18  C12 UNL     1     -23.789  91.248  80.657  1.00  0.00     0.266 C 
BRANCH  18  19
HETATM   19  N3  UNL     1     -24.600  90.853  81.798  1.00  0.00    -0.006 N 
HETATM   20  C13 UNL     1     -23.856  89.906  82.598  1.00  0.00     0.283 C 
HETATM   21  C14 UNL     1     -24.938  91.977  82.631  1.00  0.00     0.247 C 
HETATM   22  C15 UNL     1     -25.954  92.896  82.024  1.00  0.00     0.029 C 
HETATM   23  C16 UNL     1     -27.303  92.292  81.813  1.00  0.00     0.004 C 
HETATM   24  C17 UNL     1     -27.626  91.152  82.721  1.00  0.00     0.036 C 
HETATM   25  C18 UNL     1     -26.964  89.875  82.243  1.00  0.00     0.199 C 
HETATM   26  C19 UNL     1     -25.808  90.216  81.401  1.00  0.00     0.342 C 
HETATM   27  O3  UNL     1     -25.829  89.942  80.199  1.00  0.00    -0.263 OA
BRANCH  25  28
HETATM   28  N4  UNL     1     -27.917  89.058  81.585  1.00  0.00    -0.329 N 
HETATM   29  N5  UNL     1     -27.653  87.930  81.153  1.00  0.00    -0.349 N 
ATOM     30  H52 UNL     1     -26.702  87.587  81.285  1.00  0.00     0.176 HD
ATOM     31  H51 UNL     1     -28.339  87.342  80.680  1.00  0.00     0.176 HD
ATOM     32  H4  UNL     1     -28.864  89.418  81.463  1.00  0.00     0.180 HD
ENDBRANCH  25  28
ENDBRANCH  18  19
ENDBRANCH  17  18
ENDBRANCH  15  17
ENDBRANCH  12  13
ENDBRANCH  11  12
ENDBRANCH   1  11
BRANCH   1  33
HETATM   33  N6  UNL     1     -16.303  93.687  82.801  1.00  0.00    -0.220 N 
HETATM   34  C20 UNL     1     -16.202  93.867  84.197  1.00  0.00     0.668 C 
HETATM   35  N7  UNL     1     -17.040  94.601  84.869  1.00  0.00    -0.235 N 
HETATM   36  N8  UNL     1     -15.143  93.233  84.899  1.00  0.00    -0.222 N 
ATOM     37  H72 UNL     1     -17.801  95.057  84.364  1.00  0.00     0.174 HD
ATOM     38  H71 UNL     1     -16.968  94.731  85.878  1.00  0.00     0.174 HD
ATOM     39  H8  UNL     1     -14.401  92.794  84.355  1.00  0.00     0.178 HD
ATOM     40  H6  UNL     1     -15.433  93.759  82.273  1.00  0.00     0.178 HD
BRANCH  36  41
HETATM   41  C21 UNL     1     -15.057  93.173  86.323  1.00  0.00     0.099 C 
HETATM   42  C22 UNL     1     -13.806  92.571  86.920  1.00  0.00     0.026 C 
HETATM   43  C23 UNL     1     -13.916  93.653  88.008  1.00  0.00     0.004 C 
HETATM   44  C24 UNL     1     -14.685  94.475  86.986  1.00  0.00     0.026 C 
ENDBRANCH  36  41
ENDBRANCH   1  33
TORSDOF 14
ENDMDL
