MODEL 1
REMARK VINA RESULT: -8.536533876      0.000      0.000
REMARK  7 active torsions:
REMARK  status: ('A' for Active; 'I' for Inactive)
REMARK    1  A    between atoms: C3_3  and  C4_4 
REMARK    2  A    between atoms: C4_4  and  C5_5 
REMARK    3  A    between atoms: C5_5  and  O2_7 
REMARK    4  A    between atoms: O2_7  and  C6_8 
REMARK    5  A    between atoms: C23_25  and  O3_26 
REMARK    6  A    between atoms: C23_25  and  C24_28 
REMARK       I    between atoms: C24_28  and  N1_30 
REMARK    7  A    between atoms: N1_30  and  C25_32 
ROOT
HETATM    1  C1  UNL     1      60.386   0.385   9.252  1.00  0.00     0.112 C 
HETATM    2  C2  UNL     1      61.772   0.759   9.012  1.00  0.00    -0.111 C 
HETATM    3  C3  UNL     1      62.932   1.075   8.790  1.00  0.00    -0.097 C 
ENDROOT
BRANCH   3   4
HETATM    4  C4  UNL     1      64.297   1.445   8.504  1.00  0.00     0.204 C 
BRANCH   4   5
HETATM    5  C5  UNL     1      64.609   2.799   9.057  1.00  0.00     0.270 C 
HETATM    6  O1  UNL     1      64.493   3.757   8.268  1.00  0.00    -0.264 OA
BRANCH   5   7
HETATM    7  O2  UNL     1      65.000   2.996  10.351  1.00  0.00    -0.315 OA
BRANCH   7   8
HETATM    8  C6  UNL     1      65.052   4.297  10.964  1.00  0.00     0.142 C 
HETATM    9  C7  UNL     1      66.530   4.654  10.963  1.00  0.00     0.039 C 
HETATM   10  C8  UNL     1      67.093   4.755  12.336  1.00  0.00     0.008 C 
HETATM   11  C9  UNL     1      68.563   4.899  12.371  1.00  0.00    -0.043 C 
HETATM   12  C15 UNL     1      66.309   5.807  13.109  1.00  0.00    -0.016 C 
HETATM   13  C10 UNL     1      69.154   5.985  11.546  1.00  0.00     0.015 C 
HETATM   14  C11 UNL     1      69.128   3.581  11.807  1.00  0.00     0.015 C 
HETATM   15  C12 UNL     1      69.053   4.957  13.795  1.00  0.00     0.009 C 
HETATM   16  C13 UNL     1      67.899   5.082  14.789  1.00  0.00     0.002 C 
HETATM   17  C14 UNL     1      67.057   6.242  14.299  1.00  0.00     0.014 C 
HETATM   18  C16 UNL     1      66.019   7.024  12.252  1.00  0.00     0.020 C 
HETATM   19  C17 UNL     1      65.003   5.127  13.347  1.00  0.00    -0.066 C 
HETATM   20  C18 UNL     1      64.398   5.318  14.490  1.00  0.00    -0.022 C 
HETATM   21  C30 UNL     1      64.427   4.226  12.320  1.00  0.00     0.072 C 
HETATM   22  C19 UNL     1      63.098   4.643  14.724  1.00  0.00     0.039 C 
HETATM   23  C20 UNL     1      62.236   4.776  13.477  1.00  0.00    -0.012 C 
HETATM   24  C21 UNL     1      62.063   6.295  13.278  1.00  0.00     0.018 C 
HETATM   25  C22 UNL     1      60.896   4.259  13.828  1.00  0.00     0.064 C 
HETATM   26  C29 UNL     1      62.911   4.242  12.266  1.00  0.00     0.072 C 
HETATM   27  C23 UNL     1      60.163   3.593  12.687  1.00  0.00     0.156 C 
HETATM   28  C27 UNL     1      61.114   2.600  12.128  1.00  0.00     0.018 C 
HETATM   29  C28 UNL     1      62.370   2.909  11.942  1.00  0.00    -0.000 C 
HETATM   30 CL1  UNL     1      62.475   5.333  10.906  1.00  0.00    -0.113 Cl
BRANCH  27  31
HETATM   31  O3  UNL     1      59.639   4.471  11.772  1.00  0.00    -0.376 OA
ATOM     32  H3  UNL     1      59.206   4.052  11.038  1.00  0.00     0.211 HD
ENDBRANCH  27  31
BRANCH  27  33
HETATM   33  C24 UNL     1      59.046   2.838  13.301  1.00  0.00     0.256 C 
HETATM   34  O4  UNL     1      58.266   3.431  14.079  1.00  0.00    -0.270 OA
HETATM   35  N1  UNL     1      58.802   1.458  13.055  1.00  0.00    -0.359 N 
ATOM     36  H1  UNL     1      59.426   0.956  12.422  1.00  0.00     0.162 HD
BRANCH  35  37
HETATM   37  C25 UNL     1      57.706   0.740  13.664  1.00  0.00     0.118 C 
HETATM   38  C26 UNL     1      57.408  -0.558  12.957  1.00  0.00     0.026 C 
ENDBRANCH  35  37
ENDBRANCH  27  33
ENDBRANCH   7   8
ENDBRANCH   5   7
ENDBRANCH   4   5
ENDBRANCH   3   4
TORSDOF 7
ENDMDL
MODEL 2
REMARK VINA RESULT: -8.382026205      2.443      4.992
REMARK  7 active torsions:
REMARK  status: ('A' for Active; 'I' for Inactive)
REMARK    1  A    between atoms: C3_3  and  C4_4 
REMARK    2  A    between atoms: C4_4  and  C5_5 
REMARK    3  A    between atoms: C5_5  and  O2_7 
REMARK    4  A    between atoms: O2_7  and  C6_8 
REMARK    5  A    between atoms: C23_25  and  O3_26 
REMARK    6  A    between atoms: C23_25  and  C24_28 
REMARK       I    between atoms: C24_28  and  N1_30 
REMARK    7  A    between atoms: N1_30  and  C25_32 
ROOT
HETATM    1  C1  UNL     1      67.143   3.051  13.694  1.00  0.00     0.112 C 
HETATM    2  C2  UNL     1      65.872   2.901  13.002  1.00  0.00    -0.111 C 
HETATM    3  C3  UNL     1      64.798   2.760  12.434  1.00  0.00    -0.097 C 
ENDROOT
BRANCH   3   4
HETATM    4  C4  UNL     1      63.528   2.574  11.777  1.00  0.00     0.204 C 
BRANCH   4   5
HETATM    5  C5  UNL     1      63.025   3.865  11.214  1.00  0.00     0.270 C 
HETATM    6  O1  UNL     1      63.892   4.675  10.830  1.00  0.00    -0.264 OA
BRANCH   5   7
HETATM    7  O2  UNL     1      61.695   4.161  11.117  1.00  0.00    -0.315 OA
BRANCH   7   8
HETATM    8  C6  UNL     1      60.923   4.667  12.220  1.00  0.00     0.142 C 
HETATM    9  C7  UNL     1      61.783   5.778  12.801  1.00  0.00     0.039 C 
HETATM   10  C8  UNL     1      62.255   5.473  14.179  1.00  0.00     0.008 C 
HETATM   11  C9  UNL     1      63.254   6.430  14.696  1.00  0.00    -0.043 C 
HETATM   12  C15 UNL     1      61.042   5.241  15.069  1.00  0.00    -0.016 C 
HETATM   13  C10 UNL     1      62.899   7.873  14.636  1.00  0.00     0.015 C 
HETATM   14  C11 UNL     1      64.499   6.261  13.804  1.00  0.00     0.015 C 
HETATM   15  C12 UNL     1      63.704   6.028  16.077  1.00  0.00     0.009 C 
HETATM   16  C13 UNL     1      62.851   4.896  16.646  1.00  0.00     0.002 C 
HETATM   17  C14 UNL     1      61.412   5.344  16.490  1.00  0.00     0.014 C 
HETATM   18  C16 UNL     1      59.943   6.247  14.785  1.00  0.00     0.020 C 
HETATM   19  C17 UNL     1      60.544   3.915  14.599  1.00  0.00    -0.066 C 
HETATM   20  C18 UNL     1      60.067   3.078  15.482  1.00  0.00    -0.022 C 
HETATM   21  C30 UNL     1      60.625   3.548  13.165  1.00  0.00     0.072 C 
HETATM   22  C19 UNL     1      59.570   1.761  15.012  1.00  0.00     0.039 C 
HETATM   23  C20 UNL     1      58.733   1.964  13.758  1.00  0.00    -0.012 C 
HETATM   24  C21 UNL     1      57.579   2.885  14.200  1.00  0.00     0.018 C 
HETATM   25  C22 UNL     1      58.112   0.659  13.446  1.00  0.00     0.064 C 
HETATM   26  C29 UNL     1      59.483   2.670  12.689  1.00  0.00     0.072 C 
HETATM   27  C23 UNL     1      57.910   0.398  11.971  1.00  0.00     0.156 C 
HETATM   28  C27 UNL     1      59.227   0.657  11.337  1.00  0.00     0.018 C 
HETATM   29  C28 UNL     1      59.938   1.700  11.675  1.00  0.00    -0.000 C 
HETATM   30 CL1  UNL     1      58.316   3.771  11.878  1.00  0.00    -0.113 Cl
BRANCH  27  31
HETATM   31  O3  UNL     1      56.858   1.087  11.422  1.00  0.00    -0.376 OA
ATOM     32  H3  UNL     1      56.529   0.711  10.614  1.00  0.00     0.211 HD
ENDBRANCH  27  31
BRANCH  27  33
HETATM   33  C24 UNL     1      57.635  -1.052  11.844  1.00  0.00     0.256 C 
HETATM   34  O4  UNL     1      57.472  -1.733  12.881  1.00  0.00    -0.270 OA
HETATM   35  N1  UNL     1      57.544  -1.727  10.595  1.00  0.00    -0.359 N 
ATOM     36  H1  UNL     1      57.673  -1.189   9.737  1.00  0.00     0.162 HD
BRANCH  35  37
HETATM   37  C25 UNL     1      57.275  -3.143  10.493  1.00  0.00     0.118 C 
HETATM   38  C26 UNL     1      55.962  -3.429   9.808  1.00  0.00     0.026 C 
ENDBRANCH  35  37
ENDBRANCH  27  33
ENDBRANCH   7   8
ENDBRANCH   5   7
ENDBRANCH   4   5
ENDBRANCH   3   4
TORSDOF 7
ENDMDL
MODEL 3
REMARK VINA RESULT: -8.347280754      2.751      4.747
REMARK  7 active torsions:
REMARK  status: ('A' for Active; 'I' for Inactive)
REMARK    1  A    between atoms: C3_3  and  C4_4 
REMARK    2  A    between atoms: C4_4  and  C5_5 
REMARK    3  A    between atoms: C5_5  and  O2_7 
REMARK    4  A    between atoms: O2_7  and  C6_8 
REMARK    5  A    between atoms: C23_25  and  O3_26 
REMARK    6  A    between atoms: C23_25  and  C24_28 
REMARK       I    between atoms: C24_28  and  N1_30 
REMARK    7  A    between atoms: N1_30  and  C25_32 
ROOT
HETATM    1  C1  UNL     1      64.550   0.189   8.761  1.00  0.00     0.112 C 
HETATM    2  C2  UNL     1      64.241   1.092   9.858  1.00  0.00    -0.111 C 
HETATM    3  C3  UNL     1      63.986   1.867  10.769  1.00  0.00    -0.097 C 
ENDROOT
BRANCH   3   4
HETATM    4  C4  UNL     1      63.696   2.800  11.830  1.00  0.00     0.204 C 
BRANCH   4   5
HETATM    5  C5  UNL     1      63.065   4.043  11.287  1.00  0.00     0.270 C 
HETATM    6  O1  UNL     1      63.846   4.936  10.903  1.00  0.00    -0.264 OA
BRANCH   5   7
HETATM    7  O2  UNL     1      61.711   4.212  11.209  1.00  0.00    -0.315 OA
BRANCH   7   8
HETATM    8  C6  UNL     1      60.920   4.705  12.304  1.00  0.00     0.142 C 
HETATM    9  C7  UNL     1      61.763   5.819  12.905  1.00  0.00     0.039 C 
HETATM   10  C8  UNL     1      62.216   5.508  14.288  1.00  0.00     0.008 C 
HETATM   11  C9  UNL     1      63.200   6.470  14.825  1.00  0.00    -0.043 C 
HETATM   12  C15 UNL     1      60.992   5.261  15.158  1.00  0.00    -0.016 C 
HETATM   13  C10 UNL     1      62.835   7.910  14.769  1.00  0.00     0.015 C 
HETATM   14  C11 UNL     1      64.459   6.316  13.951  1.00  0.00     0.015 C 
HETATM   15  C12 UNL     1      63.633   6.063  16.211  1.00  0.00     0.009 C 
HETATM   16  C13 UNL     1      62.780   4.920  16.759  1.00  0.00     0.002 C 
HETATM   17  C14 UNL     1      61.340   5.358  16.585  1.00  0.00     0.014 C 
HETATM   18  C16 UNL     1      59.890   6.261  14.864  1.00  0.00     0.020 C 
HETATM   19  C17 UNL     1      60.511   3.935  14.673  1.00  0.00    -0.066 C 
HETATM   20  C18 UNL     1      60.029   3.088  15.543  1.00  0.00    -0.022 C 
HETATM   21  C30 UNL     1      60.616   3.578  13.237  1.00  0.00     0.072 C 
HETATM   22  C19 UNL     1      59.549   1.771  15.058  1.00  0.00     0.039 C 
HETATM   23  C20 UNL     1      58.729   1.975  13.793  1.00  0.00    -0.012 C 
HETATM   24  C21 UNL     1      57.561   2.885  14.224  1.00  0.00     0.018 C 
HETATM   25  C22 UNL     1      58.122   0.667  13.463  1.00  0.00     0.064 C 
HETATM   26  C29 UNL     1      59.489   2.694  12.739  1.00  0.00     0.072 C 
HETATM   27  C23 UNL     1      57.944   0.415  11.984  1.00  0.00     0.156 C 
HETATM   28  C27 UNL     1      59.268   0.688  11.371  1.00  0.00     0.018 C 
HETATM   29  C28 UNL     1      59.966   1.734  11.726  1.00  0.00    -0.000 C 
HETATM   30 CL1  UNL     1      58.325   3.791  11.918  1.00  0.00    -0.113 Cl
BRANCH  27  31
HETATM   31  O3  UNL     1      56.895   1.099  11.423  1.00  0.00    -0.376 OA
ATOM     32  H3  UNL     1      56.060   0.651  11.492  1.00  0.00     0.211 HD
ENDBRANCH  27  31
BRANCH  27  33
HETATM   33  C24 UNL     1      57.683  -1.037  11.843  1.00  0.00     0.256 C 
HETATM   34  O4  UNL     1      57.575  -1.738  12.873  1.00  0.00    -0.270 OA
HETATM   35  N1  UNL     1      57.543  -1.691  10.587  1.00  0.00    -0.359 N 
ATOM     36  H1  UNL     1      57.627  -1.137   9.735  1.00  0.00     0.162 HD
BRANCH  35  37
HETATM   37  C25 UNL     1      57.289  -3.109  10.472  1.00  0.00     0.118 C 
HETATM   38  C26 UNL     1      55.969  -3.401   9.804  1.00  0.00     0.026 C 
ENDBRANCH  35  37
ENDBRANCH  27  33
ENDBRANCH   7   8
ENDBRANCH   5   7
ENDBRANCH   4   5
ENDBRANCH   3   4
TORSDOF 7
ENDMDL
MODEL 4
REMARK VINA RESULT: -8.315762204      1.950      3.347
REMARK  7 active torsions:
REMARK  status: ('A' for Active; 'I' for Inactive)
REMARK    1  A    between atoms: C3_3  and  C4_4 
REMARK    2  A    between atoms: C4_4  and  C5_5 
REMARK    3  A    between atoms: C5_5  and  O2_7 
REMARK    4  A    between atoms: O2_7  and  C6_8 
REMARK    5  A    between atoms: C23_25  and  O3_26 
REMARK    6  A    between atoms: C23_25  and  C24_28 
REMARK       I    between atoms: C24_28  and  N1_30 
REMARK    7  A    between atoms: N1_30  and  C25_32 
ROOT
HETATM    1  C1  UNL     1      59.622   0.031   8.552  1.00  0.00     0.112 C 
HETATM    2  C2  UNL     1      60.977   0.465   8.855  1.00  0.00    -0.111 C 
HETATM    3  C3  UNL     1      62.120   0.811   9.117  1.00  0.00    -0.097 C 
ENDROOT
BRANCH   3   4
HETATM    4  C4  UNL     1      63.471   1.199   9.442  1.00  0.00     0.204 C 
BRANCH   4   5
HETATM    5  C5  UNL     1      63.494   2.536  10.113  1.00  0.00     0.270 C 
HETATM    6  O1  UNL     1      63.775   3.512   9.390  1.00  0.00    -0.264 OA
BRANCH   5   7
HETATM    7  O2  UNL     1      63.226   2.700  11.443  1.00  0.00    -0.315 OA
BRANCH   7   8
HETATM    8  C6  UNL     1      62.546   3.853  11.968  1.00  0.00     0.142 C 
HETATM    9  C7  UNL     1      63.664   4.829  12.302  1.00  0.00     0.039 C 
HETATM   10  C8  UNL     1      63.770   5.095  13.762  1.00  0.00     0.008 C 
HETATM   11  C9  UNL     1      64.967   5.874  14.142  1.00  0.00    -0.043 C 
HETATM   12  C15 UNL     1      62.440   5.648  14.255  1.00  0.00    -0.016 C 
HETATM   13  C10 UNL     1      65.197   7.153  13.418  1.00  0.00     0.015 C 
HETATM   14  C11 UNL     1      66.175   4.976  13.813  1.00  0.00     0.015 C 
HETATM   15  C12 UNL     1      65.017   6.068  15.636  1.00  0.00     0.009 C 
HETATM   16  C13 UNL     1      63.724   5.615  16.311  1.00  0.00     0.002 C 
HETATM   17  C14 UNL     1      62.603   6.305  15.562  1.00  0.00     0.014 C 
HETATM   18  C16 UNL     1      61.860   6.654  13.280  1.00  0.00     0.020 C 
HETATM   19  C17 UNL     1      61.556   4.447  14.212  1.00  0.00    -0.066 C 
HETATM   20  C18 UNL     1      60.670   4.289  15.161  1.00  0.00    -0.022 C 
HETATM   21  C30 UNL     1      61.708   3.440  13.135  1.00  0.00     0.072 C 
HETATM   22  C19 UNL     1      59.790   3.096  15.115  1.00  0.00     0.039 C 
HETATM   23  C20 UNL     1      59.291   2.899  13.691  1.00  0.00    -0.012 C 
HETATM   24  C21 UNL     1      58.518   4.192  13.363  1.00  0.00     0.018 C 
HETATM   25  C22 UNL     1      58.278   1.824  13.739  1.00  0.00     0.064 C 
HETATM   26  C29 UNL     1      60.405   2.786  12.715  1.00  0.00     0.072 C 
HETATM   27  C23 UNL     1      58.218   0.963  12.498  1.00  0.00     0.156 C 
HETATM   28  C27 UNL     1      59.614   0.527  12.249  1.00  0.00     0.018 C 
HETATM   29  C28 UNL     1      60.607   1.370  12.353  1.00  0.00    -0.000 C 
HETATM   30 CL1  UNL     1      59.877   3.641  11.225  1.00  0.00    -0.113 Cl
BRANCH  27  31
HETATM   31  O3  UNL     1      57.601   1.566  11.431  1.00  0.00    -0.376 OA
ATOM     32  H3  UNL     1      56.685   1.771  11.579  1.00  0.00     0.211 HD
ENDBRANCH  27  31
BRANCH  27  33
HETATM   33  C24 UNL     1      57.438  -0.241  12.870  1.00  0.00     0.256 C 
HETATM   34  O4  UNL     1      56.880  -0.281  13.989  1.00  0.00    -0.270 OA
HETATM   35  N1  UNL     1      57.283  -1.369  12.018  1.00  0.00    -0.359 N 
ATOM     36  H1  UNL     1      57.730  -1.355  11.101  1.00  0.00     0.162 HD
BRANCH  35  37
HETATM   37  C25 UNL     1      56.518  -2.534  12.400  1.00  0.00     0.118 C 
HETATM   38  C26 UNL     1      55.138  -2.537  11.793  1.00  0.00     0.026 C 
ENDBRANCH  35  37
ENDBRANCH  27  33
ENDBRANCH   7   8
ENDBRANCH   5   7
ENDBRANCH   4   5
ENDBRANCH   3   4
TORSDOF 7
ENDMDL
MODEL 5
REMARK VINA RESULT: -8.261161236      1.759      3.026
REMARK  7 active torsions:
REMARK  status: ('A' for Active; 'I' for Inactive)
REMARK    1  A    between atoms: C3_3  and  C4_4 
REMARK    2  A    between atoms: C4_4  and  C5_5 
REMARK    3  A    between atoms: C5_5  and  O2_7 
REMARK    4  A    between atoms: O2_7  and  C6_8 
REMARK    5  A    between atoms: C23_25  and  O3_26 
REMARK    6  A    between atoms: C23_25  and  C24_28 
REMARK       I    between atoms: C24_28  and  N1_30 
REMARK    7  A    between atoms: N1_30  and  C25_32 
ROOT
HETATM    1  C1  UNL     1      67.826   2.150  14.284  1.00  0.00     0.112 C 
HETATM    2  C2  UNL     1      66.644   2.067  13.439  1.00  0.00    -0.111 C 
HETATM    3  C3  UNL     1      65.660   2.009  12.716  1.00  0.00    -0.097 C 
ENDROOT
BRANCH   3   4
HETATM    4  C4  UNL     1      64.510   1.959  11.847  1.00  0.00     0.204 C 
BRANCH   4   5
HETATM    5  C5  UNL     1      64.497   3.128  10.913  1.00  0.00     0.270 C 
HETATM    6  O1  UNL     1      65.528   3.304  10.234  1.00  0.00    -0.264 OA
BRANCH   5   7
HETATM    7  O2  UNL     1      63.426   3.968  10.796  1.00  0.00    -0.315 OA
BRANCH   7   8
HETATM    8  C6  UNL     1      63.132   5.000  11.754  1.00  0.00     0.142 C 
HETATM    9  C7  UNL     1      64.438   5.766  11.893  1.00  0.00     0.039 C 
HETATM   10  C8  UNL     1      65.030   5.642  13.253  1.00  0.00     0.008 C 
HETATM   11  C9  UNL     1      66.393   6.201  13.365  1.00  0.00    -0.043 C 
HETATM   12  C15 UNL     1      64.021   6.154  14.272  1.00  0.00    -0.016 C 
HETATM   13  C10 UNL     1      66.589   7.599  12.899  1.00  0.00     0.015 C 
HETATM   14  C11 UNL     1      67.282   5.323  12.464  1.00  0.00     0.015 C 
HETATM   15  C12 UNL     1      66.930   6.002  14.760  1.00  0.00     0.009 C 
HETATM   16  C13 UNL     1      65.853   5.496  15.717  1.00  0.00     0.002 C 
HETATM   17  C14 UNL     1      64.680   6.442  15.556  1.00  0.00     0.014 C 
HETATM   18  C16 UNL     1      63.337   7.418  13.789  1.00  0.00     0.020 C 
HETATM   19  C17 UNL     1      62.988   5.078  14.273  1.00  0.00    -0.066 C 
HETATM   20  C18 UNL     1      62.424   4.754  15.406  1.00  0.00    -0.022 C 
HETATM   21  C30 UNL     1      62.639   4.371  13.017  1.00  0.00     0.072 C 
HETATM   22  C19 UNL     1      61.394   3.686  15.405  1.00  0.00     0.039 C 
HETATM   23  C20 UNL     1      60.458   3.899  14.225  1.00  0.00    -0.012 C 
HETATM   24  C21 UNL     1      59.836   5.290  14.463  1.00  0.00     0.018 C 
HETATM   25  C22 UNL     1      59.351   2.931  14.380  1.00  0.00     0.064 C 
HETATM   26  C29 UNL     1      61.184   3.950  12.931  1.00  0.00     0.072 C 
HETATM   27  C23 UNL     1      58.776   2.423  13.078  1.00  0.00     0.156 C 
HETATM   28  C27 UNL     1      59.940   1.955  12.285  1.00  0.00     0.018 C 
HETATM   29  C28 UNL     1      61.038   2.662  12.227  1.00  0.00    -0.000 C 
HETATM   30 CL1  UNL     1      60.366   5.196  11.927  1.00  0.00    -0.113 Cl
BRANCH  27  31
HETATM   31  O3  UNL     1      57.964   3.324  12.437  1.00  0.00    -0.376 OA
ATOM     32  H3  UNL     1      57.059   3.046  12.365  1.00  0.00     0.211 HD
ENDBRANCH  27  31
BRANCH  27  33
HETATM   33  C24 UNL     1      57.968   1.230  13.423  1.00  0.00     0.256 C 
HETATM   34  O4  UNL     1      57.215   1.274  14.421  1.00  0.00    -0.270 OA
HETATM   35  N1  UNL     1      57.996   0.020  12.675  1.00  0.00    -0.359 N 
ATOM     36  H1  UNL     1      58.604  -0.036  11.857  1.00  0.00     0.162 HD
BRANCH  35  37
HETATM   37  C25 UNL     1      57.200  -1.133  13.029  1.00  0.00     0.118 C 
HETATM   38  C26 UNL     1      56.948  -2.038  11.850  1.00  0.00     0.026 C 
ENDBRANCH  35  37
ENDBRANCH  27  33
ENDBRANCH   7   8
ENDBRANCH   5   7
ENDBRANCH   4   5
ENDBRANCH   3   4
TORSDOF 7
ENDMDL
