MODEL 1
REMARK VINA RESULT: -9.905831024      0.000      0.000
REMARK  7 active torsions:
REMARK  status: ('A' for Active; 'I' for Inactive)
REMARK    1  A    between atoms: C5_5  and  C6_6 
REMARK    2  A    between atoms: C6_6  and  C7_7 
REMARK       I    between atoms: C7_7  and  N1_9 
REMARK    3  A    between atoms: N1_9  and  N2_11 
REMARK       I    between atoms: N3_19  and  C15_20 
REMARK    4  A    between atoms: C15_20  and  C16_22 
REMARK    5  A    between atoms: C16_22  and  N4_24 
REMARK       I    between atoms: N4_24  and  C18_26 
REMARK    6  A    between atoms: C18_26  and  O4_28 
REMARK    7  A    between atoms: O4_28  and  C19_29 
ROOT
HETATM    1  N2  UNL     1      59.991   4.380  14.238  1.00  0.00    -0.229 NA
HETATM    2  C8  UNL     1      60.267   4.954  12.959  1.00  0.00     0.114 C 
HETATM    3  C9  UNL     1      61.213   6.132  13.035  1.00  0.00     0.026 C 
HETATM    4  C10 UNL     1      62.538   5.748  13.669  1.00  0.00    -0.035 C 
HETATM    5  C11 UNL     1      62.370   4.483  14.454  1.00  0.00     0.026 C 
HETATM    6  C12 UNL     1      61.053   4.554  15.193  1.00  0.00     0.114 C 
HETATM    7  C13 UNL     1      63.619   5.559  12.654  1.00  0.00     0.029 C 
HETATM    8  C14 UNL     1      64.791   6.512  12.822  1.00  0.00     0.126 C 
HETATM    9  N3  UNL     1      65.279   6.603  14.165  1.00  0.00    -0.350 N 
HETATM   10  C15 UNL     1      66.661   6.637  14.493  1.00  0.00     0.242 C 
HETATM   11  O2  UNL     1      66.970   6.700  15.733  1.00  0.00    -0.271 OA
HETATM   12  C23 UNL     1      64.261   6.666  15.231  1.00  0.00     0.126 C 
HETATM   13  C24 UNL     1      62.935   6.885  14.578  1.00  0.00     0.029 C 
ENDROOT
BRANCH   1  14
HETATM   14  N1  UNL     1      59.672   3.019  14.201  1.00  0.00    -0.289 N 
HETATM   15  C7  UNL     1      58.605   2.589  13.379  1.00  0.00     0.236 C 
HETATM   16  O1  UNL     1      57.932   3.390  12.681  1.00  0.00    -0.272 OA
ATOM     17  H1  UNL     1      60.200   2.347  14.758  1.00  0.00     0.184 HD
BRANCH  15  18
HETATM   18  C6  UNL     1      58.272   1.145  13.346  1.00  0.00     0.143 C 
BRANCH  18  19
HETATM   19  C5  UNL     1      58.581   0.490  12.064  1.00  0.00    -0.042 A 
HETATM   20  C4  UNL     1      59.577   1.024  11.231  1.00  0.00     0.009 A 
HETATM   21  C3  UNL     1      59.895   0.449  10.020  1.00  0.00     0.009 A 
HETATM   22  C2  UNL     1      59.243  -0.682   9.573  1.00  0.00    -0.040 A 
HETATM   23  C1  UNL     1      59.587  -1.306   8.256  1.00  0.00     0.050 C 
HETATM   24  C27 UNL     1      58.265  -1.216  10.375  1.00  0.00     0.046 A 
HETATM   25  C25 UNL     1      57.943  -0.632  11.608  1.00  0.00    -0.033 A 
HETATM   26 CL1  UNL     1      57.404  -2.643   9.870  1.00  0.00    -0.083 Cl
HETATM   27  C26 UNL     1      56.880  -1.248  12.456  1.00  0.00     0.050 C 
ENDBRANCH  18  19
ENDBRANCH  15  18
ENDBRANCH   1  14
BRANCH  10  28
HETATM   28  C16 UNL     1      67.754   6.603  13.496  1.00  0.00     0.175 C 
HETATM   29  C17 UNL     1      68.428   7.958  13.490  1.00  0.00     0.042 C 
BRANCH  28  30
HETATM   30  N4  UNL     1      68.697   5.552  13.836  1.00  0.00    -0.324 N 
HETATM   31  C18 UNL     1      68.871   4.432  12.987  1.00  0.00     0.362 C 
HETATM   32  O3  UNL     1      68.213   4.303  11.902  1.00  0.00    -0.238 OA
ATOM     33  H4  UNL     1      69.240   5.622  14.696  1.00  0.00     0.165 HD
BRANCH  31  34
HETATM   34  O4  UNL     1      69.756   3.418  13.278  1.00  0.00    -0.294 OA
BRANCH  34  35
HETATM   35  C19 UNL     1      69.413   2.203  13.905  1.00  0.00     0.061 C 
HETATM   36  C20 UNL     1      68.014   2.161  14.412  1.00  0.00     0.046 C 
HETATM   37  C21 UNL     1      69.697   1.079  12.944  1.00  0.00     0.046 C 
HETATM   38  C22 UNL     1      70.362   2.049  15.083  1.00  0.00     0.046 C 
ENDBRANCH  34  35
ENDBRANCH  31  34
ENDBRANCH  28  30
ENDBRANCH  10  28
TORSDOF 7
ENDMDL
MODEL 2
REMARK VINA RESULT: -9.758753950      2.122      2.495
REMARK  7 active torsions:
REMARK  status: ('A' for Active; 'I' for Inactive)
REMARK    1  A    between atoms: C5_5  and  C6_6 
REMARK    2  A    between atoms: C6_6  and  C7_7 
REMARK       I    between atoms: C7_7  and  N1_9 
REMARK    3  A    between atoms: N1_9  and  N2_11 
REMARK       I    between atoms: N3_19  and  C15_20 
REMARK    4  A    between atoms: C15_20  and  C16_22 
REMARK    5  A    between atoms: C16_22  and  N4_24 
REMARK       I    between atoms: N4_24  and  C18_26 
REMARK    6  A    between atoms: C18_26  and  O4_28 
REMARK    7  A    between atoms: O4_28  and  C19_29 
ROOT
HETATM    1  N2  UNL     1      59.681   4.017  15.235  1.00  0.00    -0.229 NA
HETATM    2  C8  UNL     1      59.574   4.874  14.097  1.00  0.00     0.114 C 
HETATM    3  C9  UNL     1      60.390   6.140  14.234  1.00  0.00     0.026 C 
HETATM    4  C10 UNL     1      61.861   5.838  14.453  1.00  0.00    -0.035 C 
HETATM    5  C11 UNL     1      62.018   4.430  14.939  1.00  0.00     0.026 C 
HETATM    6  C12 UNL     1      60.925   4.151  15.947  1.00  0.00     0.114 C 
HETATM    7  C13 UNL     1      62.670   6.023  13.210  1.00  0.00     0.029 C 
HETATM    8  C14 UNL     1      63.748   7.087  13.333  1.00  0.00     0.126 C 
HETATM    9  N3  UNL     1      64.543   6.975  14.518  1.00  0.00    -0.350 N 
HETATM   10  C15 UNL     1      65.954   7.148  14.532  1.00  0.00     0.242 C 
HETATM   11  O2  UNL     1      66.553   7.003  15.653  1.00  0.00    -0.271 OA
HETATM   12  C23 UNL     1      63.821   6.667  15.767  1.00  0.00     0.126 C 
HETATM   13  C24 UNL     1      62.359   6.813  15.492  1.00  0.00     0.029 C 
ENDROOT
BRANCH   1  14
HETATM   14  N1  UNL     1      59.497   2.660  14.953  1.00  0.00    -0.289 N 
HETATM   15  C7  UNL     1      58.427   2.276  14.112  1.00  0.00     0.236 C 
HETATM   16  O1  UNL     1      57.635   3.114  13.610  1.00  0.00    -0.272 OA
ATOM     17  H1  UNL     1      60.123   1.959  15.347  1.00  0.00     0.184 HD
BRANCH  15  18
HETATM   18  C6  UNL     1      58.237   0.835  13.818  1.00  0.00     0.143 C 
BRANCH  18  19
HETATM   19  C5  UNL     1      58.586   0.456  12.440  1.00  0.00    -0.042 A 
HETATM   20  C4  UNL     1      59.573   1.175  11.747  1.00  0.00     0.009 A 
HETATM   21  C3  UNL     1      59.927   0.861  10.454  1.00  0.00     0.009 A 
HETATM   22  C2  UNL     1      59.323  -0.181   9.781  1.00  0.00    -0.040 A 
HETATM   23  C1  UNL     1      59.706  -0.523   8.375  1.00  0.00     0.050 C 
HETATM   24  C27 UNL     1      58.354  -0.895  10.444  1.00  0.00     0.046 A 
HETATM   25  C25 UNL     1      57.995  -0.575  11.760  1.00  0.00    -0.033 A 
HETATM   26 CL1  UNL     1      57.552  -2.222   9.651  1.00  0.00    -0.083 Cl
HETATM   27  C26 UNL     1      56.944  -1.381  12.449  1.00  0.00     0.050 C 
ENDBRANCH  18  19
ENDBRANCH  15  18
ENDBRANCH   1  14
BRANCH  10  28
HETATM   28  C16 UNL     1      66.763   7.482  13.339  1.00  0.00     0.175 C 
HETATM   29  C17 UNL     1      68.124   7.948  13.809  1.00  0.00     0.042 C 
BRANCH  28  30
HETATM   30  N4  UNL     1      66.878   6.316  12.481  1.00  0.00    -0.324 N 
HETATM   31  C18 UNL     1      66.834   6.445  11.071  1.00  0.00     0.362 C 
HETATM   32  O3  UNL     1      66.692   7.579  10.506  1.00  0.00    -0.238 OA
ATOM     33  H4  UNL     1      66.992   5.392  12.899  1.00  0.00     0.165 HD
BRANCH  31  34
HETATM   34  O4  UNL     1      66.940   5.362  10.229  1.00  0.00    -0.294 OA
BRANCH  34  35
HETATM   35  C19 UNL     1      65.899   4.455   9.946  1.00  0.00     0.061 C 
HETATM   36  C20 UNL     1      64.542   4.978  10.261  1.00  0.00     0.046 C 
HETATM   37  C21 UNL     1      66.019   4.034   8.505  1.00  0.00     0.046 C 
HETATM   38  C22 UNL     1      66.159   3.227  10.804  1.00  0.00     0.046 C 
ENDBRANCH  34  35
ENDBRANCH  31  34
ENDBRANCH  28  30
ENDBRANCH  10  28
TORSDOF 7
ENDMDL
MODEL 3
REMARK VINA RESULT: -9.704298053      2.449      3.185
REMARK  7 active torsions:
REMARK  status: ('A' for Active; 'I' for Inactive)
REMARK    1  A    between atoms: C5_5  and  C6_6 
REMARK    2  A    between atoms: C6_6  and  C7_7 
REMARK       I    between atoms: C7_7  and  N1_9 
REMARK    3  A    between atoms: N1_9  and  N2_11 
REMARK       I    between atoms: N3_19  and  C15_20 
REMARK    4  A    between atoms: C15_20  and  C16_22 
REMARK    5  A    between atoms: C16_22  and  N4_24 
REMARK       I    between atoms: N4_24  and  C18_26 
REMARK    6  A    between atoms: C18_26  and  O4_28 
REMARK    7  A    between atoms: O4_28  and  C19_29 
ROOT
HETATM    1  N2  UNL     1      59.804   4.609  15.470  1.00  0.00    -0.229 NA
HETATM    2  C8  UNL     1      59.807   6.025  15.283  1.00  0.00     0.114 C 
HETATM    3  C9  UNL     1      61.085   6.679  15.761  1.00  0.00     0.026 C 
HETATM    4  C10 UNL     1      62.303   6.113  15.053  1.00  0.00    -0.035 C 
HETATM    5  C11 UNL     1      61.964   4.781  14.457  1.00  0.00     0.026 C 
HETATM    6  C12 UNL     1      61.116   4.019  15.451  1.00  0.00     0.114 C 
HETATM    7  C13 UNL     1      62.807   7.020  13.978  1.00  0.00     0.029 C 
HETATM    8  C14 UNL     1      64.227   7.510  14.205  1.00  0.00     0.126 C 
HETATM    9  N3  UNL     1      65.151   6.474  14.555  1.00  0.00    -0.350 N 
HETATM   10  C15 UNL     1      66.467   6.389  14.025  1.00  0.00     0.242 C 
HETATM   11  O2  UNL     1      67.190   5.403  14.403  1.00  0.00    -0.271 OA
HETATM   12  C23 UNL     1      64.673   5.467  15.522  1.00  0.00     0.126 C 
HETATM   13  C24 UNL     1      63.385   5.965  16.094  1.00  0.00     0.029 C 
ENDROOT
BRANCH   1  14
HETATM   14  N1  UNL     1      59.011   3.909  14.555  1.00  0.00    -0.289 N 
HETATM   15  C7  UNL     1      58.887   2.508  14.689  1.00  0.00     0.236 C 
HETATM   16  O1  UNL     1      59.468   1.868  15.603  1.00  0.00    -0.272 OA
ATOM     17  H1  UNL     1      58.530   4.402  13.803  1.00  0.00     0.184 HD
BRANCH  15  18
HETATM   18  C6  UNL     1      58.046   1.772  13.715  1.00  0.00     0.143 C 
BRANCH  18  19
HETATM   19  C5  UNL     1      58.756   1.385  12.485  1.00  0.00    -0.042 A 
HETATM   20  C4  UNL     1      59.870   2.127  12.060  1.00  0.00     0.009 A 
HETATM   21  C3  UNL     1      60.561   1.805  10.912  1.00  0.00     0.009 A 
HETATM   22  C2  UNL     1      60.185   0.733  10.129  1.00  0.00    -0.040 A 
HETATM   23  C1  UNL     1      60.934   0.384   8.880  1.00  0.00     0.050 C 
HETATM   24  C27 UNL     1      59.097  -0.003  10.530  1.00  0.00     0.046 A 
HETATM   25  C25 UNL     1      58.395   0.324  11.698  1.00  0.00    -0.033 A 
HETATM   26 CL1  UNL     1      58.570  -1.368   9.586  1.00  0.00    -0.083 Cl
HETATM   27  C26 UNL     1      57.223  -0.507  12.106  1.00  0.00     0.050 C 
ENDBRANCH  18  19
ENDBRANCH  15  18
ENDBRANCH   1  14
BRANCH  10  28
HETATM   28  C16 UNL     1      67.044   7.361  13.071  1.00  0.00     0.175 C 
HETATM   29  C17 UNL     1      68.181   8.082  13.765  1.00  0.00     0.042 C 
BRANCH  28  30
HETATM   30  N4  UNL     1      67.514   6.667  11.886  1.00  0.00    -0.324 N 
HETATM   31  C18 UNL     1      66.598   6.075  10.981  1.00  0.00     0.362 C 
HETATM   32  O3  UNL     1      65.338   6.128  11.172  1.00  0.00    -0.238 OA
ATOM     33  H4  UNL     1      68.515   6.605  11.701  1.00  0.00     0.165 HD
BRANCH  31  34
HETATM   34  O4  UNL     1      67.008   5.409   9.848  1.00  0.00    -0.294 OA
BRANCH  34  35
HETATM   35  C19 UNL     1      67.322   6.024   8.620  1.00  0.00     0.061 C 
HETATM   36  C20 UNL     1      66.716   7.373   8.449  1.00  0.00     0.046 C 
HETATM   37  C21 UNL     1      68.821   6.060   8.480  1.00  0.00     0.046 C 
HETATM   38  C22 UNL     1      66.783   5.107   7.534  1.00  0.00     0.046 C 
ENDBRANCH  34  35
ENDBRANCH  31  34
ENDBRANCH  28  30
ENDBRANCH  10  28
TORSDOF 7
ENDMDL
MODEL 4
REMARK VINA RESULT: -9.599157191      1.439      1.535
REMARK  7 active torsions:
REMARK  status: ('A' for Active; 'I' for Inactive)
REMARK    1  A    between atoms: C5_5  and  C6_6 
REMARK    2  A    between atoms: C6_6  and  C7_7 
REMARK       I    between atoms: C7_7  and  N1_9 
REMARK    3  A    between atoms: N1_9  and  N2_11 
REMARK       I    between atoms: N3_19  and  C15_20 
REMARK    4  A    between atoms: C15_20  and  C16_22 
REMARK    5  A    between atoms: C16_22  and  N4_24 
REMARK       I    between atoms: N4_24  and  C18_26 
REMARK    6  A    between atoms: C18_26  and  O4_28 
REMARK    7  A    between atoms: O4_28  and  C19_29 
ROOT
HETATM    1  N2  UNL     1      59.581   4.226  12.918  1.00  0.00    -0.229 NA
HETATM    2  C8  UNL     1      60.103   4.918  11.782  1.00  0.00     0.114 C 
HETATM    3  C9  UNL     1      61.232   5.860  12.134  1.00  0.00     0.026 C 
HETATM    4  C10 UNL     1      62.383   5.131  12.804  1.00  0.00    -0.035 C 
HETATM    5  C11 UNL     1      61.899   3.822  13.348  1.00  0.00     0.026 C 
HETATM    6  C12 UNL     1      60.540   4.042  13.975  1.00  0.00     0.114 C 
HETATM    7  C13 UNL     1      63.521   4.885  11.867  1.00  0.00     0.029 C 
HETATM    8  C14 UNL     1      64.819   5.551  12.292  1.00  0.00     0.126 C 
HETATM    9  N3  UNL     1      65.158   5.342  13.667  1.00  0.00    -0.350 N 
HETATM   10  C15 UNL     1      66.476   5.052  14.111  1.00  0.00     0.242 C 
HETATM   11  O2  UNL     1      66.646   4.866  15.366  1.00  0.00    -0.271 OA
HETATM   12  C23 UNL     1      64.053   5.446  14.639  1.00  0.00     0.126 C 
HETATM   13  C24 UNL     1      62.873   6.018  13.922  1.00  0.00     0.029 C 
ENDROOT
BRANCH   1  14
HETATM   14  N1  UNL     1      59.026   2.976  12.625  1.00  0.00    -0.289 N 
HETATM   15  C7  UNL     1      58.260   2.320  13.615  1.00  0.00     0.236 C 
HETATM   16  O1  UNL     1      58.061   2.822  14.751  1.00  0.00    -0.272 OA
ATOM     17  H1  UNL     1      59.172   2.544  11.713  1.00  0.00     0.184 HD
BRANCH  15  18
HETATM   18  C6  UNL     1      57.676   0.995  13.299  1.00  0.00     0.143 C 
BRANCH  18  19
HETATM   19  C5  UNL     1      58.178   0.404  12.048  1.00  0.00    -0.042 A 
HETATM   20  C4  UNL     1      59.261   0.999  11.381  1.00  0.00     0.009 A 
HETATM   21  C3  UNL     1      59.760   0.484  10.204  1.00  0.00     0.009 A 
HETATM   22  C2  UNL     1      59.213  -0.644   9.629  1.00  0.00    -0.040 A 
HETATM   23  C1  UNL     1      59.754  -1.202   8.349  1.00  0.00     0.050 C 
HETATM   24  C27 UNL     1      58.152  -1.238  10.268  1.00  0.00     0.046 A 
HETATM   25  C25 UNL     1      57.645  -0.715  11.465  1.00  0.00    -0.033 A 
HETATM   26 CL1  UNL     1      57.415  -2.664   9.594  1.00  0.00    -0.083 Cl
HETATM   27  C26 UNL     1      56.497  -1.396  12.134  1.00  0.00     0.050 C 
ENDBRANCH  18  19
ENDBRANCH  15  18
ENDBRANCH   1  14
BRANCH  10  28
HETATM   28  C16 UNL     1      67.652   4.951  13.219  1.00  0.00     0.175 C 
HETATM   29  C17 UNL     1      68.651   6.010  13.635  1.00  0.00     0.042 C 
BRANCH  28  30
HETATM   30  N4  UNL     1      68.230   3.622  13.315  1.00  0.00    -0.324 N 
HETATM   31  C18 UNL     1      67.859   2.603  12.404  1.00  0.00     0.362 C 
HETATM   32  O3  UNL     1      67.012   2.810  11.474  1.00  0.00    -0.238 OA
ATOM     33  H4  UNL     1      68.910   3.421  14.047  1.00  0.00     0.165 HD
BRANCH  31  34
HETATM   34  O4  UNL     1      68.387   1.333  12.466  1.00  0.00    -0.294 OA
BRANCH  34  35
HETATM   35  C19 UNL     1      67.850   0.272  13.223  1.00  0.00     0.061 C 
HETATM   36  C20 UNL     1      66.397   0.414  13.512  1.00  0.00     0.046 C 
HETATM   37  C21 UNL     1      68.158  -1.019  12.511  1.00  0.00     0.046 C 
HETATM   38  C22 UNL     1      68.609   0.261  14.540  1.00  0.00     0.046 C 
ENDBRANCH  34  35
ENDBRANCH  31  34
ENDBRANCH  28  30
ENDBRANCH  10  28
TORSDOF 7
ENDMDL
MODEL 5
REMARK VINA RESULT: -9.457501423      2.721      3.521
REMARK  7 active torsions:
REMARK  status: ('A' for Active; 'I' for Inactive)
REMARK    1  A    between atoms: C5_5  and  C6_6 
REMARK    2  A    between atoms: C6_6  and  C7_7 
REMARK       I    between atoms: C7_7  and  N1_9 
REMARK    3  A    between atoms: N1_9  and  N2_11 
REMARK       I    between atoms: N3_19  and  C15_20 
REMARK    4  A    between atoms: C15_20  and  C16_22 
REMARK    5  A    between atoms: C16_22  and  N4_24 
REMARK       I    between atoms: N4_24  and  C18_26 
REMARK    6  A    between atoms: C18_26  and  O4_28 
REMARK    7  A    between atoms: O4_28  and  C19_29 
ROOT
HETATM    1  N2  UNL     1      59.797   4.391  13.260  1.00  0.00    -0.229 NA
HETATM    2  C8  UNL     1      60.097   5.392  12.286  1.00  0.00     0.114 C 
HETATM    3  C9  UNL     1      61.428   6.069  12.529  1.00  0.00     0.026 C 
HETATM    4  C10 UNL     1      62.571   5.071  12.539  1.00  0.00    -0.035 C 
HETATM    5  C11 UNL     1      62.034   3.694  12.781  1.00  0.00     0.026 C 
HETATM    6  C12 UNL     1      60.963   3.783  13.846  1.00  0.00     0.114 C 
HETATM    7  C13 UNL     1      63.344   5.080  11.259  1.00  0.00     0.029 C 
HETATM    8  C14 UNL     1      64.805   5.462  11.428  1.00  0.00     0.126 C 
HETATM    9  N3  UNL     1      65.469   4.767  12.489  1.00  0.00    -0.350 N 
HETATM   10  C15 UNL     1      66.786   4.245  12.377  1.00  0.00     0.242 C 
HETATM   11  O2  UNL     1      67.262   3.627  13.391  1.00  0.00    -0.271 OA
HETATM   12  C23 UNL     1      64.713   4.610  13.746  1.00  0.00     0.126 C 
HETATM   13  C24 UNL     1      63.500   5.480  13.656  1.00  0.00     0.029 C 
ENDROOT
BRANCH   1  14
HETATM   14  N1  UNL     1      58.972   3.363  12.794  1.00  0.00    -0.289 N 
HETATM   15  C7  UNL     1      58.698   2.267  13.644  1.00  0.00     0.236 C 
HETATM   16  O1  UNL     1      59.172   2.186  14.806  1.00  0.00    -0.272 OA
ATOM     17  H1  UNL     1      58.574   3.402  11.856  1.00  0.00     0.184 HD
BRANCH  15  18
HETATM   18  C6  UNL     1      57.823   1.181  13.143  1.00  0.00     0.143 C 
BRANCH  18  19
HETATM   19  C5  UNL     1      58.315   0.537  11.914  1.00  0.00    -0.042 A 
HETATM   20  C4  UNL     1      59.381   1.112  11.204  1.00  0.00     0.009 A 
HETATM   21  C3  UNL     1      59.869   0.549  10.046  1.00  0.00     0.009 A 
HETATM   22  C2  UNL     1      59.328  -0.611   9.532  1.00  0.00    -0.040 A 
HETATM   23  C1  UNL     1      59.857  -1.223   8.272  1.00  0.00     0.050 C 
HETATM   24  C27 UNL     1      58.283  -1.187  10.214  1.00  0.00     0.046 A 
HETATM   25  C25 UNL     1      57.787  -0.614  11.393  1.00  0.00    -0.033 A 
HETATM   26 CL1  UNL     1      57.555  -2.652   9.619  1.00  0.00    -0.083 Cl
HETATM   27  C26 UNL     1      56.658  -1.276  12.110  1.00  0.00     0.050 C 
ENDBRANCH  18  19
ENDBRANCH  15  18
ENDBRANCH   1  14
BRANCH  10  28
HETATM   28  C16 UNL     1      67.632   4.373  11.169  1.00  0.00     0.175 C 
HETATM   29  C17 UNL     1      69.081   4.291  11.599  1.00  0.00     0.042 C 
BRANCH  28  30
HETATM   30  N4  UNL     1      67.307   3.316  10.228  1.00  0.00    -0.324 N 
HETATM   31  C18 UNL     1      66.840   3.623   8.926  1.00  0.00     0.362 C 
HETATM   32  O3  UNL     1      66.687   4.827   8.535  1.00  0.00    -0.238 OA
ATOM     33  H4  UNL     1      67.416   2.341  10.507  1.00  0.00     0.165 HD
BRANCH  31  34
HETATM   34  O4  UNL     1      66.522   2.647   8.009  1.00  0.00    -0.294 OA
BRANCH  34  35
HETATM   35  C19 UNL     1      65.215   2.206   7.719  1.00  0.00     0.061 C 
HETATM   36  C20 UNL     1      64.263   2.359   8.852  1.00  0.00     0.046 C 
HETATM   37  C21 UNL     1      64.738   2.924   6.483  1.00  0.00     0.046 C 
HETATM   38  C22 UNL     1      65.329   0.729   7.375  1.00  0.00     0.046 C 
ENDBRANCH  34  35
ENDBRANCH  31  34
ENDBRANCH  28  30
ENDBRANCH  10  28
TORSDOF 7
ENDMDL
