MODEL 1
REMARK VINA RESULT: -9.602053876      0.000      0.000
REMARK  6 active torsions:
REMARK  status: ('A' for Active; 'I' for Inactive)
REMARK    1  A    between atoms: C2_2  and  N1_3 
REMARK    2  A    between atoms: C5_6  and  C6_7 
REMARK    3  A    between atoms: C14_15  and  C15_16 
REMARK       I    between atoms: C15_16  and  N2_18 
REMARK    4  A    between atoms: N2_18  and  C16_20 
REMARK    5  A    between atoms: C25_32  and  C26_33 
REMARK    6  A    between atoms: C26_33  and  O2_34 
ROOT
HETATM    1  C6  UNL     1      63.026   4.740  13.561  1.00  0.00     0.013 C 
HETATM    2  C7  UNL     1      62.563   4.482  14.937  1.00  0.00     0.009 C 
HETATM    3  C8  UNL     1      61.104   4.706  15.159  1.00  0.00     0.007 C 
HETATM    4  C9  UNL     1      60.241   4.846  13.901  1.00  0.00     0.007 C 
HETATM    5  C10 UNL     1      59.580   3.525  13.780  1.00  0.00    -0.035 C 
HETATM    6  C11 UNL     1      58.361   3.609  14.762  1.00  0.00     0.016 C 
HETATM    7  C12 UNL     1      60.239   2.285  14.221  1.00  0.00     0.011 C 
HETATM    8  C13 UNL     1      60.561   1.443  12.962  1.00  0.00     0.015 C 
HETATM    9  C14 UNL     1      59.570   1.886  11.958  1.00  0.00     0.083 C 
HETATM   10  C21 UNL     1      58.966   3.131  12.479  1.00  0.00     0.007 C 
HETATM   11  C22 UNL     1      59.234   4.264  11.496  1.00  0.00     0.007 C 
HETATM   12  C23 UNL     1      60.725   4.603  11.569  1.00  0.00     0.015 C 
HETATM   13  C24 UNL     1      60.840   5.544  12.753  1.00  0.00    -0.006 C 
HETATM   14  C25 UNL     1      60.307   6.811  12.204  1.00  0.00    -0.051 C 
HETATM   15  C27 UNL     1      60.518   7.950  12.897  1.00  0.00    -0.021 C 
HETATM   16  C28 UNL     1      61.279   7.983  14.193  1.00  0.00     0.028 C 
HETATM   17  C29 UNL     1      62.469   7.060  13.991  1.00  0.00     0.010 C 
HETATM   18  C30 UNL     1      62.273   5.952  13.057  1.00  0.00     0.007 C 
ENDROOT
BRANCH   9  19
HETATM   19  C15 UNL     1      58.539   0.792  11.815  1.00  0.00     0.227 C 
HETATM   20  O1  UNL     1      57.879   0.440  12.792  1.00  0.00    -0.273 OA
HETATM   21  N2  UNL     1      58.340   0.175  10.526  1.00  0.00    -0.310 N 
ATOM     22  H2  UNL     1      58.899   0.471   9.726  1.00  0.00     0.170 HD
BRANCH  21  23
HETATM   23  C16 UNL     1      57.367  -0.842  10.377  1.00  0.00     0.147 A 
HETATM   24  N3  UNL     1      56.130  -0.670  10.901  1.00  0.00    -0.350 N 
HETATM   25  C17 UNL     1      55.166  -1.590  10.794  1.00  0.00     0.090 A 
ATOM     26  H3  UNL     1      55.926   0.197  11.397  1.00  0.00     0.166 HD
HETATM   27  C18 UNL     1      55.380  -2.789  10.131  1.00  0.00     0.020 A 
HETATM   28  C19 UNL     1      56.655  -2.976   9.584  1.00  0.00     0.047 A 
HETATM   29  C20 UNL     1      57.634  -2.014   9.708  1.00  0.00     0.160 A 
HETATM   30  F1  UNL     1      58.852  -2.210   9.179  1.00  0.00    -0.202 F 
ENDBRANCH  21  23
ENDBRANCH   9  19
BRANCH  14  31
HETATM   31  C26 UNL     1      59.673   7.020  10.882  1.00  0.00     0.199 C 
BRANCH  31  32
HETATM   32  O2  UNL     1      59.121   8.357  10.792  1.00  0.00    -0.397 OA
ATOM     33  H2  UNL     1      58.920   8.572   9.889  1.00  0.00     0.209 HD
ENDBRANCH  31  32
ENDBRANCH  14  31
BRANCH   1  34
HETATM   34  C5  UNL     1      64.492   4.950  13.422  1.00  0.00    -0.015 C 
HETATM   35  C4  UNL     1      65.187   5.211  12.357  1.00  0.00    -0.027 C 
HETATM   36  C3  UNL     1      65.115   5.443  10.897  1.00  0.00     0.308 C 
HETATM   37  C31 UNL     1      66.672   5.458  12.177  1.00  0.00     0.308 C 
HETATM   38  N1  UNL     1      66.559   5.539  10.761  1.00  0.00     0.095 N 
BRANCH  38  39
HETATM   39  C2  UNL     1      67.014   6.773  10.162  1.00  0.00     0.268 C 
HETATM   40  C1  UNL     1      67.991   6.398   9.053  1.00  0.00     0.037 C 
ENDBRANCH  38  39
ENDBRANCH   1  34
TORSDOF 6
ENDMDL
MODEL 2
REMARK VINA RESULT: -9.284003059      3.905      9.148
REMARK  6 active torsions:
REMARK  status: ('A' for Active; 'I' for Inactive)
REMARK    1  A    between atoms: C2_2  and  N1_3 
REMARK    2  A    between atoms: C5_6  and  C6_7 
REMARK    3  A    between atoms: C14_15  and  C15_16 
REMARK       I    between atoms: C15_16  and  N2_18 
REMARK    4  A    between atoms: N2_18  and  C16_20 
REMARK    5  A    between atoms: C25_32  and  C26_33 
REMARK    6  A    between atoms: C26_33  and  O2_34 
ROOT
HETATM    1  C6  UNL     1      61.585   3.103  12.273  1.00  0.00     0.013 C 
HETATM    2  C7  UNL     1      62.225   3.274  10.956  1.00  0.00     0.009 C 
HETATM    3  C8  UNL     1      62.984   4.549  10.790  1.00  0.00     0.007 C 
HETATM    4  C9  UNL     1      63.272   5.337  12.072  1.00  0.00     0.007 C 
HETATM    5  C10 UNL     1      64.695   5.032  12.359  1.00  0.00    -0.035 C 
HETATM    6  C11 UNL     1      65.497   6.015  11.440  1.00  0.00     0.016 C 
HETATM    7  C12 UNL     1      65.294   3.734  12.011  1.00  0.00     0.011 C 
HETATM    8  C13 UNL     1      65.606   2.984  13.329  1.00  0.00     0.015 C 
HETATM    9  C14 UNL     1      65.768   4.057  14.335  1.00  0.00     0.083 C 
HETATM   10  C21 UNL     1      65.237   5.294  13.724  1.00  0.00     0.007 C 
HETATM   11  C22 UNL     1      64.083   5.813  14.573  1.00  0.00     0.007 C 
HETATM   12  C23 UNL     1      62.901   4.858  14.388  1.00  0.00     0.015 C 
HETATM   13  C24 UNL     1      62.231   5.330  13.111  1.00  0.00    -0.006 C 
HETATM   14  C25 UNL     1      61.520   6.549  13.558  1.00  0.00    -0.051 C 
HETATM   15  C27 UNL     1      60.583   7.079  12.744  1.00  0.00    -0.021 C 
HETATM   16  C28 UNL     1      60.228   6.478  11.412  1.00  0.00     0.028 C 
HETATM   17  C29 UNL     1      60.180   4.976  11.643  1.00  0.00     0.010 C 
HETATM   18  C30 UNL     1      61.057   4.458  12.693  1.00  0.00     0.007 C 
ENDROOT
BRANCH   9  19
HETATM   19  C15 UNL     1      67.241   4.183  14.641  1.00  0.00     0.227 C 
HETATM   20  O1  UNL     1      67.672   5.205  15.172  1.00  0.00    -0.273 OA
HETATM   21  N2  UNL     1      68.126   3.094  14.305  1.00  0.00    -0.310 N 
ATOM     22  H2  UNL     1      67.758   2.255  13.858  1.00  0.00     0.170 HD
BRANCH  21  23
HETATM   23  C16 UNL     1      69.507   3.195  14.599  1.00  0.00     0.147 A 
HETATM   24  N3  UNL     1      70.182   4.322  14.270  1.00  0.00    -0.350 N 
HETATM   25  C17 UNL     1      71.487   4.482  14.521  1.00  0.00     0.090 A 
ATOM     26  H3  UNL     1      69.676   5.079  13.813  1.00  0.00     0.166 HD
HETATM   27  C18 UNL     1      72.231   3.490  15.140  1.00  0.00     0.020 A 
HETATM   28  C19 UNL     1      71.541   2.322  15.486  1.00  0.00     0.047 A 
HETATM   29  C20 UNL     1      70.198   2.178  15.217  1.00  0.00     0.160 A 
HETATM   30  F1  UNL     1      69.552   1.051  15.552  1.00  0.00    -0.202 F 
ENDBRANCH  21  23
ENDBRANCH   9  19
BRANCH  14  31
HETATM   31  C26 UNL     1      61.605   7.202  14.883  1.00  0.00     0.199 C 
BRANCH  31  32
HETATM   32  O2  UNL     1      60.280   7.523  15.374  1.00  0.00    -0.397 OA
ATOM     33  H2  UNL     1      59.781   6.729  15.524  1.00  0.00     0.209 HD
ENDBRANCH  31  32
ENDBRANCH  14  31
BRANCH   1  34
HETATM   34  C5  UNL     1      60.494   2.092  12.313  1.00  0.00    -0.015 C 
HETATM   35  C4  UNL     1      59.992   1.388  11.345  1.00  0.00    -0.027 C 
HETATM   36  C3  UNL     1      60.069   1.104   9.893  1.00  0.00     0.308 C 
HETATM   37  C31 UNL     1      58.903   0.332  11.346  1.00  0.00     0.308 C 
HETATM   38  N1  UNL     1      58.931   0.199   9.930  1.00  0.00     0.095 N 
BRANCH  38  39
HETATM   39  C2  UNL     1      59.216  -1.125   9.427  1.00  0.00     0.268 C 
HETATM   40  C1  UNL     1      57.875  -1.824   9.225  1.00  0.00     0.037 C 
ENDBRANCH  38  39
ENDBRANCH   1  34
TORSDOF 6
ENDMDL
MODEL 3
REMARK VINA RESULT: -9.115240122      1.818      2.229
REMARK  6 active torsions:
REMARK  status: ('A' for Active; 'I' for Inactive)
REMARK    1  A    between atoms: C2_2  and  N1_3 
REMARK    2  A    between atoms: C5_6  and  C6_7 
REMARK    3  A    between atoms: C14_15  and  C15_16 
REMARK       I    between atoms: C15_16  and  N2_18 
REMARK    4  A    between atoms: N2_18  and  C16_20 
REMARK    5  A    between atoms: C25_32  and  C26_33 
REMARK    6  A    between atoms: C26_33  and  O2_34 
ROOT
HETATM    1  C6  UNL     1      63.654   5.314  13.129  1.00  0.00     0.013 C 
HETATM    2  C7  UNL     1      63.371   4.683  14.431  1.00  0.00     0.009 C 
HETATM    3  C8  UNL     1      61.920   4.543  14.755  1.00  0.00     0.007 C 
HETATM    4  C9  UNL     1      60.943   4.757  13.595  1.00  0.00     0.007 C 
HETATM    5  C10 UNL     1      60.547   3.381  13.210  1.00  0.00    -0.035 C 
HETATM    6  C11 UNL     1      59.424   2.999  14.234  1.00  0.00     0.016 C 
HETATM    7  C12 UNL     1      61.473   2.245  13.338  1.00  0.00     0.011 C 
HETATM    8  C13 UNL     1      61.847   1.771  11.913  1.00  0.00     0.015 C 
HETATM    9  C14 UNL     1      60.706   2.194  11.072  1.00  0.00     0.083 C 
HETATM   10  C21 UNL     1      59.915   3.147  11.880  1.00  0.00     0.007 C 
HETATM   11  C22 UNL     1      59.869   4.491  11.163  1.00  0.00     0.007 C 
HETATM   12  C23 UNL     1      61.265   5.114  11.250  1.00  0.00     0.015 C 
HETATM   13  C24 UNL     1      61.292   5.790  12.608  1.00  0.00    -0.006 C 
HETATM   14  C25 UNL     1      60.475   7.002  12.375  1.00  0.00    -0.051 C 
HETATM   15  C27 UNL     1      60.516   7.989  13.294  1.00  0.00    -0.021 C 
HETATM   16  C28 UNL     1      61.363   7.911  14.534  1.00  0.00     0.028 C 
HETATM   17  C29 UNL     1      62.690   7.323  14.085  1.00  0.00     0.010 C 
HETATM   18  C30 UNL     1      62.637   6.418  12.936  1.00  0.00     0.007 C 
ENDROOT
BRANCH   9  19
HETATM   19  C15 UNL     1      59.902   0.963  10.731  1.00  0.00     0.227 C 
HETATM   20  O1  UNL     1      60.323   0.169   9.891  1.00  0.00    -0.273 OA
HETATM   21  N2  UNL     1      58.646   0.733  11.403  1.00  0.00    -0.310 N 
ATOM     22  H2  UNL     1      58.304   1.403  12.092  1.00  0.00     0.170 HD
BRANCH  21  23
HETATM   23  C16 UNL     1      57.890  -0.425  11.102  1.00  0.00     0.147 A 
HETATM   24  N3  UNL     1      57.763  -0.828   9.815  1.00  0.00    -0.350 N 
HETATM   25  C17 UNL     1      57.064  -1.913   9.463  1.00  0.00     0.090 A 
ATOM     26  H3  UNL     1      58.218  -0.282   9.084  1.00  0.00     0.166 HD
HETATM   27  C18 UNL     1      56.423  -2.698  10.409  1.00  0.00     0.020 A 
HETATM   28  C19 UNL     1      56.549  -2.291  11.742  1.00  0.00     0.047 A 
HETATM   29  C20 UNL     1      57.273  -1.169  12.081  1.00  0.00     0.160 A 
HETATM   30  F1  UNL     1      57.383  -0.791  13.364  1.00  0.00    -0.202 F 
ENDBRANCH  21  23
ENDBRANCH   9  19
BRANCH  14  31
HETATM   31  C26 UNL     1      59.703   7.344  11.159  1.00  0.00     0.199 C 
BRANCH  31  32
HETATM   32  O2  UNL     1      59.419   8.764  11.123  1.00  0.00    -0.397 OA
ATOM     33  H2  UNL     1      59.833   9.166  10.368  1.00  0.00     0.209 HD
ENDBRANCH  31  32
ENDBRANCH  14  31
BRANCH   1  34
HETATM   34  C5  UNL     1      65.034   5.854  12.982  1.00  0.00    -0.015 C 
HETATM   35  C4  UNL     1      66.148   5.399  13.466  1.00  0.00    -0.027 C 
HETATM   36  C3  UNL     1      66.761   4.326  14.283  1.00  0.00     0.308 C 
HETATM   37  C31 UNL     1      67.572   5.900  13.318  1.00  0.00     0.308 C 
HETATM   38  N1  UNL     1      68.084   4.924  14.219  1.00  0.00     0.095 N 
BRANCH  38  39
HETATM   39  C2  UNL     1      69.102   4.048  13.686  1.00  0.00     0.268 C 
HETATM   40  C1  UNL     1      70.253   4.039  14.687  1.00  0.00     0.037 C 
ENDBRANCH  38  39
ENDBRANCH   1  34
TORSDOF 6
ENDMDL
MODEL 4
REMARK VINA RESULT: -9.090521049      3.951      8.748
REMARK  6 active torsions:
REMARK  status: ('A' for Active; 'I' for Inactive)
REMARK    1  A    between atoms: C2_2  and  N1_3 
REMARK    2  A    between atoms: C5_6  and  C6_7 
REMARK    3  A    between atoms: C14_15  and  C15_16 
REMARK       I    between atoms: C15_16  and  N2_18 
REMARK    4  A    between atoms: N2_18  and  C16_20 
REMARK    5  A    between atoms: C25_32  and  C26_33 
REMARK    6  A    between atoms: C26_33  and  O2_34 
ROOT
HETATM    1  C6  UNL     1      61.057   3.672  12.825  1.00  0.00     0.013 C 
HETATM    2  C7  UNL     1      61.243   3.852  11.374  1.00  0.00     0.009 C 
HETATM    3  C8  UNL     1      62.282   4.856  10.996  1.00  0.00     0.007 C 
HETATM    4  C9  UNL     1      63.223   5.311  12.116  1.00  0.00     0.007 C 
HETATM    5  C10 UNL     1      64.473   4.557  11.851  1.00  0.00    -0.035 C 
HETATM    6  C11 UNL     1      65.203   5.392  10.745  1.00  0.00     0.016 C 
HETATM    7  C12 UNL     1      64.454   3.212  11.254  1.00  0.00     0.011 C 
HETATM    8  C13 UNL     1      64.918   2.205  12.334  1.00  0.00     0.015 C 
HETATM    9  C14 UNL     1      65.751   3.008  13.256  1.00  0.00     0.083 C 
HETATM   10  C21 UNL     1      65.491   4.428  12.934  1.00  0.00     0.007 C 
HETATM   11  C22 UNL     1      64.925   5.123  14.166  1.00  0.00     0.007 C 
HETATM   12  C23 UNL     1      63.503   4.602  14.385  1.00  0.00     0.015 C 
HETATM   13  C24 UNL     1      62.646   5.447  13.462  1.00  0.00    -0.006 C 
HETATM   14  C25 UNL     1      62.571   6.734  14.188  1.00  0.00    -0.051 C 
HETATM   15  C27 UNL     1      61.650   7.639  13.795  1.00  0.00    -0.021 C 
HETATM   16  C28 UNL     1      60.696   7.389  12.660  1.00  0.00     0.028 C 
HETATM   17  C29 UNL     1      60.231   5.952  12.830  1.00  0.00     0.010 C 
HETATM   18  C30 UNL     1      61.181   5.038  13.464  1.00  0.00     0.007 C 
ENDROOT
BRANCH   9  19
HETATM   19  C15 UNL     1      67.194   2.644  13.008  1.00  0.00     0.227 C 
HETATM   20  O1  UNL     1      67.823   3.205  12.112  1.00  0.00    -0.273 OA
HETATM   21  N2  UNL     1      67.818   1.638  13.833  1.00  0.00    -0.310 N 
ATOM     22  H2  UNL     1      67.283   1.174  14.567  1.00  0.00     0.170 HD
BRANCH  21  23
HETATM   23  C16 UNL     1      69.176   1.296  13.619  1.00  0.00     0.147 A 
HETATM   24  N3  UNL     1      70.131   2.251  13.719  1.00  0.00    -0.350 N 
HETATM   25  C17 UNL     1      71.431   1.995  13.531  1.00  0.00     0.090 A 
ATOM     26  H3  UNL     1      69.849   3.203  13.948  1.00  0.00     0.166 HD
HETATM   27  C18 UNL     1      71.878   0.720  13.219  1.00  0.00     0.020 A 
HETATM   28  C19 UNL     1      70.898  -0.273  13.115  1.00  0.00     0.047 A 
HETATM   29  C20 UNL     1      69.565   0.014  13.312  1.00  0.00     0.160 A 
HETATM   30  F1  UNL     1      68.638  -0.951  13.206  1.00  0.00    -0.202 F 
ENDBRANCH  21  23
ENDBRANCH   9  19
BRANCH  14  31
HETATM   31  C26 UNL     1      63.303   7.115  15.417  1.00  0.00     0.199 C 
BRANCH  31  32
HETATM   32  O2  UNL     1      62.485   7.977  16.246  1.00  0.00    -0.397 OA
ATOM     33  H2  UNL     1      62.938   8.189  17.053  1.00  0.00     0.209 HD
ENDBRANCH  31  32
ENDBRANCH  14  31
BRANCH   1  34
HETATM   34  C5  UNL     1      59.770   3.035  13.217  1.00  0.00    -0.015 C 
HETATM   35  C4  UNL     1      59.085   2.122  12.600  1.00  0.00    -0.027 C 
HETATM   36  C3  UNL     1      59.039   1.251  11.404  1.00  0.00     0.308 C 
HETATM   37  C31 UNL     1      57.790   1.429  12.977  1.00  0.00     0.308 C 
HETATM   38  N1  UNL     1      57.731   0.716  11.747  1.00  0.00     0.095 N 
BRANCH  38  39
HETATM   39  C2  UNL     1      57.692  -0.724  11.855  1.00  0.00     0.268 C 
HETATM   40  C1  UNL     1      56.624  -1.217  10.884  1.00  0.00     0.037 C 
ENDBRANCH  38  39
ENDBRANCH   1  34
TORSDOF 6
ENDMDL
MODEL 5
REMARK VINA RESULT: -8.758606422      6.708     10.024
REMARK  6 active torsions:
REMARK  status: ('A' for Active; 'I' for Inactive)
REMARK    1  A    between atoms: C2_2  and  N1_3 
REMARK    2  A    between atoms: C5_6  and  C6_7 
REMARK    3  A    between atoms: C14_15  and  C15_16 
REMARK       I    between atoms: C15_16  and  N2_18 
REMARK    4  A    between atoms: N2_18  and  C16_20 
REMARK    5  A    between atoms: C25_32  and  C26_33 
REMARK    6  A    between atoms: C26_33  and  O2_34 
ROOT
HETATM    1  C6  UNL     1      62.801   1.217   9.807  1.00  0.00     0.013 C 
HETATM    2  C7  UNL     1      63.034   1.583   8.398  1.00  0.00     0.009 C 
HETATM    3  C8  UNL     1      64.428   2.021   8.088  1.00  0.00     0.007 C 
HETATM    4  C9  UNL     1      65.484   1.725   9.157  1.00  0.00     0.007 C 
HETATM    5  C10 UNL     1      66.198   0.538   8.626  1.00  0.00    -0.035 C 
HETATM    6  C11 UNL     1      67.232   1.131   7.608  1.00  0.00     0.016 C 
HETATM    7  C12 UNL     1      65.514  -0.476   7.809  1.00  0.00     0.011 C 
HETATM    8  C13 UNL     1      65.435  -1.781   8.637  1.00  0.00     0.015 C 
HETATM    9  C14 UNL     1      66.566  -1.687   9.585  1.00  0.00     0.083 C 
HETATM   10  C21 UNL     1      67.034  -0.285   9.548  1.00  0.00     0.007 C 
HETATM   11  C22 UNL     1      66.898   0.323  10.939  1.00  0.00     0.007 C 
HETATM   12  C23 UNL     1      65.406   0.515  11.221  1.00  0.00     0.015 C 
HETATM   13  C24 UNL     1      65.064   1.838  10.562  1.00  0.00    -0.006 C 
HETATM   14  C25 UNL     1      65.641   2.820  11.507  1.00  0.00    -0.051 C 
HETATM   15  C27 UNL     1      65.280   4.115  11.384  1.00  0.00    -0.021 C 
HETATM   16  C28 UNL     1      64.312   4.594  10.338  1.00  0.00     0.028 C 
HETATM   17  C29 UNL     1      63.203   3.556  10.304  1.00  0.00     0.010 C 
HETATM   18  C30 UNL     1      63.588   2.190  10.658  1.00  0.00     0.007 C 
ENDROOT
BRANCH   9  19
HETATM   19  C15 UNL     1      67.640  -2.638   9.117  1.00  0.00     0.227 C 
HETATM   20  O1  UNL     1      67.424  -3.849   9.102  1.00  0.00    -0.273 OA
HETATM   21  N2  UNL     1      68.913  -2.108   8.689  1.00  0.00    -0.310 N 
ATOM     22  H2  UNL     1      69.082  -1.103   8.714  1.00  0.00     0.170 HD
BRANCH  21  23
HETATM   23  C16 UNL     1      69.924  -2.989   8.235  1.00  0.00     0.147 A 
HETATM   24  N3  UNL     1      69.849  -3.511   6.988  1.00  0.00    -0.350 N 
HETATM   25  C17 UNL     1      70.771  -4.347   6.498  1.00  0.00     0.090 A 
ATOM     26  H3  UNL     1      69.057  -3.256   6.398  1.00  0.00     0.166 HD
HETATM   27  C18 UNL     1      71.871  -4.731   7.249  1.00  0.00     0.020 A 
HETATM   28  C19 UNL     1      71.958  -4.195   8.539  1.00  0.00     0.047 A 
HETATM   29  C20 UNL     1      70.996  -3.337   9.024  1.00  0.00     0.160 A 
HETATM   30  F1  UNL     1      71.093  -2.833  10.264  1.00  0.00    -0.202 F 
ENDBRANCH  21  23
ENDBRANCH   9  19
BRANCH  14  31
HETATM   31  C26 UNL     1      66.480   2.540  12.694  1.00  0.00     0.199 C 
BRANCH  31  32
HETATM   32  O2  UNL     1      66.382   3.623  13.650  1.00  0.00    -0.397 OA
ATOM     33  H2  UNL     1      65.924   3.336  14.431  1.00  0.00     0.209 HD
ENDBRANCH  31  32
ENDBRANCH  14  31
BRANCH   1  34
HETATM   34  C5  UNL     1      61.372   1.209  10.224  1.00  0.00    -0.015 C 
HETATM   35  C4  UNL     1      60.404   0.445   9.819  1.00  0.00    -0.027 C 
HETATM   36  C3  UNL     1      60.046  -0.674   8.918  1.00  0.00     0.308 C 
HETATM   37  C31 UNL     1      58.947   0.385  10.236  1.00  0.00     0.308 C 
HETATM   38  N1  UNL     1      58.634  -0.599   9.256  1.00  0.00     0.095 N 
BRANCH  38  39
HETATM   39  C2  UNL     1      58.082  -1.835   9.759  1.00  0.00     0.268 C 
HETATM   40  C1  UNL     1      56.625  -1.890   9.311  1.00  0.00     0.037 C 
ENDBRANCH  38  39
ENDBRANCH   1  34
TORSDOF 6
ENDMDL
