MODEL 1
REMARK VINA RESULT: -11.065750166      0.000      0.000
REMARK  6 active torsions:
REMARK  status: ('A' for Active; 'I' for Inactive)
REMARK    1  A    between atoms: C2_2  and  C3_4 
REMARK    2  A    between atoms: C3_4  and  O1_5 
REMARK    3  A    between atoms: C3_4  and  C4_7 
REMARK    4  A    between atoms: C4_7  and  C5_8 
REMARK    5  A    between atoms: C5_8  and  C6_9 
REMARK    6  A    between atoms: C11_14  and  O2_15 
ROOT
HETATM    1  C6  UNL     1      58.060   0.065  10.304  1.00  0.00    -0.080 C 
HETATM    2  C7  UNL     1      56.766   0.239  10.992  1.00  0.00     0.043 C 
HETATM    3  C8  UNL     1      59.322   0.134  10.959  1.00  0.00    -0.066 C 
HETATM    4  C9  UNL     1      60.537   0.421  10.136  1.00  0.00     0.041 C 
HETATM    5  C10 UNL     1      60.637   0.054   8.730  1.00  0.00     0.017 C 
HETATM    6  C11 UNL     1      60.641   1.943  10.314  1.00  0.00     0.135 C 
HETATM    7  C12 UNL     1      60.552   2.056  11.813  1.00  0.00    -0.005 C 
HETATM    8  C13 UNL     1      61.947   1.893  12.341  1.00  0.00     0.019 C 
HETATM    9  C14 UNL     1      59.933   3.390  12.166  1.00  0.00     0.008 C 
HETATM   10  C15 UNL     1      60.645   4.559  11.615  1.00  0.00     0.007 C 
HETATM   11  C16 UNL     1      61.747   5.131  12.449  1.00  0.00     0.010 C 
HETATM   12  C17 UNL     1      61.242   5.450  13.839  1.00  0.00    -0.039 C 
HETATM   13  C18 UNL     1      60.350   6.691  13.686  1.00  0.00     0.015 C 
HETATM   14  C19 UNL     1      62.382   5.829  14.725  1.00  0.00     0.017 C 
HETATM   15  C20 UNL     1      62.123   5.672  16.181  1.00  0.00     0.079 C 
HETATM   16  C21 UNL     1      60.704   5.510  16.542  1.00  0.00     0.127 C 
HETATM   17  O3  UNL     1      60.338   5.846  17.638  1.00  0.00    -0.298 OA
HETATM   18  C22 UNL     1      59.679   4.944  15.614  1.00  0.00     0.084 C 
HETATM   19  C23 UNL     1      60.501   4.318  14.468  1.00  0.00     0.012 C 
HETATM   20  C24 UNL     1      59.588   3.581  13.591  1.00  0.00     0.065 C 
HETATM   21  C25 UNL     1      59.315   2.199  14.144  1.00  0.00     0.132 C 
HETATM   22  O4  UNL     1      59.626   1.852  15.245  1.00  0.00    -0.298 OA
HETATM   23  C26 UNL     1      58.603   1.315  13.141  1.00  0.00     0.088 C 
HETATM   24  C27 UNL     1      59.621   0.900  12.168  1.00  0.00     0.033 C 
ENDROOT
BRANCH   1  25
HETATM   25  C5  UNL     1      57.854  -1.036   9.272  1.00  0.00     0.036 C 
BRANCH  25  26
HETATM   26  C4  UNL     1      57.405  -2.316   9.913  1.00  0.00     0.037 C 
BRANCH  26  27
HETATM   27  C3  UNL     1      56.108  -2.868   9.500  1.00  0.00     0.132 C 
BRANCH  27  28
HETATM   28  C2  UNL     1      54.913  -2.674  10.364  1.00  0.00     0.082 C 
HETATM   29  C1  UNL     1      53.800  -3.618  10.069  1.00  0.00     0.024 C 
HETATM   30 BR1  UNL     1      55.394  -2.696  12.220  1.00  0.00    -0.089 Br
ENDBRANCH  27  28
BRANCH  27  31
HETATM   31  O1  UNL     1      55.802  -2.575   8.156  1.00  0.00    -0.394 OA
ATOM     32  H1  UNL     1      56.596  -2.414   7.660  1.00  0.00     0.210 HD
ENDBRANCH  27  31
ENDBRANCH  26  27
ENDBRANCH  25  26
ENDBRANCH   1  25
BRANCH   6  33
HETATM   33  O2  UNL     1      61.911   2.267   9.821  1.00  0.00    -0.394 OA
ATOM     34  H2  UNL     1      61.926   3.216   9.807  1.00  0.00     0.210 HD
ENDBRANCH   6  33
TORSDOF 6
ENDMDL
MODEL 2
REMARK VINA RESULT: -9.172090409      2.920      4.857
REMARK  6 active torsions:
REMARK  status: ('A' for Active; 'I' for Inactive)
REMARK    1  A    between atoms: C2_2  and  C3_4 
REMARK    2  A    between atoms: C3_4  and  O1_5 
REMARK    3  A    between atoms: C3_4  and  C4_7 
REMARK    4  A    between atoms: C4_7  and  C5_8 
REMARK    5  A    between atoms: C5_8  and  C6_9 
REMARK    6  A    between atoms: C11_14  and  O2_15 
ROOT
HETATM    1  C6  UNL     1      60.233   1.480  11.053  1.00  0.00    -0.080 C 
HETATM    2  C7  UNL     1      61.181   0.679  10.256  1.00  0.00     0.043 C 
HETATM    3  C8  UNL     1      60.283   2.900  11.155  1.00  0.00    -0.066 C 
HETATM    4  C9  UNL     1      59.616   3.554  12.321  1.00  0.00     0.041 C 
HETATM    5  C10 UNL     1      58.467   2.968  12.999  1.00  0.00     0.017 C 
HETATM    6  C11 UNL     1      60.806   3.692  13.282  1.00  0.00     0.135 C 
HETATM    7  C12 UNL     1      61.821   4.339  12.377  1.00  0.00    -0.005 C 
HETATM    8  C13 UNL     1      61.582   5.819  12.450  1.00  0.00     0.019 C 
HETATM    9  C14 UNL     1      63.207   3.936  12.830  1.00  0.00     0.008 C 
HETATM   10  C15 UNL     1      63.508   4.262  14.238  1.00  0.00     0.007 C 
HETATM   11  C16 UNL     1      64.085   5.615  14.507  1.00  0.00     0.010 C 
HETATM   12  C17 UNL     1      65.315   5.840  13.657  1.00  0.00    -0.039 C 
HETATM   13  C18 UNL     1      66.413   4.955  14.266  1.00  0.00     0.015 C 
HETATM   14  C19 UNL     1      65.770   7.257  13.777  1.00  0.00     0.017 C 
HETATM   15  C20 UNL     1      66.614   7.742  12.653  1.00  0.00     0.079 C 
HETATM   16  C21 UNL     1      67.159   6.682  11.787  1.00  0.00     0.127 C 
HETATM   17  O3  UNL     1      68.180   6.886  11.186  1.00  0.00    -0.298 OA
HETATM   18  C22 UNL     1      66.506   5.350  11.609  1.00  0.00     0.084 C 
HETATM   19  C23 UNL     1      65.098   5.527  12.215  1.00  0.00     0.012 C 
HETATM   20  C24 UNL     1      64.314   4.323  11.930  1.00  0.00     0.065 C 
HETATM   21  C25 UNL     1      63.721   4.387  10.539  1.00  0.00     0.132 C 
HETATM   22  O4  UNL     1      64.032   5.203   9.722  1.00  0.00    -0.298 OA
HETATM   23  C26 UNL     1      62.690   3.301  10.309  1.00  0.00     0.088 C 
HETATM   24  C27 UNL     1      61.480   3.728  11.020  1.00  0.00     0.033 C 
ENDROOT
BRANCH   1  25
HETATM   25  C5  UNL     1      58.868   0.826  10.882  1.00  0.00     0.036 C 
BRANCH  25  26
HETATM   26  C4  UNL     1      58.930  -0.341   9.943  1.00  0.00     0.037 C 
BRANCH  26  27
HETATM   27  C3  UNL     1      57.911  -1.389  10.089  1.00  0.00     0.132 C 
BRANCH  27  28
HETATM   28  C2  UNL     1      56.700  -1.133  10.913  1.00  0.00     0.082 C 
HETATM   29  C1  UNL     1      55.422  -1.285  10.164  1.00  0.00     0.024 C 
HETATM   30 BR1  UNL     1      56.719  -2.189  12.514  1.00  0.00    -0.089 Br
ENDBRANCH  27  28
BRANCH  27  31
HETATM   31  O1  UNL     1      57.559  -1.972   8.856  1.00  0.00    -0.394 OA
ATOM     32  H1  UNL     1      57.759  -1.384   8.138  1.00  0.00     0.210 HD
ENDBRANCH  27  31
ENDBRANCH  26  27
ENDBRANCH  25  26
ENDBRANCH   1  25
BRANCH   6  33
HETATM   33  O2  UNL     1      60.348   4.555  14.285  1.00  0.00    -0.394 OA
ATOM     34  H2  UNL     1      59.835   5.207  13.821  1.00  0.00     0.210 HD
ENDBRANCH   6  33
TORSDOF 6
ENDMDL
MODEL 3
REMARK VINA RESULT: -9.113180688      3.177      8.660
REMARK  6 active torsions:
REMARK  status: ('A' for Active; 'I' for Inactive)
REMARK    1  A    between atoms: C2_2  and  C3_4 
REMARK    2  A    between atoms: C3_4  and  O1_5 
REMARK    3  A    between atoms: C3_4  and  C4_7 
REMARK    4  A    between atoms: C4_7  and  C5_8 
REMARK    5  A    between atoms: C5_8  and  C6_9 
REMARK    6  A    between atoms: C11_14  and  O2_15 
ROOT
HETATM    1  C6  UNL     1      60.883   5.862  13.994  1.00  0.00    -0.080 C 
HETATM    2  C7  UNL     1      60.984   6.499  12.667  1.00  0.00     0.043 C 
HETATM    3  C8  UNL     1      61.163   4.488  14.238  1.00  0.00    -0.066 C 
HETATM    4  C9  UNL     1      60.587   3.850  15.460  1.00  0.00     0.041 C 
HETATM    5  C10 UNL     1      60.291   4.601  16.673  1.00  0.00     0.017 C 
HETATM    6  C11 UNL     1      59.310   3.229  14.875  1.00  0.00     0.135 C 
HETATM    7  C12 UNL     1      59.875   2.495  13.688  1.00  0.00    -0.005 C 
HETATM    8  C13 UNL     1      60.311   1.147  14.183  1.00  0.00     0.019 C 
HETATM    9  C14 UNL     1      58.816   2.421  12.610  1.00  0.00     0.008 C 
HETATM   10  C15 UNL     1      57.553   1.788  13.038  1.00  0.00     0.007 C 
HETATM   11  C16 UNL     1      57.458   0.303  12.885  1.00  0.00     0.010 C 
HETATM   12  C17 UNL     1      57.774  -0.100  11.462  1.00  0.00    -0.039 C 
HETATM   13  C18 UNL     1      56.562   0.333  10.624  1.00  0.00     0.015 C 
HETATM   14  C19 UNL     1      57.876  -1.585  11.360  1.00  0.00     0.017 C 
HETATM   15  C20 UNL     1      58.657  -2.081  10.196  1.00  0.00     0.079 C 
HETATM   16  C21 UNL     1      58.907  -1.078   9.147  1.00  0.00     0.127 C 
HETATM   17  O3  UNL     1      59.082  -1.446   8.015  1.00  0.00    -0.298 OA
HETATM   18  C22 UNL     1      58.958   0.392   9.411  1.00  0.00     0.084 C 
HETATM   19  C23 UNL     1      59.038   0.504  10.948  1.00  0.00     0.012 C 
HETATM   20  C24 UNL     1      59.269   1.907  11.300  1.00  0.00     0.065 C 
HETATM   21  C25 UNL     1      60.741   2.247  11.203  1.00  0.00     0.132 C 
HETATM   22  O4  UNL     1      61.555   1.531  10.700  1.00  0.00    -0.298 OA
HETATM   23  C26 UNL     1      61.055   3.597  11.816  1.00  0.00     0.088 C 
HETATM   24  C27 UNL     1      61.031   3.400  13.270  1.00  0.00     0.033 C 
ENDROOT
BRANCH   1  25
HETATM   25  C5  UNL     1      61.397   6.883  15.000  1.00  0.00     0.036 C 
BRANCH  25  26
HETATM   26  C4  UNL     1      62.887   7.035  14.919  1.00  0.00     0.037 C 
BRANCH  26  27
HETATM   27  C3  UNL     1      63.710   6.145  15.751  1.00  0.00     0.132 C 
BRANCH  27  28
HETATM   28  C2  UNL     1      64.912   5.491  15.169  1.00  0.00     0.082 C 
HETATM   29  C1  UNL     1      64.674   4.882  13.831  1.00  0.00     0.024 C 
HETATM   30 BR1  UNL     1      66.408   6.691  15.151  1.00  0.00    -0.089 Br
ENDBRANCH  27  28
BRANCH  27  31
HETATM   31  O1  UNL     1      64.009   6.708  17.007  1.00  0.00    -0.394 OA
ATOM     32  H1  UNL     1      64.861   7.128  16.991  1.00  0.00     0.210 HD
ENDBRANCH  27  31
ENDBRANCH  26  27
ENDBRANCH  25  26
ENDBRANCH   1  25
BRANCH   6  33
HETATM   33  O2  UNL     1      58.850   2.365  15.877  1.00  0.00    -0.394 OA
ATOM     34  H2  UNL     1      59.512   2.416  16.557  1.00  0.00     0.210 HD
ENDBRANCH   6  33
TORSDOF 6
ENDMDL
MODEL 4
REMARK VINA RESULT: -9.012593780      3.700      5.919
REMARK  6 active torsions:
REMARK  status: ('A' for Active; 'I' for Inactive)
REMARK    1  A    between atoms: C2_2  and  C3_4 
REMARK    2  A    between atoms: C3_4  and  O1_5 
REMARK    3  A    between atoms: C3_4  and  C4_7 
REMARK    4  A    between atoms: C4_7  and  C5_8 
REMARK    5  A    between atoms: C5_8  and  C6_9 
REMARK    6  A    between atoms: C11_14  and  O2_15 
ROOT
HETATM    1  C6  UNL     1      60.761   2.600  11.914  1.00  0.00    -0.080 C 
HETATM    2  C7  UNL     1      61.507   1.728  10.987  1.00  0.00     0.043 C 
HETATM    3  C8  UNL     1      61.036   3.986  12.093  1.00  0.00    -0.066 C 
HETATM    4  C9  UNL     1      60.575   4.645  13.353  1.00  0.00     0.041 C 
HETATM    5  C10 UNL     1      59.410   4.188  14.097  1.00  0.00     0.017 C 
HETATM    6  C11 UNL     1      61.848   4.538  14.206  1.00  0.00     0.135 C 
HETATM    7  C12 UNL     1      62.872   5.092  13.251  1.00  0.00    -0.005 C 
HETATM    8  C13 UNL     1      62.869   6.581  13.432  1.00  0.00     0.019 C 
HETATM    9  C14 UNL     1      64.212   4.457  13.550  1.00  0.00     0.008 C 
HETATM   10  C15 UNL     1      64.674   4.633  14.940  1.00  0.00     0.007 C 
HETATM   11  C16 UNL     1      65.471   5.864  15.234  1.00  0.00     0.010 C 
HETATM   12  C17 UNL     1      66.648   5.966  14.289  1.00  0.00    -0.039 C 
HETATM   13  C18 UNL     1      67.644   4.887  14.741  1.00  0.00     0.015 C 
HETATM   14  C19 UNL     1      67.322   7.288  14.449  1.00  0.00     0.017 C 
HETATM   15  C20 UNL     1      68.135   7.723  13.283  1.00  0.00     0.079 C 
HETATM   16  C21 UNL     1      68.438   6.659  12.310  1.00  0.00     0.127 C 
HETATM   17  O3  UNL     1      69.426   6.752  11.630  1.00  0.00    -0.298 OA
HETATM   18  C22 UNL     1      67.576   5.454  12.115  1.00  0.00     0.084 C 
HETATM   19  C23 UNL     1      66.267   5.792  12.857  1.00  0.00     0.012 C 
HETATM   20  C24 UNL     1      65.287   4.740  12.576  1.00  0.00     0.065 C 
HETATM   21  C25 UNL     1      64.598   4.991  11.252  1.00  0.00     0.132 C 
HETATM   22  O4  UNL     1      64.963   5.808  10.459  1.00  0.00    -0.298 OA
HETATM   23  C26 UNL     1      63.398   4.088  11.054  1.00  0.00     0.088 C 
HETATM   24  C27 UNL     1      62.330   4.637  11.898  1.00  0.00     0.033 C 
ENDROOT
BRANCH   1  25
HETATM   25  C5  UNL     1      59.303   2.169  11.831  1.00  0.00     0.036 C 
BRANCH  25  26
HETATM   26  C4  UNL     1      59.172   0.675  11.780  1.00  0.00     0.037 C 
BRANCH  26  27
HETATM   27  C3  UNL     1      58.121   0.112  10.922  1.00  0.00     0.132 C 
BRANCH  27  28
HETATM   28  C2  UNL     1      58.428  -1.046  10.040  1.00  0.00     0.082 C 
HETATM   29  C1  UNL     1      57.220  -1.774   9.563  1.00  0.00     0.024 C 
HETATM   30 BR1  UNL     1      59.565  -0.522   8.586  1.00  0.00    -0.089 Br
ENDBRANCH  27  28
BRANCH  27  31
HETATM   31  O1  UNL     1      56.915  -0.101  11.618  1.00  0.00    -0.394 OA
ATOM     32  H1  UNL     1      56.415   0.704  11.674  1.00  0.00     0.210 HD
ENDBRANCH  27  31
ENDBRANCH  26  27
ENDBRANCH  25  26
ENDBRANCH   1  25
BRANCH   6  33
HETATM   33  O2  UNL     1      61.611   5.385  15.296  1.00  0.00    -0.394 OA
ATOM     34  H2  UNL     1      60.827   5.866  15.057  1.00  0.00     0.210 HD
ENDBRANCH   6  33
TORSDOF 6
ENDMDL
MODEL 5
REMARK VINA RESULT: -8.830892966      4.047      5.366
REMARK  6 active torsions:
REMARK  status: ('A' for Active; 'I' for Inactive)
REMARK    1  A    between atoms: C2_2  and  C3_4 
REMARK    2  A    between atoms: C3_4  and  O1_5 
REMARK    3  A    between atoms: C3_4  and  C4_7 
REMARK    4  A    between atoms: C4_7  and  C5_8 
REMARK    5  A    between atoms: C5_8  and  C6_9 
REMARK    6  A    between atoms: C11_14  and  O2_15 
ROOT
HETATM    1  C6  UNL     1      60.607   2.494  11.023  1.00  0.00    -0.080 C 
HETATM    2  C7  UNL     1      59.994   3.573  11.820  1.00  0.00     0.043 C 
HETATM    3  C8  UNL     1      61.944   2.036  11.203  1.00  0.00    -0.066 C 
HETATM    4  C9  UNL     1      62.605   1.311  10.076  1.00  0.00     0.041 C 
HETATM    5  C10 UNL     1      61.858   0.536   9.095  1.00  0.00     0.017 C 
HETATM    6  C11 UNL     1      63.357   2.469   9.402  1.00  0.00     0.135 C 
HETATM    7  C12 UNL     1      64.061   3.073  10.588  1.00  0.00    -0.005 C 
HETATM    8  C13 UNL     1      65.350   2.323  10.751  1.00  0.00     0.019 C 
HETATM    9  C14 UNL     1      64.258   4.552  10.338  1.00  0.00     0.008 C 
HETATM   10  C15 UNL     1      64.997   4.868   9.100  1.00  0.00     0.007 C 
HETATM   11  C16 UNL     1      66.487   4.940   9.205  1.00  0.00     0.010 C 
HETATM   12  C17 UNL     1      66.890   5.903  10.300  1.00  0.00    -0.039 C 
HETATM   13  C18 UNL     1      66.592   7.308   9.755  1.00  0.00     0.015 C 
HETATM   14  C19 UNL     1      68.361   5.823  10.538  1.00  0.00     0.017 C 
HETATM   15  C20 UNL     1      68.808   6.303  11.873  1.00  0.00     0.079 C 
HETATM   16  C21 UNL     1      67.809   7.096  12.610  1.00  0.00     0.127 C 
HETATM   17  O3  UNL     1      68.185   7.901  13.421  1.00  0.00    -0.298 OA
HETATM   18  C22 UNL     1      66.335   6.955  12.406  1.00  0.00     0.084 C 
HETATM   19  C23 UNL     1      66.182   5.656  11.590  1.00  0.00     0.012 C 
HETATM   20  C24 UNL     1      64.756   5.336  11.488  1.00  0.00     0.065 C 
HETATM   21  C25 UNL     1      64.281   4.609  12.728  1.00  0.00     0.132 C 
HETATM   22  O4  UNL     1      64.929   4.511  13.728  1.00  0.00    -0.298 OA
HETATM   23  C26 UNL     1      62.895   4.024  12.549  1.00  0.00     0.088 C 
HETATM   24  C27 UNL     1      63.061   2.828  11.715  1.00  0.00     0.033 C 
ENDROOT
BRANCH   1  25
HETATM   25  C5  UNL     1      59.521   1.449  10.806  1.00  0.00     0.036 C 
BRANCH  25  26
HETATM   26  C4  UNL     1      59.142   0.773  12.090  1.00  0.00     0.037 C 
BRANCH  26  27
HETATM   27  C3  UNL     1      57.761   0.289  12.225  1.00  0.00     0.132 C 
BRANCH  27  28
HETATM   28  C2  UNL     1      57.391  -1.049  11.694  1.00  0.00     0.082 C 
HETATM   29  C1  UNL     1      57.050  -2.041  12.751  1.00  0.00     0.024 C 
HETATM   30 BR1  UNL     1      56.006  -0.908  10.374  1.00  0.00    -0.089 Br
ENDBRANCH  27  28
BRANCH  27  31
HETATM   31  O1  UNL     1      57.256   0.464  13.529  1.00  0.00    -0.394 OA
ATOM     32  H1  UNL     1      57.672  -0.139  14.132  1.00  0.00     0.210 HD
ENDBRANCH  27  31
ENDBRANCH  26  27
ENDBRANCH  25  26
ENDBRANCH   1  25
BRANCH   6  33
HETATM   33  O2  UNL     1      64.238   1.843   8.511  1.00  0.00    -0.394 OA
ATOM     34  H2  UNL     1      64.194   2.372   7.723  1.00  0.00     0.210 HD
ENDBRANCH   6  33
TORSDOF 6
ENDMDL
