MODEL 1
REMARK VINA RESULT: -11.434626850      0.000      0.000
REMARK  7 active torsions:
REMARK  status: ('A' for Active; 'I' for Inactive)
REMARK    1  A    between atoms: O1_2  and  C2_3 
REMARK    2  A    between atoms: C2_3  and  C3_5 
REMARK    3  A    between atoms: C5_7  and  C6_8 
REMARK    4  A    between atoms: C12_14  and  C13_15 
REMARK       I    between atoms: C13_15  and  N1_17 
REMARK    5  A    between atoms: N1_17  and  C14_19 
REMARK    6  A    between atoms: C17_22  and  C18_23 
REMARK       I    between atoms: C18_23  and  N2_25 
REMARK    7  A    between atoms: C21_28  and  C22_29 
ROOT
HETATM    1  C14 UNL     1      60.322   2.291  12.208  1.00  0.00     0.042 A 
HETATM    2  C15 UNL     1      59.183   1.609  12.492  1.00  0.00     0.031 A 
HETATM    3  C16 UNL     1      58.741   0.577  11.703  1.00  0.00     0.021 A 
HETATM    4  C17 UNL     1      59.477   0.232  10.598  1.00  0.00     0.054 A 
HETATM    5  C25 UNL     1      60.633   0.903  10.284  1.00  0.00     0.058 A 
HETATM    6 CL1  UNL     1      61.575   0.450   8.856  1.00  0.00    -0.083 Cl
HETATM    7  C26 UNL     1      61.062   1.932  11.081  1.00  0.00    -0.013 A 
HETATM    8  C27 UNL     1      62.334   2.656  10.719  1.00  0.00     0.052 C 
ENDROOT
BRANCH   1   9
HETATM    9  N1  UNL     1      60.819   3.366  12.996  1.00  0.00    -0.326 N 
HETATM   10  C13 UNL     1      60.115   4.170  13.903  1.00  0.00     0.227 C 
HETATM   11  O3  UNL     1      58.912   4.035  14.141  1.00  0.00    -0.273 OA
ATOM     12  H1  UNL     1      61.810   3.577  12.888  1.00  0.00     0.169 HD
BRANCH  10  13
HETATM   13  C12 UNL     1      60.916   5.243  14.601  1.00  0.00     0.091 C 
HETATM   14  C3  UNL     1      61.581   6.169  13.645  1.00  0.00     0.099 C 
HETATM   15  C4  UNL     1      62.892   5.641  13.117  1.00  0.00     0.020 C 
HETATM   16  C5  UNL     1      63.823   5.225  14.233  1.00  0.00    -0.006 C 
HETATM   17  C10 UNL     1      63.150   5.325  15.587  1.00  0.00     0.006 C 
HETATM   18  C11 UNL     1      61.869   4.524  15.508  1.00  0.00     0.015 C 
BRANCH  14  19
HETATM   19  C2  UNL     1      60.744   6.557  12.483  1.00  0.00     0.263 C 
HETATM   20  O2  UNL     1      60.701   5.842  11.426  1.00  0.00    -0.265 OA
BRANCH  19  21
HETATM   21  O1  UNL     1      59.965   7.707  12.473  1.00  0.00    -0.326 OA
HETATM   22  C1  UNL     1      59.548   8.267  11.244  1.00  0.00     0.213 C 
ENDBRANCH  19  21
ENDBRANCH  14  19
BRANCH  16  23
HETATM   23  C6  UNL     1      65.089   6.023  14.258  1.00  0.00    -0.048 C 
HETATM   24  C7  UNL     1      65.717   5.913  12.872  1.00  0.00     0.015 C 
HETATM   25  C8  UNL     1      66.099   5.542  15.251  1.00  0.00     0.015 C 
HETATM   26  C9  UNL     1      64.846   7.489  14.509  1.00  0.00     0.015 C 
ENDBRANCH  16  23
ENDBRANCH  10  13
ENDBRANCH   1   9
BRANCH   4  27
HETATM   27  C18 UNL     1      59.011  -0.862   9.758  1.00  0.00     0.255 C 
HETATM   28  O4  UNL     1      59.733  -1.188   8.781  1.00  0.00    -0.267 OA
HETATM   29  N2  UNL     1      57.800  -1.501  10.062  1.00  0.00    -0.348 N 
HETATM   30  C19 UNL     1      57.010  -1.094  11.187  1.00  0.00     0.127 C 
HETATM   31  C24 UNL     1      57.321  -2.581   9.248  1.00  0.00     0.127 C 
HETATM   32  C20 UNL     1      55.636  -0.753  10.743  1.00  0.00     0.034 C 
HETATM   33  C21 UNL     1      55.013  -1.711   9.776  1.00  0.00     0.078 C 
HETATM   34  C23 UNL     1      55.959  -2.263   8.752  1.00  0.00     0.034 C 
BRANCH  33  35
HETATM   35  C22 UNL     1      54.326  -2.804  10.493  1.00  0.00     0.235 C 
HETATM   36  N3  UNL     1      53.817  -3.918   9.794  1.00  0.00    -0.062 NA
HETATM   37  O5  UNL     1      54.194  -2.744  11.735  1.00  0.00    -0.277 OA
ENDBRANCH  33  35
ENDBRANCH   4  27
TORSDOF 7
ENDMDL
MODEL 2
REMARK VINA RESULT: -11.112711918      3.502     10.111
REMARK  7 active torsions:
REMARK  status: ('A' for Active; 'I' for Inactive)
REMARK    1  A    between atoms: O1_2  and  C2_3 
REMARK    2  A    between atoms: C2_3  and  C3_5 
REMARK    3  A    between atoms: C5_7  and  C6_8 
REMARK    4  A    between atoms: C12_14  and  C13_15 
REMARK       I    between atoms: C13_15  and  N1_17 
REMARK    5  A    between atoms: N1_17  and  C14_19 
REMARK    6  A    between atoms: C17_22  and  C18_23 
REMARK       I    between atoms: C18_23  and  N2_25 
REMARK    7  A    between atoms: C21_28  and  C22_29 
ROOT
HETATM    1  C14 UNL     1      61.791   4.139  11.955  1.00  0.00     0.042 A 
HETATM    2  C15 UNL     1      62.850   4.528  11.199  1.00  0.00     0.031 A 
HETATM    3  C16 UNL     1      63.925   5.186  11.742  1.00  0.00     0.021 A 
HETATM    4  C17 UNL     1      63.920   5.456  13.087  1.00  0.00     0.054 A 
HETATM    5  C25 UNL     1      62.864   5.076  13.877  1.00  0.00     0.058 A 
HETATM    6 CL1  UNL     1      62.868   5.428  15.613  1.00  0.00    -0.083 Cl
HETATM    7  C26 UNL     1      61.798   4.419  13.322  1.00  0.00    -0.013 A 
HETATM    8  C27 UNL     1      60.648   4.010  14.207  1.00  0.00     0.052 C 
ENDROOT
BRANCH   1   9
HETATM    9  N1  UNL     1      60.658   3.454  11.437  1.00  0.00    -0.326 N 
HETATM   10  C13 UNL     1      60.389   2.079  11.468  1.00  0.00     0.227 C 
HETATM   11  O3  UNL     1      61.147   1.249  11.979  1.00  0.00    -0.273 OA
ATOM     12  H1  UNL     1      59.952   4.036  10.987  1.00  0.00     0.169 HD
BRANCH  10  13
HETATM   13  C12 UNL     1      59.093   1.638  10.832  1.00  0.00     0.091 C 
HETATM   14  C3  UNL     1      58.071   1.244  11.838  1.00  0.00     0.099 C 
HETATM   15  C4  UNL     1      58.227  -0.177  12.322  1.00  0.00     0.020 C 
HETATM   16  C5  UNL     1      58.293  -1.160  11.176  1.00  0.00    -0.006 C 
HETATM   17  C10 UNL     1      58.314  -0.453   9.836  1.00  0.00     0.006 C 
HETATM   18  C11 UNL     1      59.454   0.541   9.875  1.00  0.00     0.015 C 
BRANCH  14  19
HETATM   19  C2  UNL     1      58.007   2.128  13.028  1.00  0.00     0.263 C 
HETATM   20  O2  UNL     1      57.946   3.397  12.910  1.00  0.00    -0.265 OA
BRANCH  19  21
HETATM   21  O1  UNL     1      58.010   1.636  14.326  1.00  0.00    -0.326 OA
HETATM   22  C1  UNL     1      57.356   2.352  15.354  1.00  0.00     0.213 C 
ENDBRANCH  19  21
ENDBRANCH  14  19
BRANCH  16  23
HETATM   23  C6  UNL     1      57.164  -2.142  11.190  1.00  0.00    -0.048 C 
HETATM   24  C7  UNL     1      55.925  -1.410  10.684  1.00  0.00     0.015 C 
HETATM   25  C8  UNL     1      56.842  -2.689  12.544  1.00  0.00     0.015 C 
HETATM   26  C9  UNL     1      57.392  -3.303  10.257  1.00  0.00     0.015 C 
ENDBRANCH  16  23
ENDBRANCH  10  13
ENDBRANCH   1   9
BRANCH   4  27
HETATM   27  C18 UNL     1      65.058   6.155  13.666  1.00  0.00     0.255 C 
HETATM   28  O4  UNL     1      64.946   7.395  13.839  1.00  0.00    -0.267 OA
HETATM   29  N2  UNL     1      66.214   5.436  14.004  1.00  0.00    -0.348 N 
HETATM   30  C19 UNL     1      66.296   4.021  13.788  1.00  0.00     0.127 C 
HETATM   31  C24 UNL     1      67.348   6.105  14.575  1.00  0.00     0.127 C 
HETATM   32  C20 UNL     1      67.478   3.705  12.950  1.00  0.00     0.034 C 
HETATM   33  C21 UNL     1      68.742   4.418  13.321  1.00  0.00     0.078 C 
HETATM   34  C23 UNL     1      68.549   5.843  13.744  1.00  0.00     0.034 C 
BRANCH  33  35
HETATM   35  C22 UNL     1      69.484   3.665  14.351  1.00  0.00     0.235 C 
HETATM   36  N3  UNL     1      69.085   2.364  14.722  1.00  0.00    -0.062 NA
HETATM   37  O5  UNL     1      70.480   4.183  14.902  1.00  0.00    -0.277 OA
ENDBRANCH  33  35
ENDBRANCH   4  27
TORSDOF 7
ENDMDL
MODEL 3
REMARK VINA RESULT: -10.819811297      3.804     10.085
REMARK  7 active torsions:
REMARK  status: ('A' for Active; 'I' for Inactive)
REMARK    1  A    between atoms: O1_2  and  C2_3 
REMARK    2  A    between atoms: C2_3  and  C3_5 
REMARK    3  A    between atoms: C5_7  and  C6_8 
REMARK    4  A    between atoms: C12_14  and  C13_15 
REMARK       I    between atoms: C13_15  and  N1_17 
REMARK    5  A    between atoms: N1_17  and  C14_19 
REMARK    6  A    between atoms: C17_22  and  C18_23 
REMARK       I    between atoms: C18_23  and  N2_25 
REMARK    7  A    between atoms: C21_28  and  C22_29 
ROOT
HETATM    1  C14 UNL     1      62.788   4.079  12.125  1.00  0.00     0.042 A 
HETATM    2  C15 UNL     1      62.896   4.454  13.426  1.00  0.00     0.031 A 
HETATM    3  C16 UNL     1      64.069   4.944  13.943  1.00  0.00     0.021 A 
HETATM    4  C17 UNL     1      65.158   5.052  13.116  1.00  0.00     0.054 A 
HETATM    5  C25 UNL     1      65.080   4.680  11.796  1.00  0.00     0.058 A 
HETATM    6 CL1  UNL     1      66.492   4.825  10.738  1.00  0.00    -0.083 Cl
HETATM    7  C26 UNL     1      63.903   4.194  11.293  1.00  0.00    -0.013 A 
HETATM    8  C27 UNL     1      63.838   3.792   9.842  1.00  0.00     0.052 C 
ENDROOT
BRANCH   1   9
HETATM    9  N1  UNL     1      61.594   3.569  11.545  1.00  0.00    -0.326 N 
HETATM   10  C13 UNL     1      61.154   2.239  11.500  1.00  0.00     0.227 C 
HETATM   11  O3  UNL     1      61.786   1.296  11.986  1.00  0.00    -0.273 OA
ATOM     12  H1  UNL     1      60.981   4.256  11.107  1.00  0.00     0.169 HD
BRANCH  10  13
HETATM   13  C12 UNL     1      59.833   1.997  10.810  1.00  0.00     0.091 C 
HETATM   14  C3  UNL     1      58.728   1.743  11.773  1.00  0.00     0.099 C 
HETATM   15  C4  UNL     1      58.659   0.309  12.238  1.00  0.00     0.020 C 
HETATM   16  C5  UNL     1      58.626  -0.660  11.079  1.00  0.00    -0.006 C 
HETATM   17  C10 UNL     1      58.800   0.052   9.753  1.00  0.00     0.006 C 
HETATM   18  C11 UNL     1      60.068   0.870   9.848  1.00  0.00     0.015 C 
BRANCH  14  19
HETATM   19  C2  UNL     1      58.747   2.613  12.974  1.00  0.00     0.263 C 
HETATM   20  O2  UNL     1      58.812   3.884  12.873  1.00  0.00    -0.265 OA
BRANCH  19  21
HETATM   21  O1  UNL     1      58.696   2.107  14.266  1.00  0.00    -0.326 OA
HETATM   22  C1  UNL     1      57.623   2.454  15.119  1.00  0.00     0.213 C 
ENDBRANCH  19  21
ENDBRANCH  14  19
BRANCH  16  23
HETATM   23  C6  UNL     1      57.368  -1.469  11.037  1.00  0.00    -0.048 C 
HETATM   24  C7  UNL     1      57.591  -2.596  10.033  1.00  0.00     0.015 C 
HETATM   25  C8  UNL     1      56.161  -0.704  10.596  1.00  0.00     0.015 C 
HETATM   26  C9  UNL     1      57.054  -2.122  12.358  1.00  0.00     0.015 C 
ENDBRANCH  16  23
ENDBRANCH  10  13
ENDBRANCH   1   9
BRANCH   4  27
HETATM   27  C18 UNL     1      66.405   5.570  13.662  1.00  0.00     0.255 C 
HETATM   28  O4  UNL     1      66.557   6.818  13.669  1.00  0.00    -0.267 OA
HETATM   29  N2  UNL     1      67.370   4.678  14.151  1.00  0.00    -0.348 N 
HETATM   30  C19 UNL     1      67.152   3.262  14.122  1.00  0.00     0.127 C 
HETATM   31  C24 UNL     1      68.606   5.166  14.694  1.00  0.00     0.127 C 
HETATM   32  C20 UNL     1      68.261   2.594  13.397  1.00  0.00     0.034 C 
HETATM   33  C21 UNL     1      69.638   3.071  13.742  1.00  0.00     0.078 C 
HETATM   34  C23 UNL     1      69.744   4.549  13.969  1.00  0.00     0.034 C 
BRANCH  33  35
HETATM   35  C22 UNL     1      70.174   2.326  14.899  1.00  0.00     0.235 C 
HETATM   36  N3  UNL     1      69.666   1.055  15.237  1.00  0.00    -0.062 NA
HETATM   37  O5  UNL     1      71.090   2.826  15.588  1.00  0.00    -0.277 OA
ENDBRANCH  33  35
ENDBRANCH   4  27
TORSDOF 7
ENDMDL
MODEL 4
REMARK VINA RESULT: -10.646954251      3.805     10.336
REMARK  7 active torsions:
REMARK  status: ('A' for Active; 'I' for Inactive)
REMARK    1  A    between atoms: O1_2  and  C2_3 
REMARK    2  A    between atoms: C2_3  and  C3_5 
REMARK    3  A    between atoms: C5_7  and  C6_8 
REMARK    4  A    between atoms: C12_14  and  C13_15 
REMARK       I    between atoms: C13_15  and  N1_17 
REMARK    5  A    between atoms: N1_17  and  C14_19 
REMARK    6  A    between atoms: C17_22  and  C18_23 
REMARK       I    between atoms: C18_23  and  N2_25 
REMARK    7  A    between atoms: C21_28  and  C22_29 
ROOT
HETATM    1  C14 UNL     1      62.788   2.759  11.665  1.00  0.00     0.042 A 
HETATM    2  C15 UNL     1      63.857   1.925  11.745  1.00  0.00     0.031 A 
HETATM    3  C16 UNL     1      65.062   2.339  12.254  1.00  0.00     0.021 A 
HETATM    4  C17 UNL     1      65.181   3.634  12.691  1.00  0.00     0.054 A 
HETATM    5  C25 UNL     1      64.119   4.501  12.623  1.00  0.00     0.058 A 
HETATM    6 CL1  UNL     1      64.284   6.169  13.192  1.00  0.00    -0.083 Cl
HETATM    7  C26 UNL     1      62.922   4.074  12.113  1.00  0.00    -0.013 A 
HETATM    8  C27 UNL     1      61.768   5.041  12.048  1.00  0.00     0.052 C 
ENDROOT
BRANCH   1   9
HETATM    9  N1  UNL     1      61.521   2.375  11.147  1.00  0.00    -0.326 N 
HETATM   10  C13 UNL     1      60.516   1.631  11.782  1.00  0.00     0.227 C 
HETATM   11  O3  UNL     1      60.616   1.196  12.933  1.00  0.00    -0.273 OA
ATOM     12  H1  UNL     1      61.317   2.677  10.195  1.00  0.00     0.169 HD
BRANCH  10  13
HETATM   13  C12 UNL     1      59.266   1.375  10.975  1.00  0.00     0.091 C 
HETATM   14  C3  UNL     1      58.064   1.191  11.832  1.00  0.00     0.099 C 
HETATM   15  C4  UNL     1      57.918  -0.215  12.362  1.00  0.00     0.020 C 
HETATM   16  C5  UNL     1      57.981  -1.244  11.256  1.00  0.00    -0.006 C 
HETATM   17  C10 UNL     1      58.302  -0.606   9.920  1.00  0.00     0.006 C 
HETATM   18  C11 UNL     1      59.572   0.194  10.102  1.00  0.00     0.015 C 
BRANCH  14  19
HETATM   19  C2  UNL     1      57.982   2.123  12.983  1.00  0.00     0.263 C 
HETATM   20  O2  UNL     1      58.194   3.374  12.841  1.00  0.00    -0.265 OA
BRANCH  19  21
HETATM   21  O1  UNL     1      57.672   1.700  14.268  1.00  0.00    -0.326 OA
HETATM   22  C1  UNL     1      57.609   2.637  15.325  1.00  0.00     0.213 C 
ENDBRANCH  19  21
ENDBRANCH  14  19
BRANCH  16  23
HETATM   23  C6  UNL     1      56.716  -2.033  11.128  1.00  0.00    -0.048 C 
HETATM   24  C7  UNL     1      57.041  -3.273  10.301  1.00  0.00     0.015 C 
HETATM   25  C8  UNL     1      55.606  -1.307  10.436  1.00  0.00     0.015 C 
HETATM   26  C9  UNL     1      56.200  -2.522  12.457  1.00  0.00     0.015 C 
ENDBRANCH  16  23
ENDBRANCH  10  13
ENDBRANCH   1   9
BRANCH   4  27
HETATM   27  C18 UNL     1      66.459   4.076  13.231  1.00  0.00     0.255 C 
HETATM   28  O4  UNL     1      66.630   3.966  14.472  1.00  0.00    -0.267 OA
HETATM   29  N2  UNL     1      67.433   4.597  12.367  1.00  0.00    -0.348 N 
HETATM   30  C19 UNL     1      67.193   4.703  10.958  1.00  0.00     0.127 C 
HETATM   31  C24 UNL     1      68.699   5.039  12.878  1.00  0.00     0.127 C 
HETATM   32  C20 UNL     1      67.397   6.104  10.514  1.00  0.00     0.034 C 
HETATM   33  C21 UNL     1      68.616   6.782  11.057  1.00  0.00     0.078 C 
HETATM   34  C23 UNL     1      68.926   6.452  12.486  1.00  0.00     0.034 C 
BRANCH  33  35
HETATM   35  C22 UNL     1      69.786   6.520  10.196  1.00  0.00     0.235 C 
HETATM   36  N3  UNL     1      69.622   6.204   8.831  1.00  0.00    -0.062 NA
HETATM   37  O5  UNL     1      70.938   6.579  10.680  1.00  0.00    -0.277 OA
ENDBRANCH  33  35
ENDBRANCH   4  27
TORSDOF 7
ENDMDL
MODEL 5
REMARK VINA RESULT: -10.507976408      3.831      5.772
REMARK  7 active torsions:
REMARK  status: ('A' for Active; 'I' for Inactive)
REMARK    1  A    between atoms: O1_2  and  C2_3 
REMARK    2  A    between atoms: C2_3  and  C3_5 
REMARK    3  A    between atoms: C5_7  and  C6_8 
REMARK    4  A    between atoms: C12_14  and  C13_15 
REMARK       I    between atoms: C13_15  and  N1_17 
REMARK    5  A    between atoms: N1_17  and  C14_19 
REMARK    6  A    between atoms: C17_22  and  C18_23 
REMARK       I    between atoms: C18_23  and  N2_25 
REMARK    7  A    between atoms: C21_28  and  C22_29 
ROOT
HETATM    1  C14 UNL     1      62.233   1.342   9.441  1.00  0.00     0.042 A 
HETATM    2  C15 UNL     1      61.359   0.450   8.907  1.00  0.00     0.031 A 
HETATM    3  C16 UNL     1      60.197   0.103   9.549  1.00  0.00     0.021 A 
HETATM    4  C17 UNL     1      59.921   0.676  10.765  1.00  0.00     0.054 A 
HETATM    5  C25 UNL     1      60.785   1.581  11.329  1.00  0.00     0.058 A 
HETATM    6 CL1  UNL     1      60.417   2.315  12.898  1.00  0.00    -0.083 Cl
HETATM    7  C26 UNL     1      61.941   1.919  10.677  1.00  0.00    -0.013 A 
HETATM    8  C27 UNL     1      62.876   2.915  11.314  1.00  0.00     0.052 C 
ENDROOT
BRANCH   1   9
HETATM    9  N1  UNL     1      63.447   1.734   8.811  1.00  0.00    -0.326 N 
HETATM   10  C13 UNL     1      64.517   0.920   8.414  1.00  0.00     0.227 C 
HETATM   11  O3  UNL     1      64.536  -0.304   8.571  1.00  0.00    -0.273 OA
ATOM     12  H1  UNL     1      63.552   2.731   8.626  1.00  0.00     0.169 HD
BRANCH  10  13
HETATM   13  C12 UNL     1      65.684   1.625   7.765  1.00  0.00     0.091 C 
HETATM   14  C3  UNL     1      66.642   2.175   8.762  1.00  0.00     0.099 C 
HETATM   15  C4  UNL     1      66.231   3.521   9.306  1.00  0.00     0.020 C 
HETATM   16  C5  UNL     1      65.941   4.512   8.201  1.00  0.00    -0.006 C 
HETATM   17  C10 UNL     1      66.015   3.860   6.835  1.00  0.00     0.006 C 
HETATM   18  C11 UNL     1      65.089   2.664   6.861  1.00  0.00     0.015 C 
BRANCH  14  19
HETATM   19  C2  UNL     1      66.912   1.279   9.913  1.00  0.00     0.263 C 
HETATM   20  O2  UNL     1      67.660   0.252   9.795  1.00  0.00    -0.265 OA
BRANCH  19  21
HETATM   21  O1  UNL     1      66.374   1.500  11.174  1.00  0.00    -0.326 OA
HETATM   22  C1  UNL     1      65.865   0.416  11.925  1.00  0.00     0.213 C 
ENDBRANCH  19  21
ENDBRANCH  14  19
BRANCH  16  23
HETATM   23  C6  UNL     1      66.860   5.692   8.228  1.00  0.00    -0.048 C 
HETATM   24  C7  UNL     1      67.265   5.980   6.785  1.00  0.00     0.015 C 
HETATM   25  C8  UNL     1      68.114   5.478   9.014  1.00  0.00     0.015 C 
HETATM   26  C9  UNL     1      66.189   6.939   8.745  1.00  0.00     0.015 C 
ENDBRANCH  16  23
ENDBRANCH  10  13
ENDBRANCH   1   9
BRANCH   4  27
HETATM   27  C18 UNL     1      58.689   0.308  11.449  1.00  0.00     0.255 C 
HETATM   28  O4  UNL     1      58.529   0.739  12.619  1.00  0.00    -0.267 OA
HETATM   29  N2  UNL     1      57.745  -0.495  10.793  1.00  0.00    -0.348 N 
HETATM   30  C19 UNL     1      57.972  -0.963   9.457  1.00  0.00     0.127 C 
HETATM   31  C24 UNL     1      56.525  -0.870  11.449  1.00  0.00     0.127 C 
HETATM   32  C20 UNL     1      57.870  -2.442   9.415  1.00  0.00     0.034 C 
HETATM   33  C21 UNL     1      56.716  -3.032  10.164  1.00  0.00     0.078 C 
HETATM   34  C23 UNL     1      56.403  -2.349  11.461  1.00  0.00     0.034 C 
BRANCH  33  35
HETATM   35  C22 UNL     1      55.516  -3.097   9.306  1.00  0.00     0.235 C 
HETATM   36  N3  UNL     1      54.414  -3.901   9.665  1.00  0.00    -0.062 NA
HETATM   37  O5  UNL     1      55.473  -2.431   8.248  1.00  0.00    -0.277 OA
ENDBRANCH  33  35
ENDBRANCH   4  27
TORSDOF 7
ENDMDL
