MODEL 1
REMARK VINA RESULT: -11.211548255      0.000      0.000
REMARK  5 active torsions:
REMARK  status: ('A' for Active; 'I' for Inactive)
REMARK    1  A    between atoms: C2_2  and  C3_3 
REMARK    2  A    between atoms: C9_12  and  C10_13 
REMARK       I    between atoms: C10_13  and  N2_15 
REMARK    3  A    between atoms: N2_15  and  C11_17 
REMARK    4  A    between atoms: C16_22  and  C17_23 
REMARK    5  A    between atoms: C17_23  and  C18_24 
REMARK       I    between atoms: C18_24  and  N3_26 
ROOT
HETATM    1  C10 UNL     1      58.882   3.146  13.245  1.00  0.00     0.242 C 
HETATM    2  O1  UNL     1      58.622   3.429  14.440  1.00  0.00    -0.271 OA
HETATM    3  N2  UNL     1      59.822   3.911  12.542  1.00  0.00    -0.355 N 
ATOM      4  H2  UNL     1      60.035   3.691  11.569  1.00  0.00     0.162 HD
ENDROOT
BRANCH   3   5
HETATM    5  C11 UNL     1      60.504   5.038  13.215  1.00  0.00     0.084 C 
HETATM    6  C12 UNL     1      60.546   6.124  12.185  1.00  0.00     0.025 C 
HETATM    7  C13 UNL     1      60.785   7.447  12.798  1.00  0.00     0.002 C 
HETATM    8  C14 UNL     1      60.995   7.407  14.254  1.00  0.00     0.000 C 
HETATM    9  C15 UNL     1      62.111   6.669  14.840  1.00  0.00     0.005 C 
HETATM   10  C16 UNL     1      62.799   5.610  14.090  1.00  0.00    -0.004 C 
HETATM   11  C24 UNL     1      61.902   4.552  13.515  1.00  0.00     0.030 C 
BRANCH  10  12
HETATM   12  C17 UNL     1      63.855   6.029  13.104  1.00  0.00     0.107 C 
BRANCH  12  13
HETATM   13  C18 UNL     1      65.068   6.619  13.667  1.00  0.00     0.220 C 
HETATM   14  O2  UNL     1      65.163   7.847  13.889  1.00  0.00    -0.273 OA
HETATM   15  N3  UNL     1      66.210   5.824  13.994  1.00  0.00    -0.352 N 
HETATM   16  C19 UNL     1      66.192   4.382  13.763  1.00  0.00     0.125 C 
HETATM   17  C23 UNL     1      67.397   6.386  14.553  1.00  0.00     0.125 C 
HETATM   18  C20 UNL     1      67.397   3.759  14.421  1.00  0.00     0.020 C 
HETATM   19  C21 UNL     1      68.695   4.378  14.004  1.00  0.00     0.003 C 
HETATM   20  C22 UNL     1      68.572   5.862  13.738  1.00  0.00     0.020 C 
ENDBRANCH  12  13
ENDBRANCH  10  12
ENDBRANCH   3   5
BRANCH   1  21
HETATM   21  C9  UNL     1      58.206   2.016  12.571  1.00  0.00     0.198 C 
HETATM   22  N1  UNL     1      59.126   1.386  11.643  1.00  0.00    -0.372 N 
HETATM   23  C8  UNL     1      58.623   0.188  11.010  1.00  0.00     0.074 A 
ATOM     24  H1  UNL     1      60.056   1.759  11.452  1.00  0.00     0.160 HD
HETATM   25  C3  UNL     1      59.037  -0.224   9.776  1.00  0.00    -0.008 A 
HETATM   26  C7  UNL     1      57.720  -0.545  11.760  1.00  0.00     0.113 A 
HETATM   27  C4  UNL     1      58.560  -1.422   9.214  1.00  0.00     0.015 A 
HETATM   28  C5  UNL     1      57.668  -2.153   9.950  1.00  0.00     0.023 A 
HETATM   29  C6  UNL     1      57.249  -1.740  11.190  1.00  0.00     0.046 A 
HETATM   30 BR1  UNL     1      55.992  -2.772  12.219  1.00  0.00    -0.048 Br
HETATM   31  O3  UNL     1      57.305  -0.133  12.991  1.00  0.00    -0.345 OA
HETATM   32  C25 UNL     1      57.778   1.020  13.624  1.00  0.00     0.210 C 
BRANCH  25  33
HETATM   33  C2  UNL     1      59.983   0.538   9.006  1.00  0.00     0.003 C 
HETATM   34  C1  UNL     1      61.271   0.423   9.086  1.00  0.00     0.012 C 
ENDBRANCH  25  33
ENDBRANCH   1  21
TORSDOF 5
ENDMDL
MODEL 2
REMARK VINA RESULT: -11.077639117      0.987      1.327
REMARK  5 active torsions:
REMARK  status: ('A' for Active; 'I' for Inactive)
REMARK    1  A    between atoms: C2_2  and  C3_3 
REMARK    2  A    between atoms: C9_12  and  C10_13 
REMARK       I    between atoms: C10_13  and  N2_15 
REMARK    3  A    between atoms: N2_15  and  C11_17 
REMARK    4  A    between atoms: C16_22  and  C17_23 
REMARK    5  A    between atoms: C17_23  and  C18_24 
REMARK       I    between atoms: C18_24  and  N3_26 
ROOT
HETATM    1  C10 UNL     1      58.979   3.275  13.428  1.00  0.00     0.242 C 
HETATM    2  O1  UNL     1      58.709   3.530  14.627  1.00  0.00    -0.271 OA
HETATM    3  N2  UNL     1      59.931   4.050  12.753  1.00  0.00    -0.355 N 
ATOM      4  H2  UNL     1      60.152   3.853  11.776  1.00  0.00     0.162 HD
ENDROOT
BRANCH   3   5
HETATM    5  C11 UNL     1      60.613   5.156  13.459  1.00  0.00     0.084 C 
HETATM    6  C12 UNL     1      60.571   6.304  12.499  1.00  0.00     0.025 C 
HETATM    7  C13 UNL     1      60.803   7.594  13.179  1.00  0.00     0.002 C 
HETATM    8  C14 UNL     1      61.089   7.473  14.618  1.00  0.00     0.000 C 
HETATM    9  C15 UNL     1      62.254   6.737  15.101  1.00  0.00     0.005 C 
HETATM   10  C16 UNL     1      62.933   5.748  14.253  1.00  0.00    -0.004 C 
HETATM   11  C24 UNL     1      62.039   4.698  13.659  1.00  0.00     0.030 C 
BRANCH  10  12
HETATM   12  C17 UNL     1      63.924   6.259  13.245  1.00  0.00     0.107 C 
BRANCH  12  13
HETATM   13  C18 UNL     1      64.664   5.247  12.494  1.00  0.00     0.220 C 
HETATM   14  O2  UNL     1      64.310   4.882  11.350  1.00  0.00    -0.273 OA
HETATM   15  N3  UNL     1      65.834   4.621  13.026  1.00  0.00    -0.352 N 
HETATM   16  C19 UNL     1      66.319   4.979  14.356  1.00  0.00     0.125 C 
HETATM   17  C23 UNL     1      66.571   3.639  12.299  1.00  0.00     0.125 C 
HETATM   18  C20 UNL     1      67.684   4.376  14.566  1.00  0.00     0.020 C 
HETATM   19  C21 UNL     1      67.730   2.898  14.331  1.00  0.00     0.003 C 
HETATM   20  C22 UNL     1      66.789   2.454  13.233  1.00  0.00     0.020 C 
ENDBRANCH  12  13
ENDBRANCH  10  12
ENDBRANCH   3   5
BRANCH   1  21
HETATM   21  C9  UNL     1      58.303   2.167  12.720  1.00  0.00     0.198 C 
HETATM   22  N1  UNL     1      59.233   1.539  11.801  1.00  0.00    -0.372 N 
HETATM   23  C8  UNL     1      58.728   0.360  11.136  1.00  0.00     0.074 A 
ATOM     24  H1  UNL     1      60.172   1.903  11.637  1.00  0.00     0.160 HD
HETATM   25  C3  UNL     1      59.163  -0.037   9.904  1.00  0.00    -0.008 A 
HETATM   26  C7  UNL     1      57.799  -0.373  11.854  1.00  0.00     0.113 A 
HETATM   27  C4  UNL     1      58.682  -1.218   9.312  1.00  0.00     0.015 A 
HETATM   28  C5  UNL     1      57.764  -1.949  10.016  1.00  0.00     0.023 A 
HETATM   29  C6  UNL     1      57.324  -1.551  11.254  1.00  0.00     0.046 A 
HETATM   30 BR1  UNL     1      56.031  -2.583  12.237  1.00  0.00    -0.048 Br
HETATM   31  O3  UNL     1      57.363   0.024  13.083  1.00  0.00    -0.345 OA
HETATM   32  C25 UNL     1      57.838   1.158  13.745  1.00  0.00     0.210 C 
BRANCH  25  33
HETATM   33  C2  UNL     1      60.136   0.725   9.168  1.00  0.00     0.003 C 
HETATM   34  C1  UNL     1      61.401   0.452   9.107  1.00  0.00     0.012 C 
ENDBRANCH  25  33
ENDBRANCH   1  21
TORSDOF 5
ENDMDL
MODEL 3
REMARK VINA RESULT: -10.988446492      1.665      2.157
REMARK  5 active torsions:
REMARK  status: ('A' for Active; 'I' for Inactive)
REMARK    1  A    between atoms: C2_2  and  C3_3 
REMARK    2  A    between atoms: C9_12  and  C10_13 
REMARK       I    between atoms: C10_13  and  N2_15 
REMARK    3  A    between atoms: N2_15  and  C11_17 
REMARK    4  A    between atoms: C16_22  and  C17_23 
REMARK    5  A    between atoms: C17_23  and  C18_24 
REMARK       I    between atoms: C18_24  and  N3_26 
ROOT
HETATM    1  C10 UNL     1      58.933   3.242  13.441  1.00  0.00     0.242 C 
HETATM    2  O1  UNL     1      58.663   3.495  14.641  1.00  0.00    -0.271 OA
HETATM    3  N2  UNL     1      59.881   4.023  12.767  1.00  0.00    -0.355 N 
ATOM      4  H2  UNL     1      60.103   3.828  11.790  1.00  0.00     0.162 HD
ENDROOT
BRANCH   3   5
HETATM    5  C11 UNL     1      60.558   5.132  13.475  1.00  0.00     0.084 C 
HETATM    6  C12 UNL     1      60.632   6.236  12.467  1.00  0.00     0.025 C 
HETATM    7  C13 UNL     1      60.870   7.545  13.108  1.00  0.00     0.002 C 
HETATM    8  C14 UNL     1      61.048   7.477  14.568  1.00  0.00     0.000 C 
HETATM    9  C15 UNL     1      62.145   6.718  15.164  1.00  0.00     0.005 C 
HETATM   10  C16 UNL     1      62.839   5.667  14.409  1.00  0.00    -0.004 C 
HETATM   11  C24 UNL     1      61.946   4.627  13.795  1.00  0.00     0.030 C 
BRANCH  10  12
HETATM   12  C17 UNL     1      63.920   6.094  13.454  1.00  0.00     0.107 C 
BRANCH  12  13
HETATM   13  C18 UNL     1      64.907   5.077  13.096  1.00  0.00     0.220 C 
HETATM   14  O2  UNL     1      65.775   4.684  13.907  1.00  0.00    -0.273 OA
HETATM   15  N3  UNL     1      64.931   4.475  11.799  1.00  0.00    -0.352 N 
HETATM   16  C19 UNL     1      63.959   4.875  10.785  1.00  0.00     0.125 C 
HETATM   17  C23 UNL     1      65.882   3.474  11.440  1.00  0.00     0.125 C 
HETATM   18  C20 UNL     1      64.037   3.924   9.619  1.00  0.00     0.020 C 
HETATM   19  C21 UNL     1      65.416   3.783   9.051  1.00  0.00     0.003 C 
HETATM   20  C22 UNL     1      66.493   3.889  10.107  1.00  0.00     0.020 C 
ENDBRANCH  12  13
ENDBRANCH  10  12
ENDBRANCH   3   5
BRANCH   1  21
HETATM   21  C9  UNL     1      58.262   2.132  12.732  1.00  0.00     0.198 C 
HETATM   22  N1  UNL     1      59.194   1.513  11.808  1.00  0.00    -0.372 N 
HETATM   23  C8  UNL     1      58.695   0.332  11.142  1.00  0.00     0.074 A 
ATOM     24  H1  UNL     1      60.131   1.883  11.642  1.00  0.00     0.160 HD
HETATM   25  C3  UNL     1      59.129  -0.058   9.907  1.00  0.00    -0.008 A 
HETATM   26  C7  UNL     1      57.773  -0.409  11.860  1.00  0.00     0.113 A 
HETATM   27  C4  UNL     1      58.654  -1.241   9.313  1.00  0.00     0.015 A 
HETATM   28  C5  UNL     1      57.744  -1.980  10.017  1.00  0.00     0.023 A 
HETATM   29  C6  UNL     1      57.305  -1.588  11.258  1.00  0.00     0.046 A 
HETATM   30 BR1  UNL     1      56.021  -2.632  12.241  1.00  0.00    -0.048 Br
HETATM   31  O3  UNL     1      57.338  -0.018  13.091  1.00  0.00    -0.345 OA
HETATM   32  C25 UNL     1      57.808   1.117  13.756  1.00  0.00     0.210 C 
BRANCH  25  33
HETATM   33  C2  UNL     1      60.095   0.713   9.171  1.00  0.00     0.003 C 
HETATM   34  C1  UNL     1      61.363   0.455   9.114  1.00  0.00     0.012 C 
ENDBRANCH  25  33
ENDBRANCH   1  21
TORSDOF 5
ENDMDL
MODEL 4
REMARK VINA RESULT: -10.773250359      1.501      1.753
REMARK  5 active torsions:
REMARK  status: ('A' for Active; 'I' for Inactive)
REMARK    1  A    between atoms: C2_2  and  C3_3 
REMARK    2  A    between atoms: C9_12  and  C10_13 
REMARK       I    between atoms: C10_13  and  N2_15 
REMARK    3  A    between atoms: N2_15  and  C11_17 
REMARK    4  A    between atoms: C16_22  and  C17_23 
REMARK    5  A    between atoms: C17_23  and  C18_24 
REMARK       I    between atoms: C18_24  and  N3_26 
ROOT
HETATM    1  C10 UNL     1      58.981   3.092  13.970  1.00  0.00     0.242 C 
HETATM    2  O1  UNL     1      58.489   3.475  15.060  1.00  0.00    -0.271 OA
HETATM    3  N2  UNL     1      60.196   3.635  13.531  1.00  0.00    -0.355 N 
ATOM      4  H2  UNL     1      60.600   3.333  12.645  1.00  0.00     0.162 HD
ENDROOT
BRANCH   3   5
HETATM    5  C11 UNL     1      60.890   4.648  14.357  1.00  0.00     0.084 C 
HETATM    6  C12 UNL     1      60.255   5.949  13.974  1.00  0.00     0.025 C 
HETATM    7  C13 UNL     1      60.501   6.995  14.987  1.00  0.00     0.002 C 
HETATM    8  C14 UNL     1      61.358   6.563  16.103  1.00  0.00     0.000 C 
HETATM    9  C15 UNL     1      62.732   6.123  15.879  1.00  0.00     0.005 C 
HETATM   10  C16 UNL     1      63.181   5.683  14.551  1.00  0.00    -0.004 C 
HETATM   11  C24 UNL     1      62.333   4.622  13.911  1.00  0.00     0.030 C 
BRANCH  10  12
HETATM   12  C17 UNL     1      63.572   6.745  13.561  1.00  0.00     0.107 C 
BRANCH  12  13
HETATM   13  C18 UNL     1      65.004   6.911  13.320  1.00  0.00     0.220 C 
HETATM   14  O2  UNL     1      65.721   7.619  14.063  1.00  0.00    -0.273 OA
HETATM   15  N3  UNL     1      65.661   6.273  12.223  1.00  0.00    -0.352 N 
HETATM   16  C19 UNL     1      64.903   5.433  11.300  1.00  0.00     0.125 C 
HETATM   17  C23 UNL     1      67.060   6.418  11.983  1.00  0.00     0.125 C 
HETATM   18  C20 UNL     1      65.861   4.688  10.406  1.00  0.00     0.020 C 
HETATM   19  C21 UNL     1      66.828   5.578   9.689  1.00  0.00     0.003 C 
HETATM   20  C22 UNL     1      67.231   6.781  10.512  1.00  0.00     0.020 C 
ENDBRANCH  12  13
ENDBRANCH  10  12
ENDBRANCH   3   5
BRANCH   1  21
HETATM   21  C9  UNL     1      58.293   2.076  13.146  1.00  0.00     0.198 C 
HETATM   22  N1  UNL     1      59.243   1.467  12.234  1.00  0.00    -0.372 N 
HETATM   23  C8  UNL     1      58.720   0.368  11.456  1.00  0.00     0.074 A 
ATOM     24  H1  UNL     1      60.207   1.790  12.149  1.00  0.00     0.160 HD
HETATM   25  C3  UNL     1      59.206   0.039  10.223  1.00  0.00    -0.008 A 
HETATM   26  C7  UNL     1      57.715  -0.364  12.065  1.00  0.00     0.113 A 
HETATM   27  C4  UNL     1      58.701  -1.070   9.519  1.00  0.00     0.015 A 
HETATM   28  C5  UNL     1      57.709  -1.799  10.115  1.00  0.00     0.023 A 
HETATM   29  C6  UNL     1      57.218  -1.468  11.353  1.00  0.00     0.046 A 
HETATM   30 BR1  UNL     1      55.820  -2.497  12.184  1.00  0.00    -0.048 Br
HETATM   31  O3  UNL     1      57.228  -0.034  13.295  1.00  0.00    -0.345 OA
HETATM   32  C25 UNL     1      57.720   1.023  14.066  1.00  0.00     0.210 C 
BRANCH  25  33
HETATM   33  C2  UNL     1      60.256   0.798   9.601  1.00  0.00     0.003 C 
HETATM   34  C1  UNL     1      61.169   0.305   8.824  1.00  0.00     0.012 C 
ENDBRANCH  25  33
ENDBRANCH   1  21
TORSDOF 5
ENDMDL
MODEL 5
REMARK VINA RESULT: -10.630132444      1.217      1.494
REMARK  5 active torsions:
REMARK  status: ('A' for Active; 'I' for Inactive)
REMARK    1  A    between atoms: C2_2  and  C3_3 
REMARK    2  A    between atoms: C9_12  and  C10_13 
REMARK       I    between atoms: C10_13  and  N2_15 
REMARK    3  A    between atoms: N2_15  and  C11_17 
REMARK    4  A    between atoms: C16_22  and  C17_23 
REMARK    5  A    between atoms: C17_23  and  C18_24 
REMARK       I    between atoms: C18_24  and  N3_26 
ROOT
HETATM    1  C10 UNL     1      58.994   3.139  13.903  1.00  0.00     0.242 C 
HETATM    2  O1  UNL     1      58.555   3.494  15.025  1.00  0.00    -0.271 OA
HETATM    3  N2  UNL     1      60.157   3.734  13.396  1.00  0.00    -0.355 N 
ATOM      4  H2  UNL     1      60.517   3.455  12.483  1.00  0.00     0.162 HD
ENDROOT
BRANCH   3   5
HETATM    5  C11 UNL     1      60.860   4.766  14.187  1.00  0.00     0.084 C 
HETATM    6  C12 UNL     1      60.368   6.068  13.635  1.00  0.00     0.025 C 
HETATM    7  C13 UNL     1      60.614   7.185  14.569  1.00  0.00     0.002 C 
HETATM    8  C14 UNL     1      61.337   6.799  15.792  1.00  0.00     0.000 C 
HETATM    9  C15 UNL     1      62.684   6.240  15.733  1.00  0.00     0.005 C 
HETATM   10  C16 UNL     1      63.205   5.643  14.495  1.00  0.00    -0.004 C 
HETATM   11  C24 UNL     1      62.328   4.592  13.878  1.00  0.00     0.030 C 
BRANCH  10  12
HETATM   12  C17 UNL     1      63.762   6.575  13.454  1.00  0.00     0.107 C 
BRANCH  12  13
HETATM   13  C18 UNL     1      64.747   6.006  12.537  1.00  0.00     0.220 C 
HETATM   14  O2  UNL     1      64.420   5.222  11.618  1.00  0.00    -0.273 OA
HETATM   15  N3  UNL     1      66.139   6.315  12.641  1.00  0.00    -0.352 N 
HETATM   16  C19 UNL     1      66.615   7.216  13.687  1.00  0.00     0.125 C 
HETATM   17  C23 UNL     1      67.110   5.774  11.746  1.00  0.00     0.125 C 
HETATM   18  C20 UNL     1      68.055   7.571  13.419  1.00  0.00     0.020 C 
HETATM   19  C21 UNL     1      68.947   6.379  13.257  1.00  0.00     0.003 C 
HETATM   20  C22 UNL     1      68.245   5.214  12.596  1.00  0.00     0.020 C 
ENDBRANCH  12  13
ENDBRANCH  10  12
ENDBRANCH   3   5
BRANCH   1  21
HETATM   21  C9  UNL     1      58.296   2.103  13.112  1.00  0.00     0.198 C 
HETATM   22  N1  UNL     1      59.231   1.487  12.190  1.00  0.00    -0.372 N 
HETATM   23  C8  UNL     1      58.700   0.369  11.443  1.00  0.00     0.074 A 
ATOM     24  H1  UNL     1      60.190   1.816  12.077  1.00  0.00     0.160 HD
HETATM   25  C3  UNL     1      59.161   0.022  10.206  1.00  0.00    -0.008 A 
HETATM   26  C7  UNL     1      57.715  -0.360  12.087  1.00  0.00     0.113 A 
HETATM   27  C4  UNL     1      58.651  -1.102   9.532  1.00  0.00     0.015 A 
HETATM   28  C5  UNL     1      57.679  -1.829  10.162  1.00  0.00     0.023 A 
HETATM   29  C6  UNL     1      57.213  -1.480  11.406  1.00  0.00     0.046 A 
HETATM   30 BR1  UNL     1      55.843  -2.507  12.286  1.00  0.00    -0.048 Br
HETATM   31  O3  UNL     1      57.254  -0.012  13.321  1.00  0.00    -0.345 OA
HETATM   32  C25 UNL     1      57.753   1.061  14.063  1.00  0.00     0.210 C 
BRANCH  25  33
HETATM   33  C2  UNL     1      60.191   0.780   9.546  1.00  0.00     0.003 C 
HETATM   34  C1  UNL     1      61.177   0.268   8.879  1.00  0.00     0.012 C 
ENDBRANCH  25  33
ENDBRANCH   1  21
TORSDOF 5
ENDMDL
