MODEL 1
REMARK VINA RESULT: -8.202424346      0.000      0.000
REMARK  6 active torsions:
REMARK  status: ('A' for Active; 'I' for Inactive)
REMARK       I    between atoms: N1_2  and  C2_4 
REMARK       I    between atoms: C2_4  and  N2_6 
REMARK    1  A    between atoms: C8_12  and  C9_13 
REMARK    2  A    between atoms: C9_13  and  N3_14 
REMARK       I    between atoms: N3_14  and  C10_16 
REMARK       I    between atoms: N6_22  and  C11_23 
REMARK       I    between atoms: C11_23  and  N7_25 
REMARK    3  A    between atoms: N7_25  and  C12_27 
REMARK    4  A    between atoms: C12_27  and  C13_28 
REMARK    5  A    between atoms: C13_28  and  C14_29 
REMARK    6  A    between atoms: C14_29  and  C15_30 
ROOT
HETATM    1  C1  UNL     1      27.263   6.404  36.443  1.00  0.00     0.151 C 
HETATM    2  N1  UNL     1      26.414   7.023  35.455  1.00  0.00    -0.347 N 
ATOM      3  H1  UNL     1      26.183   6.514  34.602  1.00  0.00     0.163 HD
HETATM    4  C2  UNL     1      25.902   8.315  35.649  1.00  0.00     0.317 C 
HETATM    5  O1  UNL     1      26.205   8.925  36.716  1.00  0.00    -0.247 OA
HETATM    6  N2  UNL     1      25.054   8.951  34.676  1.00  0.00    -0.334 N 
HETATM    7  C3  UNL     1      24.574  10.292  34.981  1.00  0.00     0.129 C 
HETATM    8  C4  UNL     1      23.295  10.456  34.179  1.00  0.00     0.048 C 
HETATM    9  C5  UNL     1      23.685  10.404  32.735  1.00  0.00     0.127 C 
HETATM   10  C6  UNL     1      23.991   8.940  32.428  1.00  0.00     0.032 C 
HETATM   11  C7  UNL     1      24.725   8.879  31.102  1.00  0.00     0.044 C 
HETATM   12  C8  UNL     1      25.894   9.829  31.022  1.00  0.00     0.170 C 
HETATM   13  O2  UNL     1      26.022  10.549  32.216  1.00  0.00    -0.267 OA
HETATM   14  N6  UNL     1      24.840  11.176  32.393  1.00  0.00    -0.202 N 
HETATM   15  C11 UNL     1      24.763  12.581  32.219  1.00  0.00     0.342 C 
HETATM   16  O3  UNL     1      25.849  13.200  31.933  1.00  0.00    -0.245 OA
HETATM   17  N7  UNL     1      23.545  13.246  32.356  1.00  0.00    -0.341 N 
ATOM     18  H7  UNL     1      22.714  12.696  32.572  1.00  0.00     0.164 HD
HETATM   19  C20 UNL     1      24.744   8.228  33.489  1.00  0.00     0.134 C 
ENDROOT
BRANCH  12  20
HETATM   20  C9  UNL     1      27.127   9.063  30.662  1.00  0.00     0.156 C 
BRANCH  20  21
HETATM   21  N3  UNL     1      26.825   7.813  29.993  1.00  0.00    -0.362 N 
HETATM   22  C10 UNL     1      27.874   7.140  29.332  1.00  0.00     0.181 C 
HETATM   23  N4  UNL     1      29.024   7.061  29.885  1.00  0.00    -0.374 N 
HETATM   24  N5  UNL     1      27.650   6.561  28.066  1.00  0.00    -0.064 NA
ATOM     25  H42 UNL     1      29.186   7.480  30.801  1.00  0.00     0.158 HD
ATOM     26  H41 UNL     1      29.782   6.574  29.407  1.00  0.00     0.158 HD
ATOM     27  H3  UNL     1      25.879   7.430  30.000  1.00  0.00     0.162 HD
ENDBRANCH  20  21
ENDBRANCH  12  20
BRANCH  17  28
HETATM   28  C12 UNL     1      23.406  14.668  32.207  1.00  0.00     0.124 C 
BRANCH  28  29
HETATM   29  C13 UNL     1      22.699  15.253  33.379  1.00  0.00     0.020 C 
BRANCH  29  30
HETATM   30  C14 UNL     1      22.464  16.687  33.401  1.00  0.00     0.006 C 
BRANCH  30  31
HETATM   31  C15 UNL     1      21.363  17.399  32.802  1.00  0.00    -0.014 C 
HETATM   32  C16 UNL     1      20.187  16.624  32.305  1.00  0.00     0.004 C 
HETATM   33  C17 UNL     1      18.950  17.173  32.984  1.00  0.00     0.000 C 
HETATM   34  C18 UNL     1      19.504  17.960  34.137  1.00  0.00     0.000 C 
HETATM   35  C19 UNL     1      20.772  18.536  33.591  1.00  0.00     0.004 C 
ENDBRANCH  30  31
ENDBRANCH  29  30
ENDBRANCH  28  29
ENDBRANCH  17  28
TORSDOF 6
ENDMDL
MODEL 2
REMARK VINA RESULT: -8.072252961      3.674      9.764
REMARK  6 active torsions:
REMARK  status: ('A' for Active; 'I' for Inactive)
REMARK       I    between atoms: N1_2  and  C2_4 
REMARK       I    between atoms: C2_4  and  N2_6 
REMARK    1  A    between atoms: C8_12  and  C9_13 
REMARK    2  A    between atoms: C9_13  and  N3_14 
REMARK       I    between atoms: N3_14  and  C10_16 
REMARK       I    between atoms: N6_22  and  C11_23 
REMARK       I    between atoms: C11_23  and  N7_25 
REMARK    3  A    between atoms: N7_25  and  C12_27 
REMARK    4  A    between atoms: C12_27  and  C13_28 
REMARK    5  A    between atoms: C13_28  and  C14_29 
REMARK    6  A    between atoms: C14_29  and  C15_30 
ROOT
HETATM    1  C1  UNL     1      24.410  19.936  37.149  1.00  0.00     0.151 C 
HETATM    2  N1  UNL     1      24.273  19.180  35.928  1.00  0.00    -0.347 N 
ATOM      3  H1  UNL     1      23.751  19.578  35.148  1.00  0.00     0.163 HD
HETATM    4  C2  UNL     1      24.847  17.906  35.798  1.00  0.00     0.317 C 
HETATM    5  O1  UNL     1      25.490  17.435  36.782  1.00  0.00    -0.247 OA
HETATM    6  N2  UNL     1      24.721  17.136  34.589  1.00  0.00    -0.334 N 
HETATM    7  C3  UNL     1      25.361  15.827  34.560  1.00  0.00     0.129 C 
HETATM    8  C4  UNL     1      25.614  15.533  33.092  1.00  0.00     0.048 C 
HETATM    9  C5  UNL     1      24.272  15.425  32.439  1.00  0.00     0.127 C 
HETATM   10  C6  UNL     1      23.738  16.851  32.324  1.00  0.00     0.032 C 
HETATM   11  C7  UNL     1      22.257  16.775  32.005  1.00  0.00     0.044 C 
HETATM   12  C8  UNL     1      21.493  15.856  32.925  1.00  0.00     0.170 C 
HETATM   13  O2  UNL     1      22.354  15.286  33.871  1.00  0.00    -0.267 OA
HETATM   14  N6  UNL     1      23.309  14.652  33.160  1.00  0.00    -0.202 N 
HETATM   15  C11 UNL     1      23.328  13.234  33.128  1.00  0.00     0.342 C 
HETATM   16  O3  UNL     1      22.442  12.617  33.819  1.00  0.00    -0.245 OA
HETATM   17  N7  UNL     1      24.280  12.555  32.368  1.00  0.00    -0.341 N 
ATOM     18  H7  UNL     1      24.952  13.103  31.830  1.00  0.00     0.164 HD
HETATM   19  C20 UNL     1      23.987  17.704  33.511  1.00  0.00     0.134 C 
ENDROOT
BRANCH  12  20
HETATM   20  C9  UNL     1      20.358  16.609  33.541  1.00  0.00     0.156 C 
BRANCH  20  21
HETATM   21  N3  UNL     1      19.598  17.362  32.562  1.00  0.00    -0.362 N 
HETATM   22  C10 UNL     1      18.528  18.160  33.019  1.00  0.00     0.181 C 
HETATM   23  N4  UNL     1      18.666  18.859  34.080  1.00  0.00    -0.374 N 
HETATM   24  N5  UNL     1      17.313  18.182  32.303  1.00  0.00    -0.064 NA
ATOM     25  H42 UNL     1      19.546  18.843  34.598  1.00  0.00     0.158 HD
ATOM     26  H41 UNL     1      17.893  19.436  34.410  1.00  0.00     0.158 HD
ATOM     27  H3  UNL     1      19.831  17.315  31.570  1.00  0.00     0.162 HD
ENDBRANCH  20  21
ENDBRANCH  12  20
BRANCH  17  28
HETATM   28  C12 UNL     1      24.360  11.123  32.307  1.00  0.00     0.124 C 
BRANCH  28  29
HETATM   29  C13 UNL     1      25.540  10.628  33.069  1.00  0.00     0.020 C 
BRANCH  29  30
HETATM   30  C14 UNL     1      25.447   9.337  33.729  1.00  0.00     0.006 C 
BRANCH  30  31
HETATM   31  C15 UNL     1      25.040   8.085  33.141  1.00  0.00    -0.014 C 
HETATM   32  C16 UNL     1      25.627   7.679  31.829  1.00  0.00     0.004 C 
HETATM   33  C17 UNL     1      26.259   6.314  32.008  1.00  0.00     0.000 C 
HETATM   34  C18 UNL     1      26.368   6.170  33.498  1.00  0.00     0.000 C 
HETATM   35  C19 UNL     1      25.139   6.857  34.007  1.00  0.00     0.004 C 
ENDBRANCH  30  31
ENDBRANCH  29  30
ENDBRANCH  28  29
ENDBRANCH  17  28
TORSDOF 6
ENDMDL
MODEL 3
REMARK VINA RESULT: -7.831771519      3.213      9.414
REMARK  6 active torsions:
REMARK  status: ('A' for Active; 'I' for Inactive)
REMARK       I    between atoms: N1_2  and  C2_4 
REMARK       I    between atoms: C2_4  and  N2_6 
REMARK    1  A    between atoms: C8_12  and  C9_13 
REMARK    2  A    between atoms: C9_13  and  N3_14 
REMARK       I    between atoms: N3_14  and  C10_16 
REMARK       I    between atoms: N6_22  and  C11_23 
REMARK       I    between atoms: C11_23  and  N7_25 
REMARK    3  A    between atoms: N7_25  and  C12_27 
REMARK    4  A    between atoms: C12_27  and  C13_28 
REMARK    5  A    between atoms: C13_28  and  C14_29 
REMARK    6  A    between atoms: C14_29  and  C15_30 
ROOT
HETATM    1  C1  UNL     1      25.814  19.500  35.594  1.00  0.00     0.151 C 
HETATM    2  N1  UNL     1      25.591  18.533  34.547  1.00  0.00    -0.347 N 
ATOM      3  H1  UNL     1      25.214  18.842  33.651  1.00  0.00     0.163 HD
HETATM    4  C2  UNL     1      25.883  17.175  34.742  1.00  0.00     0.317 C 
HETATM    5  O1  UNL     1      26.349  16.818  35.864  1.00  0.00    -0.247 OA
HETATM    6  N2  UNL     1      25.666  16.195  33.711  1.00  0.00    -0.334 N 
HETATM    7  C3  UNL     1      26.008  14.812  34.020  1.00  0.00     0.129 C 
HETATM    8  C4  UNL     1      26.279  14.154  32.678  1.00  0.00     0.048 C 
HETATM    9  C5  UNL     1      24.986  14.171  31.924  1.00  0.00     0.127 C 
HETATM   10  C6  UNL     1      24.780  15.612  31.462  1.00  0.00     0.032 C 
HETATM   11  C7  UNL     1      23.340  15.762  31.012  1.00  0.00     0.044 C 
HETATM   12  C8  UNL     1      22.343  15.240  32.016  1.00  0.00     0.170 C 
HETATM   13  O2  UNL     1      23.002  14.737  33.145  1.00  0.00    -0.267 OA
HETATM   14  N6  UNL     1      23.838  13.784  32.684  1.00  0.00    -0.202 N 
HETATM   15  C11 UNL     1      23.553  12.420  32.946  1.00  0.00     0.342 C 
HETATM   16  O3  UNL     1      22.515  12.160  33.652  1.00  0.00    -0.245 OA
HETATM   17  N7  UNL     1      24.379  11.414  32.446  1.00  0.00    -0.341 N 
ATOM     18  H7  UNL     1      25.184  11.684  31.880  1.00  0.00     0.164 HD
HETATM   19  C20 UNL     1      25.137  16.642  32.468  1.00  0.00     0.134 C 
ENDROOT
BRANCH  12  20
HETATM   20  C9  UNL     1      21.362  16.321  32.342  1.00  0.00     0.156 C 
BRANCH  20  21
HETATM   21  N3  UNL     1      21.253  16.557  33.769  1.00  0.00    -0.362 N 
HETATM   22  C10 UNL     1      21.826  17.733  34.296  1.00  0.00     0.181 C 
HETATM   23  N4  UNL     1      21.692  18.840  33.670  1.00  0.00    -0.374 N 
HETATM   24  N5  UNL     1      22.545  17.682  35.508  1.00  0.00    -0.064 NA
ATOM     25  H42 UNL     1      21.172  18.876  32.793  1.00  0.00     0.158 HD
ATOM     26  H41 UNL     1      22.106  19.690  34.051  1.00  0.00     0.158 HD
ATOM     27  H3  UNL     1      20.776  15.889  34.375  1.00  0.00     0.162 HD
ENDBRANCH  20  21
ENDBRANCH  12  20
BRANCH  17  28
HETATM   28  C12 UNL     1      24.151  10.018  32.690  1.00  0.00     0.124 C 
BRANCH  28  29
HETATM   29  C13 UNL     1      24.567   9.203  31.514  1.00  0.00     0.020 C 
BRANCH  29  30
HETATM   30  C14 UNL     1      24.888   7.801  31.722  1.00  0.00     0.006 C 
BRANCH  30  31
HETATM   31  C15 UNL     1      25.989   7.263  32.481  1.00  0.00    -0.014 C 
HETATM   32  C16 UNL     1      25.696   6.411  33.672  1.00  0.00     0.004 C 
HETATM   33  C17 UNL     1      26.404   5.086  33.479  1.00  0.00     0.000 C 
HETATM   34  C18 UNL     1      26.736   5.076  32.014  1.00  0.00     0.000 C 
HETATM   35  C19 UNL     1      27.045   6.510  31.717  1.00  0.00     0.004 C 
ENDBRANCH  30  31
ENDBRANCH  29  30
ENDBRANCH  28  29
ENDBRANCH  17  28
TORSDOF 6
ENDMDL
MODEL 4
REMARK VINA RESULT: -7.740491219      3.212      8.107
REMARK  6 active torsions:
REMARK  status: ('A' for Active; 'I' for Inactive)
REMARK       I    between atoms: N1_2  and  C2_4 
REMARK       I    between atoms: C2_4  and  N2_6 
REMARK    1  A    between atoms: C8_12  and  C9_13 
REMARK    2  A    between atoms: C9_13  and  N3_14 
REMARK       I    between atoms: N3_14  and  C10_16 
REMARK       I    between atoms: N6_22  and  C11_23 
REMARK       I    between atoms: C11_23  and  N7_25 
REMARK    3  A    between atoms: N7_25  and  C12_27 
REMARK    4  A    between atoms: C12_27  and  C13_28 
REMARK    5  A    between atoms: C13_28  and  C14_29 
REMARK    6  A    between atoms: C14_29  and  C15_30 
ROOT
HETATM    1  C1  UNL     1      24.093  16.755  30.081  1.00  0.00     0.151 C 
HETATM    2  N1  UNL     1      24.829  15.721  30.768  1.00  0.00    -0.347 N 
ATOM      3  H1  UNL     1      25.845  15.788  30.834  1.00  0.00     0.163 HD
HETATM    4  C2  UNL     1      24.171  14.625  31.345  1.00  0.00     0.317 C 
HETATM    5  O1  UNL     1      22.909  14.566  31.248  1.00  0.00    -0.247 OA
HETATM    6  N2  UNL     1      24.886  13.584  32.032  1.00  0.00    -0.334 N 
HETATM    7  C3  UNL     1      24.102  12.494  32.598  1.00  0.00     0.129 C 
HETATM    8  C4  UNL     1      24.949  11.929  33.726  1.00  0.00     0.048 C 
HETATM    9  C5  UNL     1      26.178  11.356  33.093  1.00  0.00     0.127 C 
HETATM   10  C6  UNL     1      27.047  12.547  32.694  1.00  0.00     0.032 C 
HETATM   11  C7  UNL     1      28.119  12.051  31.742  1.00  0.00     0.044 C 
HETATM   12  C8  UNL     1      27.573  11.222  30.607  1.00  0.00     0.170 C 
HETATM   13  O2  UNL     1      26.180  11.111  30.707  1.00  0.00    -0.267 OA
HETATM   14  N6  UNL     1      25.944  10.571  31.920  1.00  0.00    -0.202 N 
HETATM   15  C11 UNL     1      25.486   9.232  32.009  1.00  0.00     0.342 C 
HETATM   16  O3  UNL     1      25.282   8.604  30.910  1.00  0.00    -0.245 OA
HETATM   17  N7  UNL     1      25.273   8.637  33.252  1.00  0.00    -0.341 N 
ATOM     18  H7  UNL     1      25.466   9.184  34.092  1.00  0.00     0.164 HD
HETATM   19  C20 UNL     1      26.303  13.690  32.113  1.00  0.00     0.134 C 
ENDROOT
BRANCH  12  20
HETATM   20  C9  UNL     1      28.024  11.809  29.308  1.00  0.00     0.156 C 
BRANCH  20  21
HETATM   21  N3  UNL     1      27.430  11.143  28.165  1.00  0.00    -0.362 N 
HETATM   22  C10 UNL     1      28.123  11.179  26.937  1.00  0.00     0.181 C 
HETATM   23  N4  UNL     1      29.391  11.009  26.919  1.00  0.00    -0.374 N 
HETATM   24  N5  UNL     1      27.417  11.406  25.737  1.00  0.00    -0.064 NA
ATOM     25  H42 UNL     1      29.901  10.844  27.787  1.00  0.00     0.158 HD
ATOM     26  H41 UNL     1      29.892  11.035  26.031  1.00  0.00     0.158 HD
ATOM     27  H3  UNL     1      26.534  10.661  28.246  1.00  0.00     0.162 HD
ENDBRANCH  20  21
ENDBRANCH  12  20
BRANCH  17  28
HETATM   28  C12 UNL     1      24.796   7.291  33.407  1.00  0.00     0.124 C 
BRANCH  28  29
HETATM   29  C13 UNL     1      25.624   6.550  34.399  1.00  0.00     0.020 C 
BRANCH  29  30
HETATM   30  C14 UNL     1      26.187   5.268  34.012  1.00  0.00     0.006 C 
BRANCH  30  31
HETATM   31  C15 UNL     1      27.178   5.023  32.995  1.00  0.00    -0.014 C 
HETATM   32  C16 UNL     1      26.769   5.074  31.559  1.00  0.00     0.004 C 
HETATM   33  C17 UNL     1      27.657   6.082  30.859  1.00  0.00     0.000 C 
HETATM   34  C18 UNL     1      28.263   6.860  31.992  1.00  0.00     0.000 C 
HETATM   35  C19 UNL     1      28.446   5.833  33.064  1.00  0.00     0.004 C 
ENDBRANCH  30  31
ENDBRANCH  29  30
ENDBRANCH  28  29
ENDBRANCH  17  28
TORSDOF 6
ENDMDL
MODEL 5
REMARK VINA RESULT: -7.715871892      3.803      9.262
REMARK  6 active torsions:
REMARK  status: ('A' for Active; 'I' for Inactive)
REMARK       I    between atoms: N1_2  and  C2_4 
REMARK       I    between atoms: C2_4  and  N2_6 
REMARK    1  A    between atoms: C8_12  and  C9_13 
REMARK    2  A    between atoms: C9_13  and  N3_14 
REMARK       I    between atoms: N3_14  and  C10_16 
REMARK       I    between atoms: N6_22  and  C11_23 
REMARK       I    between atoms: C11_23  and  N7_25 
REMARK    3  A    between atoms: N7_25  and  C12_27 
REMARK    4  A    between atoms: C12_27  and  C13_28 
REMARK    5  A    between atoms: C13_28  and  C14_29 
REMARK    6  A    between atoms: C14_29  and  C15_30 
ROOT
HETATM    1  C1  UNL     1      24.401  19.944  37.186  1.00  0.00     0.151 C 
HETATM    2  N1  UNL     1      24.259  19.202  35.957  1.00  0.00    -0.347 N 
ATOM      3  H1  UNL     1      23.722  19.603  35.188  1.00  0.00     0.163 HD
HETATM    4  C2  UNL     1      24.849  17.939  35.802  1.00  0.00     0.317 C 
HETATM    5  O1  UNL     1      25.511  17.464  36.772  1.00  0.00    -0.247 OA
HETATM    6  N2  UNL     1      24.719  17.182  34.585  1.00  0.00    -0.334 N 
HETATM    7  C3  UNL     1      25.376  15.883  34.532  1.00  0.00     0.129 C 
HETATM    8  C4  UNL     1      25.615  15.612  33.057  1.00  0.00     0.048 C 
HETATM    9  C5  UNL     1      24.267  15.493  32.418  1.00  0.00     0.127 C 
HETATM   10  C6  UNL     1      23.711  16.913  32.329  1.00  0.00     0.032 C 
HETATM   11  C7  UNL     1      22.228  16.821  32.027  1.00  0.00     0.044 C 
HETATM   12  C8  UNL     1      21.489  15.878  32.944  1.00  0.00     0.170 C 
HETATM   13  O2  UNL     1      22.369  15.309  33.873  1.00  0.00    -0.267 OA
HETATM   14  N6  UNL     1      23.324  14.697  33.141  1.00  0.00    -0.202 N 
HETATM   15  C11 UNL     1      23.362  13.280  33.091  1.00  0.00     0.342 C 
HETATM   16  O3  UNL     1      22.494  12.642  33.784  1.00  0.00    -0.245 OA
HETATM   17  N7  UNL     1      24.314  12.625  32.310  1.00  0.00    -0.341 N 
ATOM     18  H7  UNL     1      24.971  13.189  31.770  1.00  0.00     0.164 HD
HETATM   19  C20 UNL     1      23.963  17.754  33.524  1.00  0.00     0.134 C 
ENDROOT
BRANCH  12  20
HETATM   20  C9  UNL     1      20.351  16.607  33.585  1.00  0.00     0.156 C 
BRANCH  20  21
HETATM   21  N3  UNL     1      19.578  17.374  32.628  1.00  0.00    -0.362 N 
HETATM   22  C10 UNL     1      18.544  18.202  33.115  1.00  0.00     0.181 C 
HETATM   23  N4  UNL     1      18.736  18.903  34.167  1.00  0.00    -0.374 N 
HETATM   24  N5  UNL     1      17.306  18.251  32.441  1.00  0.00    -0.064 NA
ATOM     25  H42 UNL     1      19.632  18.867  34.654  1.00  0.00     0.158 HD
ATOM     26  H41 UNL     1      17.989  19.501  34.519  1.00  0.00     0.158 HD
ATOM     27  H3  UNL     1      19.775  17.317  31.628  1.00  0.00     0.162 HD
ENDBRANCH  20  21
ENDBRANCH  12  20
BRANCH  17  28
HETATM   28  C12 UNL     1      24.413  11.195  32.229  1.00  0.00     0.124 C 
BRANCH  28  29
HETATM   29  C13 UNL     1      25.778  10.739  32.613  1.00  0.00     0.020 C 
BRANCH  29  30
HETATM   30  C14 UNL     1      26.881  11.677  32.489  1.00  0.00     0.006 C 
BRANCH  30  31
HETATM   31  C15 UNL     1      27.629  11.990  31.298  1.00  0.00    -0.014 C 
HETATM   32  C16 UNL     1      27.478  11.113  30.098  1.00  0.00     0.004 C 
HETATM   33  C17 UNL     1      27.058  11.987  28.935  1.00  0.00     0.000 C 
HETATM   34  C18 UNL     1      26.593  13.252  29.597  1.00  0.00     0.000 C 
HETATM   35  C19 UNL     1      27.516  13.394  30.766  1.00  0.00     0.004 C 
ENDBRANCH  30  31
ENDBRANCH  29  30
ENDBRANCH  28  29
ENDBRANCH  17  28
TORSDOF 6
ENDMDL
