MODEL 1
REMARK VINA RESULT: -7.551548942      0.000      0.000
REMARK  7 active torsions:
REMARK  status: ('A' for Active; 'I' for Inactive)
REMARK    1  A    between atoms: C2_2  and  C3_3 
REMARK    2  A    between atoms: C3_3  and  N1_4 
REMARK    3  A    between atoms: C3_3  and  C19_27 
REMARK       I    between atoms: N1_4  and  C4_6 
REMARK       I    between atoms: C4_6  and  N2_8 
REMARK    4  A    between atoms: C7_11  and  N3_12 
REMARK    5  A    between atoms: C10_15  and  N4_16 
REMARK       I    between atoms: N4_16  and  C11_18 
REMARK    6  A    between atoms: C11_18  and  C12_20 
REMARK    7  A    between atoms: C20_30  and  N6_31 
ROOT
HETATM    1  N1  UNL     1      26.323  10.733  31.005  1.00  0.00    -0.328 N 
ATOM      2  H1  UNL     1      26.001  10.851  30.044  1.00  0.00     0.165 HD
HETATM    3  C4  UNL     1      26.797  11.854  31.726  1.00  0.00     0.319 C 
HETATM    4  O1  UNL     1      27.205  11.725  32.932  1.00  0.00    -0.247 OA
HETATM    5  N2  UNL     1      26.833  13.128  31.149  1.00  0.00    -0.334 N 
HETATM    6  C5  UNL     1      26.415  13.466  29.814  1.00  0.00     0.129 C 
HETATM    7  C6  UNL     1      25.235  14.447  29.901  1.00  0.00     0.056 C 
HETATM    8  C7  UNL     1      25.596  15.561  30.858  1.00  0.00     0.226 C 
HETATM    9  C17 UNL     1      27.064  15.514  31.218  1.00  0.00     0.056 C 
HETATM   10  C18 UNL     1      27.338  14.234  31.954  1.00  0.00     0.129 C 
ENDROOT
BRANCH   1  11
HETATM   11  C3  UNL     1      26.289   9.396  31.624  1.00  0.00     0.178 C 
BRANCH  11  12
HETATM   12  C2  UNL     1      24.899   8.942  31.740  1.00  0.00    -0.004 C 
HETATM   13  C1  UNL     1      24.455   8.207  32.738  1.00  0.00     0.009 C 
ENDBRANCH  11  12
BRANCH  11  14
HETATM   14  C19 UNL     1      27.134   8.492  30.813  1.00  0.00     0.139 A 
HETATM   15  N5  UNL     1      26.696   7.598  29.909  1.00  0.00    -0.176 N 
HETATM   16  C20 UNL     1      27.745   6.937  29.353  1.00  0.00     0.692 A 
ATOM     17  H5  UNL     1      25.716   7.439  29.675  1.00  0.00     0.185 HD
HETATM   18  N7  UNL     1      28.836   7.450  29.939  1.00  0.00    -0.131 N 
HETATM   19  N8  UNL     1      28.469   8.376  30.807  1.00  0.00    -0.272 N 
ATOM     20  H7  UNL     1      29.798   7.170  29.746  1.00  0.00     0.205 HD
ATOM     21  H8  UNL     1      29.107   8.921  31.387  1.00  0.00     0.189 HD
BRANCH  16  22
HETATM   22  N6  UNL     1      27.696   6.011  28.451  1.00  0.00    -0.233 N 
ATOM     23  H62 UNL     1      26.864   5.594  28.032  1.00  0.00     0.174 HD
ATOM     24  H61 UNL     1      28.484   5.541  28.006  1.00  0.00     0.174 HD
ENDBRANCH  16  22
ENDBRANCH  11  14
ENDBRANCH   1  11
BRANCH   8  25
HETATM   25  N3  UNL     1      24.835  15.473  32.091  1.00  0.00     0.095 N 
HETATM   26  C8  UNL     1      23.681  14.599  31.922  1.00  0.00     0.275 C 
HETATM   27  C9  UNL     1      22.803  14.994  33.079  1.00  0.00     0.057 C 
HETATM   28  C10 UNL     1      23.029  16.475  33.206  1.00  0.00     0.114 C 
HETATM   29  C16 UNL     1      24.235  16.795  32.340  1.00  0.00     0.298 C 
BRANCH  28  30
HETATM   30  N4  UNL     1      21.823  17.144  32.698  1.00  0.00    -0.354 N 
HETATM   31  C11 UNL     1      20.934  17.738  33.604  1.00  0.00     0.222 C 
HETATM   32  O2  UNL     1      21.169  17.698  34.843  1.00  0.00    -0.273 OA
ATOM     33  H4  UNL     1      21.635  17.175  31.696  1.00  0.00     0.162 HD
BRANCH  31  34
HETATM   34  C12 UNL     1      19.719  18.414  33.098  1.00  0.00     0.078 C 
HETATM   35  C13 UNL     1      18.416  17.676  33.320  1.00  0.00     0.014 C 
HETATM   36  C14 UNL     1      17.781  19.048  33.591  1.00  0.00     0.002 C 
HETATM   37  C15 UNL     1      19.176  19.480  34.060  1.00  0.00     0.014 C 
ENDBRANCH  31  34
ENDBRANCH  28  30
ENDBRANCH   8  25
TORSDOF 7
ENDMDL
MODEL 2
REMARK VINA RESULT: -7.319896938      3.281     10.203
REMARK  7 active torsions:
REMARK  status: ('A' for Active; 'I' for Inactive)
REMARK    1  A    between atoms: C2_2  and  C3_3 
REMARK    2  A    between atoms: C3_3  and  N1_4 
REMARK    3  A    between atoms: C3_3  and  C19_27 
REMARK       I    between atoms: N1_4  and  C4_6 
REMARK       I    between atoms: C4_6  and  N2_8 
REMARK    4  A    between atoms: C7_11  and  N3_12 
REMARK    5  A    between atoms: C10_15  and  N4_16 
REMARK       I    between atoms: N4_16  and  C11_18 
REMARK    6  A    between atoms: C11_18  and  C12_20 
REMARK    7  A    between atoms: C20_30  and  N6_31 
ROOT
HETATM    1  N1  UNL     1      21.113  17.623  33.664  1.00  0.00    -0.328 N 
ATOM      2  H1  UNL     1      21.211  17.606  34.680  1.00  0.00     0.165 HD
HETATM    3  C4  UNL     1      22.270  17.704  32.853  1.00  0.00     0.319 C 
HETATM    4  O1  UNL     1      22.168  17.727  31.577  1.00  0.00    -0.247 OA
HETATM    5  N2  UNL     1      23.550  17.760  33.414  1.00  0.00    -0.334 N 
HETATM    6  C5  UNL     1      23.861  17.743  34.820  1.00  0.00     0.129 C 
HETATM    7  C6  UNL     1      24.686  16.483  35.125  1.00  0.00     0.056 C 
HETATM    8  C7  UNL     1      25.817  16.385  34.126  1.00  0.00     0.226 C 
HETATM    9  C17 UNL     1      25.945  17.660  33.323  1.00  0.00     0.056 C 
HETATM   10  C18 UNL     1      24.693  17.847  32.513  1.00  0.00     0.129 C 
ENDROOT
BRANCH   1  11
HETATM   11  C3  UNL     1      19.770  17.563  33.060  1.00  0.00     0.178 C 
BRANCH  11  12
HETATM   12  C2  UNL     1      19.116  16.306  33.439  1.00  0.00    -0.004 C 
HETATM   13  C1  UNL     1      19.585  15.117  33.121  1.00  0.00     0.009 C 
ENDBRANCH  11  12
BRANCH  11  14
HETATM   14  C19 UNL     1      19.020  18.765  33.488  1.00  0.00     0.139 A 
HETATM   15  N5  UNL     1      19.543  19.978  33.734  1.00  0.00    -0.176 N 
HETATM   16  C20 UNL     1      18.567  20.846  34.108  1.00  0.00     0.692 A 
ATOM     17  H5  UNL     1      20.532  20.214  33.651  1.00  0.00     0.185 HD
HETATM   18  N7  UNL     1      17.432  20.132  34.083  1.00  0.00    -0.131 N 
HETATM   19  N8  UNL     1      17.706  18.893  33.713  1.00  0.00    -0.272 N 
ATOM     20  H7  UNL     1      16.504  20.488  34.314  1.00  0.00     0.205 HD
ATOM     21  H8  UNL     1      17.018  18.146  33.614  1.00  0.00     0.189 HD
BRANCH  16  22
HETATM   22  N6  UNL     1      18.707  22.094  34.419  1.00  0.00    -0.233 N 
ATOM     23  H62 UNL     1      18.846  22.882  33.786  1.00  0.00     0.174 HD
ATOM     24  H61 UNL     1      18.702  22.500  35.354  1.00  0.00     0.174 HD
ENDBRANCH  16  22
ENDBRANCH  11  14
ENDBRANCH   1  11
BRANCH   8  25
HETATM   25  N3  UNL     1      25.609  15.294  33.192  1.00  0.00     0.095 N 
HETATM   26  C8  UNL     1      24.345  14.620  33.460  1.00  0.00     0.275 C 
HETATM   27  C9  UNL     1      24.523  13.302  32.755  1.00  0.00     0.057 C 
HETATM   28  C10 UNL     1      25.980  12.987  32.956  1.00  0.00     0.114 C 
HETATM   29  C16 UNL     1      26.619  14.261  33.482  1.00  0.00     0.298 C 
BRANCH  28  30
HETATM   30  N4  UNL     1      26.058  11.909  33.951  1.00  0.00    -0.354 N 
HETATM   31  C11 UNL     1      26.055  10.575  33.520  1.00  0.00     0.222 C 
HETATM   32  O2  UNL     1      25.987  10.306  32.289  1.00  0.00    -0.273 OA
ATOM     33  H4  UNL     1      26.113  12.128  34.946  1.00  0.00     0.162 HD
BRANCH  31  34
HETATM   34  C12 UNL     1      26.135   9.485  34.517  1.00  0.00     0.078 C 
HETATM   35  C13 UNL     1      24.808   8.925  34.986  1.00  0.00     0.014 C 
HETATM   36  C14 UNL     1      25.486   7.547  34.992  1.00  0.00     0.002 C 
HETATM   37  C15 UNL     1      26.392   8.108  33.888  1.00  0.00     0.014 C 
ENDBRANCH  31  34
ENDBRANCH  28  30
ENDBRANCH   8  25
TORSDOF 7
ENDMDL
MODEL 3
REMARK VINA RESULT: -7.250488804      2.889     10.255
REMARK  7 active torsions:
REMARK  status: ('A' for Active; 'I' for Inactive)
REMARK    1  A    between atoms: C2_2  and  C3_3 
REMARK    2  A    between atoms: C3_3  and  N1_4 
REMARK    3  A    between atoms: C3_3  and  C19_27 
REMARK       I    between atoms: N1_4  and  C4_6 
REMARK       I    between atoms: C4_6  and  N2_8 
REMARK    4  A    between atoms: C7_11  and  N3_12 
REMARK    5  A    between atoms: C10_15  and  N4_16 
REMARK       I    between atoms: N4_16  and  C11_18 
REMARK    6  A    between atoms: C11_18  and  C12_20 
REMARK    7  A    between atoms: C20_30  and  N6_31 
ROOT
HETATM    1  N1  UNL     1      21.302  17.436  33.334  1.00  0.00    -0.328 N 
ATOM      2  H1  UNL     1      21.605  17.538  34.303  1.00  0.00     0.165 HD
HETATM    3  C4  UNL     1      22.252  17.117  32.335  1.00  0.00     0.319 C 
HETATM    4  O1  UNL     1      21.892  16.986  31.114  1.00  0.00    -0.247 OA
HETATM    5  N2  UNL     1      23.603  16.935  32.648  1.00  0.00    -0.334 N 
HETATM    6  C5  UNL     1      24.192  17.038  33.958  1.00  0.00     0.129 C 
HETATM    7  C6  UNL     1      24.773  15.668  34.345  1.00  0.00     0.056 C 
HETATM    8  C7  UNL     1      25.621  15.157  33.202  1.00  0.00     0.226 C 
HETATM    9  C17 UNL     1      25.847  16.237  32.167  1.00  0.00     0.056 C 
HETATM   10  C18 UNL     1      24.523  16.611  31.564  1.00  0.00     0.129 C 
ENDROOT
BRANCH   1  11
HETATM   11  C3  UNL     1      19.881  17.625  32.992  1.00  0.00     0.178 C 
BRANCH  11  12
HETATM   12  C2  UNL     1      19.124  16.421  33.350  1.00  0.00    -0.004 C 
HETATM   13  C1  UNL     1      19.612  15.201  33.258  1.00  0.00     0.009 C 
ENDBRANCH  11  12
BRANCH  11  14
HETATM   14  C19 UNL     1      19.400  18.844  33.679  1.00  0.00     0.139 A 
HETATM   15  N5  UNL     1      18.839  19.915  33.091  1.00  0.00    -0.176 N 
HETATM   16  C20 UNL     1      18.519  20.851  34.023  1.00  0.00     0.692 A 
ATOM     17  H5  UNL     1      18.677  20.011  32.089  1.00  0.00     0.185 HD
HETATM   18  N7  UNL     1      18.898  20.324  35.196  1.00  0.00    -0.131 N 
HETATM   19  N8  UNL     1      19.422  19.129  34.988  1.00  0.00    -0.272 N 
ATOM     20  H7  UNL     1      18.798  20.775  36.106  1.00  0.00     0.205 HD
ATOM     21  H8  UNL     1      19.788  18.515  35.716  1.00  0.00     0.189 HD
BRANCH  16  22
HETATM   22  N6  UNL     1      17.966  22.002  33.817  1.00  0.00    -0.233 N 
ATOM     23  H62 UNL     1      17.704  22.415  32.921  1.00  0.00     0.174 HD
ATOM     24  H61 UNL     1      17.700  22.693  34.518  1.00  0.00     0.174 HD
ENDBRANCH  16  22
ENDBRANCH  11  14
ENDBRANCH   1  11
BRANCH   8  25
HETATM   25  N3  UNL     1      24.993  14.032  32.534  1.00  0.00     0.095 N 
HETATM   26  C8  UNL     1      23.919  13.482  33.352  1.00  0.00     0.275 C 
HETATM   27  C9  UNL     1      23.726  12.113  32.757  1.00  0.00     0.057 C 
HETATM   28  C10 UNL     1      25.119  11.692  32.377  1.00  0.00     0.114 C 
HETATM   29  C16 UNL     1      25.981  12.939  32.480  1.00  0.00     0.298 C 
BRANCH  28  30
HETATM   30  N4  UNL     1      25.546  10.674  33.346  1.00  0.00    -0.354 N 
HETATM   31  C11 UNL     1      25.480   9.320  32.994  1.00  0.00     0.222 C 
HETATM   32  O2  UNL     1      25.058   8.980  31.854  1.00  0.00    -0.273 OA
ATOM     33  H4  UNL     1      25.886  10.951  34.267  1.00  0.00     0.162 HD
BRANCH  31  34
HETATM   34  C12 UNL     1      25.910   8.291  33.966  1.00  0.00     0.078 C 
HETATM   35  C13 UNL     1      24.965   8.046  35.125  1.00  0.00     0.014 C 
HETATM   36  C14 UNL     1      25.327   6.558  34.997  1.00  0.00     0.002 C 
HETATM   37  C15 UNL     1      25.584   6.859  33.515  1.00  0.00     0.014 C 
ENDBRANCH  31  34
ENDBRANCH  28  30
ENDBRANCH   8  25
TORSDOF 7
ENDMDL
MODEL 4
REMARK VINA RESULT: -7.189818013      2.578     10.220
REMARK  7 active torsions:
REMARK  status: ('A' for Active; 'I' for Inactive)
REMARK    1  A    between atoms: C2_2  and  C3_3 
REMARK    2  A    between atoms: C3_3  and  N1_4 
REMARK    3  A    between atoms: C3_3  and  C19_27 
REMARK       I    between atoms: N1_4  and  C4_6 
REMARK       I    between atoms: C4_6  and  N2_8 
REMARK    4  A    between atoms: C7_11  and  N3_12 
REMARK    5  A    between atoms: C10_15  and  N4_16 
REMARK       I    between atoms: N4_16  and  C11_18 
REMARK    6  A    between atoms: C11_18  and  C12_20 
REMARK    7  A    between atoms: C20_30  and  N6_31 
ROOT
HETATM    1  N1  UNL     1      21.908  16.537  32.678  1.00  0.00    -0.328 N 
ATOM      2  H1  UNL     1      22.145  16.622  33.666  1.00  0.00     0.165 HD
HETATM    3  C4  UNL     1      22.888  16.091  31.760  1.00  0.00     0.319 C 
HETATM    4  O1  UNL     1      22.611  15.978  30.516  1.00  0.00    -0.247 OA
HETATM    5  N2  UNL     1      24.182  15.762  32.180  1.00  0.00    -0.334 N 
HETATM    6  C5  UNL     1      24.676  15.823  33.531  1.00  0.00     0.129 C 
HETATM    7  C6  UNL     1      25.064  14.404  33.977  1.00  0.00     0.056 C 
HETATM    8  C7  UNL     1      25.933  13.777  32.910  1.00  0.00     0.226 C 
HETATM    9  C17 UNL     1      26.361  14.803  31.885  1.00  0.00     0.056 C 
HETATM   10  C18 UNL     1      25.139  15.314  31.175  1.00  0.00     0.129 C 
ENDROOT
BRANCH   1  11
HETATM   11  C3  UNL     1      20.549  16.880  32.222  1.00  0.00     0.178 C 
BRANCH  11  12
HETATM   12  C2  UNL     1      19.700  15.684  32.264  1.00  0.00    -0.004 C 
HETATM   13  C1  UNL     1      19.341  15.084  33.380  1.00  0.00     0.009 C 
ENDBRANCH  11  12
BRANCH  11  14
HETATM   14  C19 UNL     1      20.045  17.984  33.069  1.00  0.00     0.139 A 
HETATM   15  N5  UNL     1      18.801  18.492  33.048  1.00  0.00    -0.176 N 
HETATM   16  C20 UNL     1      18.687  19.498  33.956  1.00  0.00     0.692 A 
ATOM     17  H5  UNL     1      18.050  18.170  32.438  1.00  0.00     0.185 HD
HETATM   18  N7  UNL     1      19.894  19.590  34.533  1.00  0.00    -0.131 N 
HETATM   19  N8  UNL     1      20.700  18.687  34.003  1.00  0.00    -0.272 N 
ATOM     20  H7  UNL     1      20.150  20.252  35.265  1.00  0.00     0.205 HD
ATOM     21  H8  UNL     1      21.675  18.546  34.266  1.00  0.00     0.189 HD
BRANCH  16  22
HETATM   22  N6  UNL     1      17.637  20.210  34.205  1.00  0.00    -0.233 N 
ATOM     23  H62 UNL     1      17.265  20.985  33.655  1.00  0.00     0.174 HD
ATOM     24  H61 UNL     1      17.002  20.116  34.998  1.00  0.00     0.174 HD
ENDBRANCH  16  22
ENDBRANCH  11  14
ENDBRANCH   1  11
BRANCH   8  25
HETATM   25  N3  UNL     1      25.232  12.718  32.208  1.00  0.00     0.095 N 
HETATM   26  C8  UNL     1      24.252  12.083  33.080  1.00  0.00     0.275 C 
HETATM   27  C9  UNL     1      23.991  10.777  32.379  1.00  0.00     0.057 C 
HETATM   28  C10 UNL     1      25.332  10.406  31.810  1.00  0.00     0.114 C 
HETATM   29  C16 UNL     1      26.204  11.643  31.940  1.00  0.00     0.298 C 
BRANCH  28  30
HETATM   30  N4  UNL     1      25.859   9.301  32.623  1.00  0.00    -0.354 N 
HETATM   31  C11 UNL     1      26.236   8.106  31.996  1.00  0.00     0.222 C 
HETATM   32  O2  UNL     1      26.124   7.982  30.745  1.00  0.00    -0.273 OA
ATOM     33  H4  UNL     1      25.949   9.403  33.634  1.00  0.00     0.162 HD
BRANCH  31  34
HETATM   34  C12 UNL     1      26.768   6.991  32.810  1.00  0.00     0.078 C 
HETATM   35  C13 UNL     1      25.788   6.355  33.774  1.00  0.00     0.014 C 
HETATM   36  C14 UNL     1      26.443   5.011  33.423  1.00  0.00     0.002 C 
HETATM   37  C15 UNL     1      26.771   5.647  32.066  1.00  0.00     0.014 C 
ENDBRANCH  31  34
ENDBRANCH  28  30
ENDBRANCH   8  25
TORSDOF 7
ENDMDL
MODEL 5
REMARK VINA RESULT: -7.149383476      2.446     10.075
REMARK  7 active torsions:
REMARK  status: ('A' for Active; 'I' for Inactive)
REMARK    1  A    between atoms: C2_2  and  C3_3 
REMARK    2  A    between atoms: C3_3  and  N1_4 
REMARK    3  A    between atoms: C3_3  and  C19_27 
REMARK       I    between atoms: N1_4  and  C4_6 
REMARK       I    between atoms: C4_6  and  N2_8 
REMARK    4  A    between atoms: C7_11  and  N3_12 
REMARK    5  A    between atoms: C10_15  and  N4_16 
REMARK       I    between atoms: N4_16  and  C11_18 
REMARK    6  A    between atoms: C11_18  and  C12_20 
REMARK    7  A    between atoms: C20_30  and  N6_31 
ROOT
HETATM    1  N1  UNL     1      21.899  17.064  33.156  1.00  0.00    -0.328 N 
ATOM      2  H1  UNL     1      21.919  16.639  34.084  1.00  0.00     0.165 HD
HETATM    3  C4  UNL     1      23.111  17.460  32.543  1.00  0.00     0.319 C 
HETATM    4  O1  UNL     1      23.107  17.993  31.381  1.00  0.00    -0.247 OA
HETATM    5  N2  UNL     1      24.343  17.281  33.183  1.00  0.00    -0.334 N 
HETATM    6  C5  UNL     1      24.545  16.699  34.484  1.00  0.00     0.129 C 
HETATM    7  C6  UNL     1      25.382  15.419  34.326  1.00  0.00     0.056 C 
HETATM    8  C7  UNL     1      26.588  15.727  33.467  1.00  0.00     0.226 C 
HETATM    9  C17 UNL     1      26.739  17.216  33.256  1.00  0.00     0.056 C 
HETATM   10  C18 UNL     1      25.548  17.718  32.489  1.00  0.00     0.129 C 
ENDROOT
BRANCH   1  11
HETATM   11  C3  UNL     1      20.608  17.257  32.472  1.00  0.00     0.178 C 
BRANCH  11  12
HETATM   12  C2  UNL     1      19.943  15.960  32.302  1.00  0.00    -0.004 C 
HETATM   13  C1  UNL     1      19.546  15.209  33.308  1.00  0.00     0.009 C 
ENDBRANCH  11  12
BRANCH  11  14
HETATM   14  C19 UNL     1      19.811  18.225  33.257  1.00  0.00     0.139 A 
HETATM   15  N5  UNL     1      18.522  18.541  33.049  1.00  0.00    -0.176 N 
HETATM   16  C20 UNL     1      18.110  19.466  33.955  1.00  0.00     0.692 A 
ATOM     17  H5  UNL     1      17.935  18.142  32.316  1.00  0.00     0.185 HD
HETATM   18  N7  UNL     1      19.182  19.708  34.724  1.00  0.00    -0.131 N 
HETATM   19  N8  UNL     1      20.193  18.966  34.306  1.00  0.00    -0.272 N 
ATOM     20  H7  UNL     1      19.213  20.360  35.507  1.00  0.00     0.205 HD
ATOM     21  H8  UNL     1      21.125  18.960  34.720  1.00  0.00     0.189 HD
BRANCH  16  22
HETATM   22  N6  UNL     1      16.935  19.998  34.052  1.00  0.00    -0.233 N 
ATOM     23  H62 UNL     1      16.069  19.545  34.344  1.00  0.00     0.174 HD
ATOM     24  H61 UNL     1      16.677  20.963  33.850  1.00  0.00     0.174 HD
ENDBRANCH  16  22
ENDBRANCH  11  14
ENDBRANCH   1  11
BRANCH   8  25
HETATM   25  N3  UNL     1      26.485  15.104  32.160  1.00  0.00     0.095 N 
HETATM   26  C8  UNL     1      25.267  14.309  32.064  1.00  0.00     0.275 C 
HETATM   27  C9  UNL     1      25.559  13.407  30.894  1.00  0.00     0.057 C 
HETATM   28  C10 UNL     1      27.030  13.121  31.027  1.00  0.00     0.114 C 
HETATM   29  C16 UNL     1      27.561  14.103  32.058  1.00  0.00     0.298 C 
BRANCH  28  30
HETATM   30  N4  UNL     1      27.163  11.737  31.500  1.00  0.00    -0.354 N 
HETATM   31  C11 UNL     1      27.295  10.701  30.564  1.00  0.00     0.222 C 
HETATM   32  O2  UNL     1      27.300  10.958  29.329  1.00  0.00    -0.273 OA
ATOM     33  H4  UNL     1      27.158  11.531  32.499  1.00  0.00     0.162 HD
BRANCH  31  34
HETATM   34  C12 UNL     1      27.430   9.305  31.035  1.00  0.00     0.078 C 
HETATM   35  C13 UNL     1      26.199   8.436  30.877  1.00  0.00     0.014 C 
HETATM   36  C14 UNL     1      27.157   7.290  30.518  1.00  0.00     0.002 C 
HETATM   37  C15 UNL     1      28.103   8.384  30.007  1.00  0.00     0.014 C 
ENDBRANCH  31  34
ENDBRANCH  28  30
ENDBRANCH   8  25
TORSDOF 7
ENDMDL
