MODEL 1
REMARK VINA RESULT: -7.797790780      0.000      0.000
REMARK  7 active torsions:
REMARK  status: ('A' for Active; 'I' for Inactive)
REMARK    1  A    between atoms: C2_2  and  C3_3 
REMARK    2  A    between atoms: C4_4  and  N1_5 
REMARK       I    between atoms: N1_5  and  C5_7 
REMARK    3  A    between atoms: C5_7  and  C6_9 
REMARK    4  A    between atoms: C6_9  and  N2_10 
REMARK       I    between atoms: N2_10  and  C7_12 
REMARK    5  A    between atoms: C7_12  and  C8_14 
REMARK    6  A    between atoms: C8_14  and  N3_15 
REMARK    7  A    between atoms: C15_27  and  O3_28 
ROOT
HETATM    1  C3  UNL     1      23.560  17.192  31.056  1.00  0.00     0.015 C 
HETATM    2  C4  UNL     1      22.752  16.483  32.144  1.00  0.00     0.093 C 
HETATM    3  C9  UNL     1      23.744  17.148  33.116  1.00  0.00     0.016 C 
HETATM    4  C10 UNL     1      23.983  16.310  34.298  1.00  0.00     0.014 C 
HETATM    5  C11 UNL     1      25.282  16.625  35.041  1.00  0.00     0.013 C 
HETATM    6  C12 UNL     1      25.468  18.105  35.253  1.00  0.00     0.077 C 
HETATM    7  C13 UNL     1      24.198  18.782  35.696  1.00  0.00     0.032 C 
HETATM    8  N4  UNL     1      26.098  18.790  34.199  1.00  0.00    -0.410 N 
ATOM      9  H4  UNL     1      26.139  19.809  34.211  1.00  0.00     0.154 HD
HETATM   10  C14 UNL     1      26.669  18.090  33.137  1.00  0.00     0.110 C 
HETATM   11  C15 UNL     1      25.683  18.129  31.957  1.00  0.00     0.145 C 
HETATM   12  C16 UNL     1      24.754  16.974  32.000  1.00  0.00     0.028 C 
HETATM   13  C17 UNL     1      27.120  16.713  33.327  1.00  0.00     0.019 C 
HETATM   14  C18 UNL     1      28.578  16.537  33.733  1.00  0.00    -0.008 C 
HETATM   15  C19 UNL     1      28.913  17.190  35.033  1.00  0.00     0.005 C 
HETATM   16  C20 UNL     1      28.301  16.274  36.060  1.00  0.00     0.005 C 
HETATM   17  C21 UNL     1      27.454  15.327  35.282  1.00  0.00    -0.009 C 
HETATM   18  C22 UNL     1      28.501  15.054  34.165  1.00  0.00     0.010 C 
HETATM   19  C23 UNL     1      26.403  15.932  34.398  1.00  0.00     0.002 C 
ENDROOT
BRANCH   2  20
HETATM   20  N1  UNL     1      21.407  16.945  32.284  1.00  0.00    -0.354 N 
HETATM   21  C5  UNL     1      20.469  16.124  32.970  1.00  0.00     0.235 C 
HETATM   22  O1  UNL     1      20.779  15.011  33.457  1.00  0.00    -0.272 OA
ATOM     23  H1  UNL     1      21.124  17.847  31.898  1.00  0.00     0.162 HD
BRANCH  21  24
HETATM   24  C6  UNL     1      19.070  16.598  33.120  1.00  0.00     0.225 C 
BRANCH  24  25
HETATM   25  N2  UNL     1      19.032  17.933  33.673  1.00  0.00    -0.351 N 
HETATM   26  C7  UNL     1      18.072  18.849  33.195  1.00  0.00     0.243 C 
HETATM   27  O2  UNL     1      17.274  18.500  32.309  1.00  0.00    -0.272 OA
ATOM     28  H2  UNL     1      19.692  18.209  34.399  1.00  0.00     0.163 HD
BRANCH  26  29
HETATM   29  C8  UNL     1      17.965  20.242  33.710  1.00  0.00     0.332 C 
BRANCH  29  30
HETATM   30  N3  UNL     1      18.774  20.345  34.909  1.00  0.00    -0.071 N 
ATOM     31  H33 UNL     1      18.554  19.623  35.595  1.00  0.00     0.274 HD
ATOM     32  H32 UNL     1      19.748  20.091  34.748  1.00  0.00     0.274 HD
ATOM     33  H31 UNL     1      18.670  21.289  35.283  1.00  0.00     0.274 HD
ENDBRANCH  29  30
ENDBRANCH  26  29
ENDBRANCH  24  25
ENDBRANCH  21  24
ENDBRANCH   2  20
BRANCH   1  34
HETATM   34  C2  UNL     1      23.649  16.403  29.769  1.00  0.00     0.002 C 
HETATM   35  C1  UNL     1      24.421  15.125  30.062  1.00  0.00     0.005 C 
ENDBRANCH   1  34
BRANCH  11  36
HETATM   36  O3  UNL     1      26.374  18.241  30.753  1.00  0.00    -0.393 OA
ATOM     37  H3  UNL     1      27.048  18.907  30.820  1.00  0.00     0.210 HD
ENDBRANCH  11  36
TORSDOF 7
ENDMDL
MODEL 2
REMARK VINA RESULT: -7.741749812      1.936      2.532
REMARK  7 active torsions:
REMARK  status: ('A' for Active; 'I' for Inactive)
REMARK    1  A    between atoms: C2_2  and  C3_3 
REMARK    2  A    between atoms: C4_4  and  N1_5 
REMARK       I    between atoms: N1_5  and  C5_7 
REMARK    3  A    between atoms: C5_7  and  C6_9 
REMARK    4  A    between atoms: C6_9  and  N2_10 
REMARK       I    between atoms: N2_10  and  C7_12 
REMARK    5  A    between atoms: C7_12  and  C8_14 
REMARK    6  A    between atoms: C8_14  and  N3_15 
REMARK    7  A    between atoms: C15_27  and  O3_28 
ROOT
HETATM    1  C3  UNL     1      23.792  17.223  30.408  1.00  0.00     0.015 C 
HETATM    2  C4  UNL     1      23.667  16.978  31.913  1.00  0.00     0.093 C 
HETATM    3  C9  UNL     1      24.694  18.119  32.041  1.00  0.00     0.016 C 
HETATM    4  C10 UNL     1      25.571  17.926  33.203  1.00  0.00     0.014 C 
HETATM    5  C11 UNL     1      26.893  18.691  33.128  1.00  0.00     0.013 C 
HETATM    6  C12 UNL     1      26.696  20.122  32.701  1.00  0.00     0.077 C 
HETATM    7  C13 UNL     1      25.525  20.768  33.393  1.00  0.00     0.032 C 
HETATM    8  N4  UNL     1      26.681  20.339  31.312  1.00  0.00    -0.410 N 
ATOM      9  H4  UNL     1      26.420  21.255  30.947  1.00  0.00     0.154 HD
HETATM   10  C14 UNL     1      27.020  19.316  30.429  1.00  0.00     0.110 C 
HETATM   11  C15 UNL     1      25.718  18.710  29.880  1.00  0.00     0.145 C 
HETATM   12  C16 UNL     1      25.249  17.591  30.734  1.00  0.00     0.028 C 
HETATM   13  C17 UNL     1      27.895  18.230  30.868  1.00  0.00     0.019 C 
HETATM   14  C18 UNL     1      29.384  18.429  30.617  1.00  0.00    -0.008 C 
HETATM   15  C19 UNL     1      29.947  19.625  31.311  1.00  0.00     0.005 C 
HETATM   16  C20 UNL     1      30.037  19.191  32.750  1.00  0.00     0.005 C 
HETATM   17  C21 UNL     1      29.291  17.904  32.818  1.00  0.00    -0.009 C 
HETATM   18  C22 UNL     1      29.906  17.293  31.528  1.00  0.00     0.010 C 
HETATM   19  C23 UNL     1      27.867  17.924  32.343  1.00  0.00     0.002 C 
ENDROOT
BRANCH   2  20
HETATM   20  N1  UNL     1      22.385  17.290  32.464  1.00  0.00    -0.354 N 
HETATM   21  C5  UNL     1      21.523  16.221  32.836  1.00  0.00     0.235 C 
HETATM   22  O1  UNL     1      21.846  15.017  32.699  1.00  0.00    -0.272 OA
ATOM     23  H1  UNL     1      22.094  18.259  32.587  1.00  0.00     0.162 HD
BRANCH  21  24
HETATM   24  C6  UNL     1      20.189  16.536  33.408  1.00  0.00     0.225 C 
BRANCH  24  25
HETATM   25  N2  UNL     1      20.009  17.964  33.542  1.00  0.00    -0.351 N 
HETATM   26  C7  UNL     1      18.712  18.507  33.435  1.00  0.00     0.243 C 
HETATM   27  O2  UNL     1      17.744  17.756  33.228  1.00  0.00    -0.272 OA
ATOM     28  H2  UNL     1      20.810  18.572  33.710  1.00  0.00     0.163 HD
BRANCH  26  29
HETATM   29  C8  UNL     1      18.438  19.965  33.560  1.00  0.00     0.332 C 
BRANCH  29  30
HETATM   30  N3  UNL     1      18.774  20.375  34.909  1.00  0.00    -0.071 N 
ATOM     31  H33 UNL     1      17.950  20.569  35.477  1.00  0.00     0.274 HD
ATOM     32  H32 UNL     1      19.152  19.611  35.469  1.00  0.00     0.274 HD
ATOM     33  H31 UNL     1      19.408  21.172  34.851  1.00  0.00     0.274 HD
ENDBRANCH  29  30
ENDBRANCH  26  29
ENDBRANCH  24  25
ENDBRANCH  21  24
ENDBRANCH   2  20
BRANCH   1  34
HETATM   34  C2  UNL     1      23.650  15.964  29.585  1.00  0.00     0.002 C 
HETATM   35  C1  UNL     1      24.730  14.991  30.037  1.00  0.00     0.005 C 
ENDBRANCH   1  34
BRANCH  11  36
HETATM   36  O3  UNL     1      25.873  18.359  28.541  1.00  0.00    -0.393 OA
ATOM     37  H3  UNL     1      26.612  18.821  28.163  1.00  0.00     0.210 HD
ENDBRANCH  11  36
TORSDOF 7
ENDMDL
MODEL 3
REMARK VINA RESULT: -7.649338952      2.259      3.177
REMARK  7 active torsions:
REMARK  status: ('A' for Active; 'I' for Inactive)
REMARK    1  A    between atoms: C2_2  and  C3_3 
REMARK    2  A    between atoms: C4_4  and  N1_5 
REMARK       I    between atoms: N1_5  and  C5_7 
REMARK    3  A    between atoms: C5_7  and  C6_9 
REMARK    4  A    between atoms: C6_9  and  N2_10 
REMARK       I    between atoms: N2_10  and  C7_12 
REMARK    5  A    between atoms: C7_12  and  C8_14 
REMARK    6  A    between atoms: C8_14  and  N3_15 
REMARK    7  A    between atoms: C15_27  and  O3_28 
ROOT
HETATM    1  C3  UNL     1      23.626  15.518  31.322  1.00  0.00     0.015 C 
HETATM    2  C4  UNL     1      23.218  16.614  32.308  1.00  0.00     0.093 C 
HETATM    3  C9  UNL     1      24.131  17.520  31.460  1.00  0.00     0.016 C 
HETATM    4  C10 UNL     1      24.767  18.560  32.278  1.00  0.00     0.014 C 
HETATM    5  C11 UNL     1      26.031  19.161  31.661  1.00  0.00     0.013 C 
HETATM    6  C12 UNL     1      25.840  19.512  30.209  1.00  0.00     0.077 C 
HETATM    7  C13 UNL     1      24.518  20.187  29.954  1.00  0.00     0.032 C 
HETATM    8  N4  UNL     1      26.091  18.469  29.299  1.00  0.00    -0.410 N 
ATOM      9  H4  UNL     1      25.855  18.590  28.314  1.00  0.00     0.154 HD
HETATM   10  C14 UNL     1      26.658  17.271  29.730  1.00  0.00     0.110 C 
HETATM   11  C15 UNL     1      25.529  16.239  29.888  1.00  0.00     0.145 C 
HETATM   12  C16 UNL     1      24.966  16.271  31.260  1.00  0.00     0.028 C 
HETATM   13  C17 UNL     1      27.489  17.246  30.932  1.00  0.00     0.019 C 
HETATM   14  C18 UNL     1      28.985  17.440  30.716  1.00  0.00    -0.008 C 
HETATM   15  C19 UNL     1      29.327  18.751  30.089  1.00  0.00     0.005 C 
HETATM   16  C20 UNL     1      29.152  19.738  31.213  1.00  0.00     0.005 C 
HETATM   17  C21 UNL     1      28.484  18.975  32.303  1.00  0.00    -0.009 C 
HETATM   18  C22 UNL     1      29.379  17.709  32.186  1.00  0.00     0.010 C 
HETATM   19  C23 UNL     1      27.185  18.306  31.960  1.00  0.00     0.002 C 
ENDROOT
BRANCH   2  20
HETATM   20  N1  UNL     1      21.836  16.976  32.258  1.00  0.00    -0.354 N 
HETATM   21  C5  UNL     1      20.898  16.197  32.991  1.00  0.00     0.235 C 
HETATM   22  O1  UNL     1      21.239  15.205  33.678  1.00  0.00    -0.272 OA
ATOM     23  H1  UNL     1      21.528  17.778  31.707  1.00  0.00     0.162 HD
BRANCH  21  24
HETATM   24  C6  UNL     1      19.460  16.566  32.944  1.00  0.00     0.225 C 
BRANCH  24  25
HETATM   25  N2  UNL     1      19.238  17.856  33.557  1.00  0.00    -0.351 N 
HETATM   26  C7  UNL     1      18.136  18.634  33.146  1.00  0.00     0.243 C 
HETATM   27  O2  UNL     1      17.372  18.203  32.265  1.00  0.00    -0.272 OA
ATOM     28  H2  UNL     1      19.872  18.200  34.279  1.00  0.00     0.163 HD
BRANCH  26  29
HETATM   29  C8  UNL     1      17.835  19.971  33.726  1.00  0.00     0.332 C 
BRANCH  29  30
HETATM   30  N3  UNL     1      18.740  20.198  34.835  1.00  0.00    -0.071 N 
ATOM     31  H33 UNL     1      18.882  19.362  35.403  1.00  0.00     0.274 HD
ATOM     32  H32 UNL     1      19.706  20.327  34.535  1.00  0.00     0.274 HD
ATOM     33  H31 UNL     1      18.388  20.987  35.377  1.00  0.00     0.274 HD
ENDBRANCH  29  30
ENDBRANCH  26  29
ENDBRANCH  24  25
ENDBRANCH  21  24
ENDBRANCH   2  20
BRANCH   1  34
HETATM   34  C2  UNL     1      23.725  14.151  31.958  1.00  0.00     0.002 C 
HETATM   35  C1  UNL     1      24.685  14.256  33.135  1.00  0.00     0.005 C 
ENDBRANCH   1  34
BRANCH  11  36
HETATM   36  O3  UNL     1      25.969  14.977  29.498  1.00  0.00    -0.393 OA
ATOM     37  H3  UNL     1      26.886  15.008  29.251  1.00  0.00     0.210 HD
ENDBRANCH  11  36
TORSDOF 7
ENDMDL
MODEL 4
REMARK VINA RESULT: -7.309103201      2.563      3.359
REMARK  7 active torsions:
REMARK  status: ('A' for Active; 'I' for Inactive)
REMARK    1  A    between atoms: C2_2  and  C3_3 
REMARK    2  A    between atoms: C4_4  and  N1_5 
REMARK       I    between atoms: N1_5  and  C5_7 
REMARK    3  A    between atoms: C5_7  and  C6_9 
REMARK    4  A    between atoms: C6_9  and  N2_10 
REMARK       I    between atoms: N2_10  and  C7_12 
REMARK    5  A    between atoms: C7_12  and  C8_14 
REMARK    6  A    between atoms: C8_14  and  N3_15 
REMARK    7  A    between atoms: C15_27  and  O3_28 
ROOT
HETATM    1  C3  UNL     1      23.897  17.758  31.062  1.00  0.00     0.015 C 
HETATM    2  C4  UNL     1      24.235  17.692  32.552  1.00  0.00     0.093 C 
HETATM    3  C9  UNL     1      25.440  18.573  32.173  1.00  0.00     0.016 C 
HETATM    4  C10 UNL     1      26.600  18.294  33.030  1.00  0.00     0.014 C 
HETATM    5  C11 UNL     1      27.942  18.722  32.433  1.00  0.00     0.013 C 
HETATM    6  C12 UNL     1      27.886  20.113  31.858  1.00  0.00     0.077 C 
HETATM    7  C13 UNL     1      27.154  21.075  32.756  1.00  0.00     0.032 C 
HETATM    8  N4  UNL     1      27.453  20.195  30.522  1.00  0.00    -0.410 N 
ATOM      9  H4  UNL     1      27.263  21.108  30.108  1.00  0.00     0.154 HD
HETATM   10  C14 UNL     1      27.281  19.042  29.758  1.00  0.00     0.110 C 
HETATM   11  C15 UNL     1      25.781  18.703  29.738  1.00  0.00     0.145 C 
HETATM   12  C16 UNL     1      25.421  17.809  30.865  1.00  0.00     0.028 C 
HETATM   13  C17 UNL     1      28.032  17.831  30.084  1.00  0.00     0.019 C 
HETATM   14  C18 UNL     1      29.363  17.656  29.364  1.00  0.00    -0.008 C 
HETATM   15  C19 UNL     1      30.338  18.750  29.648  1.00  0.00     0.005 C 
HETATM   16  C20 UNL     1      30.817  18.446  31.043  1.00  0.00     0.005 C 
HETATM   17  C21 UNL     1      29.908  17.379  31.545  1.00  0.00    -0.009 C 
HETATM   18  C22 UNL     1      29.935  16.522  30.247  1.00  0.00     0.010 C 
HETATM   19  C23 UNL     1      28.438  17.681  31.527  1.00  0.00     0.002 C 
ENDROOT
BRANCH   2  20
HETATM   20  N1  UNL     1      23.290  18.342  33.406  1.00  0.00    -0.354 N 
HETATM   21  C5  UNL     1      22.292  17.555  34.046  1.00  0.00     0.235 C 
HETATM   22  O1  UNL     1      22.211  16.314  33.889  1.00  0.00    -0.272 OA
ATOM     23  H1  UNL     1      23.331  19.351  33.554  1.00  0.00     0.162 HD
BRANCH  21  24
HETATM   24  C6  UNL     1      21.308  18.222  34.935  1.00  0.00     0.225 C 
BRANCH  24  25
HETATM   25  N2  UNL     1      20.383  19.028  34.169  1.00  0.00    -0.351 N 
HETATM   26  C7  UNL     1      19.139  18.479  33.794  1.00  0.00     0.243 C 
HETATM   27  O2  UNL     1      18.854  17.315  34.124  1.00  0.00    -0.272 OA
ATOM     28  H2  UNL     1      20.627  19.981  33.903  1.00  0.00     0.163 HD
BRANCH  26  29
HETATM   29  C8  UNL     1      18.130  19.240  33.007  1.00  0.00     0.332 C 
BRANCH  29  30
HETATM   30  N3  UNL     1      17.086  19.679  33.912  1.00  0.00    -0.071 N 
ATOM     31  H33 UNL     1      16.333  20.172  33.432  1.00  0.00     0.274 HD
ATOM     32  H32 UNL     1      16.534  18.905  34.279  1.00  0.00     0.274 HD
ATOM     33  H31 UNL     1      17.517  20.239  34.647  1.00  0.00     0.274 HD
ENDBRANCH  29  30
ENDBRANCH  26  29
ENDBRANCH  24  25
ENDBRANCH  21  24
ENDBRANCH   2  20
BRANCH   1  34
HETATM   34  C2  UNL     1      23.257  16.493  30.539  1.00  0.00     0.002 C 
HETATM   35  C1  UNL     1      24.197  15.337  30.846  1.00  0.00     0.005 C 
ENDBRANCH   1  34
BRANCH  11  36
HETATM   36  O3  UNL     1      25.416  18.201  28.492  1.00  0.00    -0.393 OA
ATOM     37  H3  UNL     1      26.065  18.433  27.838  1.00  0.00     0.210 HD
ENDBRANCH  11  36
TORSDOF 7
ENDMDL
MODEL 5
REMARK VINA RESULT: -7.252502982      2.422      3.340
REMARK  7 active torsions:
REMARK  status: ('A' for Active; 'I' for Inactive)
REMARK    1  A    between atoms: C2_2  and  C3_3 
REMARK    2  A    between atoms: C4_4  and  N1_5 
REMARK       I    between atoms: N1_5  and  C5_7 
REMARK    3  A    between atoms: C5_7  and  C6_9 
REMARK    4  A    between atoms: C6_9  and  N2_10 
REMARK       I    between atoms: N2_10  and  C7_12 
REMARK    5  A    between atoms: C7_12  and  C8_14 
REMARK    6  A    between atoms: C8_14  and  N3_15 
REMARK    7  A    between atoms: C15_27  and  O3_28 
ROOT
HETATM    1  C3  UNL     1      23.670  13.649  32.432  1.00  0.00     0.015 C 
HETATM    2  C4  UNL     1      23.190  14.975  33.024  1.00  0.00     0.093 C 
HETATM    3  C9  UNL     1      24.157  15.615  32.011  1.00  0.00     0.016 C 
HETATM    4  C10 UNL     1      24.731  16.863  32.530  1.00  0.00     0.014 C 
HETATM    5  C11 UNL     1      26.033  17.289  31.849  1.00  0.00     0.013 C 
HETATM    6  C12 UNL     1      25.943  17.197  30.348  1.00  0.00     0.077 C 
HETATM    7  C13 UNL     1      24.640  17.737  29.820  1.00  0.00     0.032 C 
HETATM    8  N4  UNL     1      26.260  15.940  29.802  1.00  0.00    -0.410 N 
ATOM      9  H4  UNL     1      26.094  15.764  28.811  1.00  0.00     0.154 HD
HETATM   10  C14 UNL     1      26.800  14.934  30.600  1.00  0.00     0.110 C 
HETATM   11  C15 UNL     1      25.666  13.966  30.978  1.00  0.00     0.145 C 
HETATM   12  C16 UNL     1      25.008  14.383  32.240  1.00  0.00     0.028 C 
HETATM   13  C17 UNL     1      27.545  15.280  31.810  1.00  0.00     0.019 C 
HETATM   14  C18 UNL     1      29.051  15.437  31.645  1.00  0.00    -0.008 C 
HETATM   15  C19 UNL     1      29.432  16.517  30.687  1.00  0.00     0.005 C 
HETATM   16  C20 UNL     1      29.176  17.784  31.459  1.00  0.00     0.005 C 
HETATM   17  C21 UNL     1      28.435  17.356  32.678  1.00  0.00    -0.009 C 
HETATM   18  C22 UNL     1      29.341  16.133  32.996  1.00  0.00     0.010 C 
HETATM   19  C23 UNL     1      27.166  16.585  32.460  1.00  0.00     0.002 C 
ENDROOT
BRANCH   2  20
HETATM   20  N1  UNL     1      21.814  15.274  32.779  1.00  0.00    -0.354 N 
HETATM   21  C5  UNL     1      21.188  16.293  33.549  1.00  0.00     0.235 C 
HETATM   22  O1  UNL     1      21.799  16.939  34.433  1.00  0.00    -0.272 OA
ATOM     23  H1  UNL     1      21.291  14.765  32.066  1.00  0.00     0.162 HD
BRANCH  21  24
HETATM   24  C6  UNL     1      19.759  16.610  33.301  1.00  0.00     0.225 C 
BRANCH  24  25
HETATM   25  N2  UNL     1      19.423  17.920  33.812  1.00  0.00    -0.351 N 
HETATM   26  C7  UNL     1      18.317  18.608  33.271  1.00  0.00     0.243 C 
HETATM   27  O2  UNL     1      17.648  18.083  32.365  1.00  0.00    -0.272 OA
ATOM     28  H2  UNL     1      19.979  18.341  34.556  1.00  0.00     0.163 HD
BRANCH  26  29
HETATM   29  C8  UNL     1      17.903  19.959  33.741  1.00  0.00     0.332 C 
BRANCH  29  30
HETATM   30  N3  UNL     1      18.723  20.312  34.883  1.00  0.00    -0.071 N 
ATOM     31  H33 UNL     1      19.604  19.798  34.909  1.00  0.00     0.274 HD
ATOM     32  H32 UNL     1      19.113  21.251  34.811  1.00  0.00     0.274 HD
ATOM     33  H31 UNL     1      18.166  20.181  35.727  1.00  0.00     0.274 HD
ENDBRANCH  29  30
ENDBRANCH  26  29
ENDBRANCH  24  25
ENDBRANCH  21  24
ENDBRANCH   2  20
BRANCH   1  34
HETATM   34  C2  UNL     1      23.729  12.529  33.444  1.00  0.00     0.002 C 
HETATM   35  C1  UNL     1      23.449  11.226  32.710  1.00  0.00     0.005 C 
ENDBRANCH   1  34
BRANCH  11  36
HETATM   36  O3  UNL     1      26.137  12.655  31.004  1.00  0.00    -0.393 OA
ATOM     37  H3  UNL     1      26.400  12.382  30.133  1.00  0.00     0.210 HD
ENDBRANCH  11  36
TORSDOF 7
ENDMDL
