MODEL 1
REMARK VINA RESULT: -9.224826047      0.000      0.000
REMARK  5 active torsions:
REMARK  status: ('A' for Active; 'I' for Inactive)
REMARK    1  A    between atoms: C5_6  and  C6_7 
REMARK    2  A    between atoms: C8_11  and  N2_12 
REMARK    3  A    between atoms: C18_25  and  N4_26 
REMARK    4  A    between atoms: N4_26  and  C19_28 
REMARK    5  A    between atoms: C19_28  and  C20_29 
ROOT
HETATM    1  C1  UNL     1      45.709  -4.272   0.399  1.00  0.00     0.023 C 
HETATM    2  C2  UNL     1      44.915  -3.384   1.372  1.00  0.00     0.007 C 
HETATM    3  C3  UNL     1      43.893  -2.674   0.555  1.00  0.00     0.023 C 
HETATM    4  C4  UNL     1      45.844  -2.345   1.926  1.00  0.00    -0.001 A 
HETATM    5  S1  UNL     1      46.805  -1.155   1.143  1.00  0.00    -0.093 SA
HETATM    6  C5  UNL     1      47.507  -0.417   2.512  1.00  0.00     0.018 A 
HETATM    7  C14 UNL     1      46.967  -1.129   3.552  1.00  0.00     0.028 A 
HETATM    8  C15 UNL     1      46.104  -2.128   3.241  1.00  0.00    -0.043 A 
HETATM    9  C16 UNL     1      45.410  -3.006   4.290  1.00  0.00     0.042 C 
HETATM   10  C17 UNL     1      44.085  -3.402   3.659  1.00  0.00     0.030 C 
HETATM   11  C18 UNL     1      44.435  -4.264   2.454  1.00  0.00     0.089 C 
ENDROOT
BRANCH   6  12
HETATM   12  C6  UNL     1      48.444   0.707   2.585  1.00  0.00     0.013 A 
HETATM   13  C7  UNL     1      49.310   0.815   3.629  1.00  0.00     0.120 A 
HETATM   14  N1  UNL     1      50.194   1.856   3.701  1.00  0.00    -0.201 N 
HETATM   15  C8  UNL     1      50.219   2.802   2.720  1.00  0.00     0.680 A 
ATOM     16  H1  UNL     1      50.837   1.924   4.490  1.00  0.00     0.183 HD
HETATM   17  N3  UNL     1      49.365   2.706   1.678  1.00  0.00    -0.201 N 
HETATM   18  C13 UNL     1      48.480   1.663   1.610  1.00  0.00     0.120 A 
ATOM     19  H3  UNL     1      49.379   3.411   0.941  1.00  0.00     0.183 HD
BRANCH  15  20
HETATM   20  N2  UNL     1      51.118   3.887   2.753  1.00  0.00    -0.214 N 
HETATM   21  C9  UNL     1      52.031   4.062   3.859  1.00  0.00     0.167 C 
HETATM   22  C10 UNL     1      52.087   5.518   4.217  1.00  0.00     0.188 C 
HETATM   23  O1  UNL     1      52.130   6.367   3.132  1.00  0.00    -0.388 OA
HETATM   24  C11 UNL     1      51.016   6.225   2.319  1.00  0.00     0.188 C 
HETATM   25  C12 UNL     1      51.135   4.840   1.678  1.00  0.00     0.167 C 
ENDBRANCH  15  20
ENDBRANCH   6  12
BRANCH  11  26
HETATM   26  N4  UNL     1      43.482  -5.253   2.179  1.00  0.00    -0.416 N 
ATOM     27  H4  UNL     1      42.761  -5.055   1.486  1.00  0.00     0.153 HD
BRANCH  26  28
HETATM   28  C19 UNL     1      43.476  -6.492   2.810  1.00  0.00     0.118 C 
BRANCH  28  29
HETATM   29  C20 UNL     1      43.862  -7.577   1.785  1.00  0.00     0.007 C 
HETATM   30  C21 UNL     1      45.337  -7.697   1.600  1.00  0.00     0.032 C 
HETATM   31  C22 UNL     1      45.662  -8.070   0.167  1.00  0.00     0.168 C 
HETATM   32  O2  UNL     1      44.716  -8.998  -0.250  1.00  0.00    -0.391 OA
HETATM   33  C23 UNL     1      43.554  -8.297  -0.557  1.00  0.00     0.168 C 
HETATM   34  C24 UNL     1      43.252  -7.216   0.447  1.00  0.00     0.032 C 
ENDBRANCH  28  29
ENDBRANCH  26  28
ENDBRANCH  11  26
TORSDOF 5
ENDMDL
MODEL 2
REMARK VINA RESULT: -9.149604717      0.778      1.227
REMARK  5 active torsions:
REMARK  status: ('A' for Active; 'I' for Inactive)
REMARK    1  A    between atoms: C5_6  and  C6_7 
REMARK    2  A    between atoms: C8_11  and  N2_12 
REMARK    3  A    between atoms: C18_25  and  N4_26 
REMARK    4  A    between atoms: N4_26  and  C19_28 
REMARK    5  A    between atoms: C19_28  and  C20_29 
ROOT
HETATM    1  C1  UNL     1      45.896  -4.146   0.521  1.00  0.00     0.023 C 
HETATM    2  C2  UNL     1      44.974  -3.351   1.461  1.00  0.00     0.007 C 
HETATM    3  C3  UNL     1      43.913  -2.756   0.603  1.00  0.00     0.023 C 
HETATM    4  C4  UNL     1      45.763  -2.218   2.046  1.00  0.00    -0.001 A 
HETATM    5  S1  UNL     1      46.618  -0.929   1.296  1.00  0.00    -0.093 SA
HETATM    6  C5  UNL     1      47.183  -0.120   2.688  1.00  0.00     0.018 A 
HETATM    7  C14 UNL     1      46.684  -0.888   3.710  1.00  0.00     0.028 A 
HETATM    8  C15 UNL     1      45.948  -1.975   3.370  1.00  0.00    -0.043 A 
HETATM    9  C16 UNL     1      45.315  -2.924   4.394  1.00  0.00     0.042 C 
HETATM   10  C17 UNL     1      44.066  -3.462   3.715  1.00  0.00     0.030 C 
HETATM   11  C18 UNL     1      44.552  -4.279   2.527  1.00  0.00     0.089 C 
ENDROOT
BRANCH   6  12
HETATM   12  C6  UNL     1      47.989   1.099   2.793  1.00  0.00     0.013 A 
HETATM   13  C7  UNL     1      47.428   2.259   3.228  1.00  0.00     0.120 A 
HETATM   14  N1  UNL     1      48.176   3.400   3.338  1.00  0.00    -0.201 N 
HETATM   15  C8  UNL     1      49.499   3.386   3.011  1.00  0.00     0.680 A 
ATOM     16  H1  UNL     1      47.742   4.263   3.664  1.00  0.00     0.183 HD
HETATM   17  N3  UNL     1      50.067   2.239   2.578  1.00  0.00    -0.201 N 
HETATM   18  C13 UNL     1      49.316   1.100   2.469  1.00  0.00     0.120 A 
ATOM     19  H3  UNL     1      51.057   2.222   2.333  1.00  0.00     0.183 HD
BRANCH  15  20
HETATM   20  N2  UNL     1      50.306   4.537   3.115  1.00  0.00    -0.214 N 
HETATM   21  C9  UNL     1      50.262   5.568   2.103  1.00  0.00     0.167 C 
HETATM   22  C10 UNL     1      51.661   6.039   1.830  1.00  0.00     0.188 C 
HETATM   23  O1  UNL     1      52.436   6.196   2.958  1.00  0.00    -0.388 OA
HETATM   24  C11 UNL     1      52.572   5.009   3.663  1.00  0.00     0.188 C 
HETATM   25  C12 UNL     1      51.188   4.697   4.237  1.00  0.00     0.167 C 
ENDBRANCH  15  20
ENDBRANCH   6  12
BRANCH  11  26
HETATM   26  N4  UNL     1      43.724  -5.366   2.219  1.00  0.00    -0.416 N 
ATOM     27  H4  UNL     1      43.002  -5.243   1.509  1.00  0.00     0.153 HD
BRANCH  26  28
HETATM   28  C19 UNL     1      43.843  -6.605   2.838  1.00  0.00     0.118 C 
BRANCH  28  29
HETATM   29  C20 UNL     1      44.194  -7.665   1.776  1.00  0.00     0.007 C 
HETATM   30  C21 UNL     1      45.646  -7.679   1.434  1.00  0.00     0.032 C 
HETATM   31  C22 UNL     1      45.842  -8.035  -0.027  1.00  0.00     0.168 C 
HETATM   32  O2  UNL     1      44.927  -9.031  -0.343  1.00  0.00    -0.391 OA
HETATM   33  C23 UNL     1      43.690  -8.417  -0.521  1.00  0.00     0.168 C 
HETATM   34  C24 UNL     1      43.421  -7.355   0.512  1.00  0.00     0.032 C 
ENDBRANCH  28  29
ENDBRANCH  26  28
ENDBRANCH  11  26
TORSDOF 5
ENDMDL
MODEL 3
REMARK VINA RESULT: -9.082345884      1.513      2.539
REMARK  5 active torsions:
REMARK  status: ('A' for Active; 'I' for Inactive)
REMARK    1  A    between atoms: C5_6  and  C6_7 
REMARK    2  A    between atoms: C8_11  and  N2_12 
REMARK    3  A    between atoms: C18_25  and  N4_26 
REMARK    4  A    between atoms: N4_26  and  C19_28 
REMARK    5  A    between atoms: C19_28  and  C20_29 
ROOT
HETATM    1  C1  UNL     1      44.087  -1.686   3.595  1.00  0.00     0.023 C 
HETATM    2  C2  UNL     1      45.230  -2.447   2.902  1.00  0.00     0.007 C 
HETATM    3  C3  UNL     1      45.665  -3.507   3.852  1.00  0.00     0.023 C 
HETATM    4  C4  UNL     1      46.384  -1.505   2.726  1.00  0.00    -0.001 A 
HETATM    5  S1  UNL     1      47.279  -0.586   3.869  1.00  0.00    -0.093 SA
HETATM    6  C5  UNL     1      48.392   0.164   2.817  1.00  0.00     0.018 A 
HETATM    7  C14 UNL     1      48.029  -0.327   1.589  1.00  0.00     0.028 A 
HETATM    8  C15 UNL     1      46.986  -1.193   1.548  1.00  0.00    -0.043 A 
HETATM    9  C16 UNL     1      46.468  -1.836   0.256  1.00  0.00     0.042 C 
HETATM   10  C17 UNL     1      45.905  -3.183   0.683  1.00  0.00     0.030 C 
HETATM   11  C18 UNL     1      44.719  -2.875   1.586  1.00  0.00     0.089 C 
ENDROOT
BRANCH   6  12
HETATM   12  C6  UNL     1      49.482   1.094   3.124  1.00  0.00     0.013 A 
HETATM   13  C7  UNL     1      49.542   2.309   2.516  1.00  0.00     0.120 A 
HETATM   14  N1  UNL     1      50.552   3.187   2.803  1.00  0.00    -0.201 N 
HETATM   15  C8  UNL     1      51.513   2.852   3.709  1.00  0.00     0.680 A 
ATOM     16  H1  UNL     1      50.585   4.094   2.339  1.00  0.00     0.183 HD
HETATM   17  N3  UNL     1      51.464   1.648   4.320  1.00  0.00    -0.201 N 
HETATM   18  C13 UNL     1      50.453   0.772   4.029  1.00  0.00     0.120 A 
ATOM     19  H3  UNL     1      52.181   1.392   4.999  1.00  0.00     0.183 HD
BRANCH  15  20
HETATM   20  N2  UNL     1      52.566   3.729   4.038  1.00  0.00    -0.214 N 
HETATM   21  C9  UNL     1      53.683   3.281   4.840  1.00  0.00     0.167 C 
HETATM   22  C10 UNL     1      54.037   4.357   5.823  1.00  0.00     0.188 C 
HETATM   23  O1  UNL     1      54.018   5.631   5.299  1.00  0.00    -0.388 OA
HETATM   24  C11 UNL     1      52.765   5.971   4.809  1.00  0.00     0.188 C 
HETATM   25  C12 UNL     1      52.540   5.089   3.579  1.00  0.00     0.167 C 
ENDBRANCH  15  20
ENDBRANCH   6  12
BRANCH  11  26
HETATM   26  N4  UNL     1      43.697  -3.829   1.511  1.00  0.00    -0.416 N 
ATOM     27  H4  UNL     1      43.110  -3.980   2.331  1.00  0.00     0.153 HD
BRANCH  26  28
HETATM   28  C19 UNL     1      43.448  -4.580   0.368  1.00  0.00     0.118 C 
BRANCH  28  29
HETATM   29  C20 UNL     1      43.633  -6.074   0.699  1.00  0.00     0.007 C 
HETATM   30  C21 UNL     1      43.883  -6.316   2.149  1.00  0.00     0.032 C 
HETATM   31  C22 UNL     1      44.816  -7.497   2.335  1.00  0.00     0.168 C 
HETATM   32  O2  UNL     1      44.460  -8.464   1.404  1.00  0.00    -0.391 OA
HETATM   33  C23 UNL     1      44.987  -8.071   0.177  1.00  0.00     0.168 C 
HETATM   34  C24 UNL     1      44.826  -6.595  -0.073  1.00  0.00     0.032 C 
ENDBRANCH  28  29
ENDBRANCH  26  28
ENDBRANCH  11  26
TORSDOF 5
ENDMDL
MODEL 4
REMARK VINA RESULT: -8.998144942      0.936      1.219
REMARK  5 active torsions:
REMARK  status: ('A' for Active; 'I' for Inactive)
REMARK    1  A    between atoms: C5_6  and  C6_7 
REMARK    2  A    between atoms: C8_11  and  N2_12 
REMARK    3  A    between atoms: C18_25  and  N4_26 
REMARK    4  A    between atoms: N4_26  and  C19_28 
REMARK    5  A    between atoms: C19_28  and  C20_29 
ROOT
HETATM    1  C1  UNL     1      45.915  -4.061   0.439  1.00  0.00     0.023 C 
HETATM    2  C2  UNL     1      45.011  -3.342   1.455  1.00  0.00     0.007 C 
HETATM    3  C3  UNL     1      43.915  -2.711   0.669  1.00  0.00     0.023 C 
HETATM    4  C4  UNL     1      45.800  -2.236   2.087  1.00  0.00    -0.001 A 
HETATM    5  S1  UNL     1      46.614  -0.889   1.397  1.00  0.00    -0.093 SA
HETATM    6  C5  UNL     1      47.209  -0.161   2.820  1.00  0.00     0.018 A 
HETATM    7  C14 UNL     1      46.753  -0.999   3.805  1.00  0.00     0.028 A 
HETATM    8  C15 UNL     1      46.022  -2.074   3.418  1.00  0.00    -0.043 A 
HETATM    9  C16 UNL     1      45.435  -3.096   4.398  1.00  0.00     0.042 C 
HETATM   10  C17 UNL     1      44.172  -3.610   3.723  1.00  0.00     0.030 C 
HETATM   11  C18 UNL     1      44.635  -4.343   2.471  1.00  0.00     0.089 C 
ENDROOT
BRANCH   6  12
HETATM   12  C6  UNL     1      48.001   1.062   2.979  1.00  0.00     0.013 A 
HETATM   13  C7  UNL     1      49.164   1.224   2.292  1.00  0.00     0.120 A 
HETATM   14  N1  UNL     1      49.905   2.366   2.428  1.00  0.00    -0.201 N 
HETATM   15  C8  UNL     1      49.482   3.361   3.258  1.00  0.00     0.680 A 
ATOM     16  H1  UNL     1      50.775   2.473   1.907  1.00  0.00     0.183 HD
HETATM   17  N3  UNL     1      48.328   3.213   3.944  1.00  0.00    -0.201 N 
HETATM   18  C13 UNL     1      47.590   2.068   3.807  1.00  0.00     0.120 A 
ATOM     19  H3  UNL     1      48.007   3.955   4.566  1.00  0.00     0.183 HD
BRANCH  15  20
HETATM   20  N2  UNL     1      50.211   4.556   3.421  1.00  0.00    -0.214 N 
HETATM   21  C9  UNL     1      51.295   4.894   2.527  1.00  0.00     0.167 C 
HETATM   22  C10 UNL     1      52.426   5.467   3.329  1.00  0.00     0.188 C 
HETATM   23  O1  UNL     1      52.033   6.345   4.315  1.00  0.00    -0.388 OA
HETATM   24  C11 UNL     1      51.188   5.745   5.237  1.00  0.00     0.188 C 
HETATM   25  C12 UNL     1      49.883   5.459   4.490  1.00  0.00     0.167 C 
ENDBRANCH  15  20
ENDBRANCH   6  12
BRANCH  11  26
HETATM   26  N4  UNL     1      43.813  -5.421   2.119  1.00  0.00    -0.416 N 
ATOM     27  H4  UNL     1      43.109  -5.281   1.394  1.00  0.00     0.153 HD
BRANCH  26  28
HETATM   28  C19 UNL     1      43.914  -6.673   2.715  1.00  0.00     0.118 C 
BRANCH  28  29
HETATM   29  C20 UNL     1      44.337  -7.702   1.648  1.00  0.00     0.007 C 
HETATM   30  C21 UNL     1      45.796  -7.646   1.340  1.00  0.00     0.032 C 
HETATM   31  C22 UNL     1      46.041  -7.974  -0.120  1.00  0.00     0.168 C 
HETATM   32  O2  UNL     1      45.180  -9.006  -0.469  1.00  0.00    -0.391 OA
HETATM   33  C23 UNL     1      43.921  -8.447  -0.669  1.00  0.00     0.168 C 
HETATM   34  C24 UNL     1      43.579  -7.412   0.370  1.00  0.00     0.032 C 
ENDBRANCH  28  29
ENDBRANCH  26  28
ENDBRANCH  11  26
TORSDOF 5
ENDMDL
MODEL 5
REMARK VINA RESULT: -8.984845797      3.932     11.278
REMARK  5 active torsions:
REMARK  status: ('A' for Active; 'I' for Inactive)
REMARK    1  A    between atoms: C5_6  and  C6_7 
REMARK    2  A    between atoms: C8_11  and  N2_12 
REMARK    3  A    between atoms: C18_25  and  N4_26 
REMARK    4  A    between atoms: N4_26  and  C19_28 
REMARK    5  A    between atoms: C19_28  and  C20_29 
ROOT
HETATM    1  C1  UNL     1      43.718  -2.440   0.831  1.00  0.00     0.023 C 
HETATM    2  C2  UNL     1      44.871  -2.921   1.728  1.00  0.00     0.007 C 
HETATM    3  C3  UNL     1      46.075  -2.151   1.314  1.00  0.00     0.023 C 
HETATM    4  C4  UNL     1      45.136  -4.365   1.420  1.00  0.00    -0.001 A 
HETATM    5  S1  UNL     1      45.548  -5.149  -0.052  1.00  0.00    -0.093 SA
HETATM    6  C5  UNL     1      45.680  -6.754   0.512  1.00  0.00     0.018 A 
HETATM    7  C14 UNL     1      45.394  -6.631   1.848  1.00  0.00     0.028 A 
HETATM    8  C15 UNL     1      45.113  -5.388   2.313  1.00  0.00    -0.043 A 
HETATM    9  C16 UNL     1      44.784  -5.087   3.780  1.00  0.00     0.042 C 
HETATM   10  C17 UNL     1      45.273  -3.665   4.010  1.00  0.00     0.030 C 
HETATM   11  C18 UNL     1      44.412  -2.777   3.123  1.00  0.00     0.089 C 
ENDROOT
BRANCH   6  12
HETATM   12  C6  UNL     1      46.024  -7.974  -0.223  1.00  0.00     0.013 A 
HETATM   13  C7  UNL     1      45.047  -8.768  -0.736  1.00  0.00     0.120 A 
HETATM   14  N1  UNL     1      45.360  -9.905  -1.430  1.00  0.00    -0.201 N 
HETATM   15  C8  UNL     1      46.664 -10.254  -1.619  1.00  0.00     0.680 A 
ATOM     16  H1  UNL     1      44.616 -10.491  -1.808  1.00  0.00     0.183 HD
HETATM   17  N3  UNL     1      47.644  -9.473  -1.115  1.00  0.00    -0.201 N 
HETATM   18  C13 UNL     1      47.327  -8.337  -0.419  1.00  0.00     0.120 A 
ATOM     19  H3  UNL     1      48.621  -9.730  -1.254  1.00  0.00     0.183 HD
BRANCH  15  20
HETATM   20  N2  UNL     1      47.030 -11.412  -2.334  1.00  0.00    -0.214 N 
HETATM   21  C9  UNL     1      46.051 -12.157  -3.092  1.00  0.00     0.167 C 
HETATM   22  C10 UNL     1      46.292 -13.624  -2.888  1.00  0.00     0.188 C 
HETATM   23  O1  UNL     1      47.621 -13.988  -2.912  1.00  0.00    -0.388 OA
HETATM   24  C11 UNL     1      48.351 -13.348  -1.921  1.00  0.00     0.188 C 
HETATM   25  C12 UNL     1      48.391 -11.870  -2.315  1.00  0.00     0.167 C 
ENDBRANCH  15  20
ENDBRANCH   6  12
BRANCH  11  26
HETATM   26  N4  UNL     1      44.192  -1.501   3.656  1.00  0.00    -0.416 N 
ATOM     27  H4  UNL     1      43.455  -0.924   3.251  1.00  0.00     0.153 HD
BRANCH  26  28
HETATM   28  C19 UNL     1      44.934  -0.986   4.714  1.00  0.00     0.118 C 
BRANCH  28  29
HETATM   29  C20 UNL     1      45.994  -0.015   4.157  1.00  0.00     0.007 C 
HETATM   30  C21 UNL     1      47.386  -0.523   4.326  1.00  0.00     0.032 C 
HETATM   31  C22 UNL     1      48.343   0.627   4.567  1.00  0.00     0.168 C 
HETATM   32  O2  UNL     1      47.959   1.674   3.738  1.00  0.00    -0.391 OA
HETATM   33  C23 UNL     1      46.861   2.290   4.330  1.00  0.00     0.168 C 
HETATM   34  C24 UNL     1      45.883   1.298   4.903  1.00  0.00     0.032 C 
ENDBRANCH  28  29
ENDBRANCH  26  28
ENDBRANCH  11  26
TORSDOF 5
ENDMDL
