MODEL 1
REMARK VINA RESULT: -8.278548408      0.000      0.000
REMARK  5 active torsions:
REMARK  status: ('A' for Active; 'I' for Inactive)
REMARK    1  A    between atoms: C4_7  and  C5_8 
REMARK    2  A    between atoms: C5_8  and  N3_11 
REMARK    3  A    between atoms: C7_13  and  C8_14 
REMARK    4  A    between atoms: C8_14  and  C9_15 
REMARK    5  A    between atoms: C17_24  and  C18_25 
ROOT
HETATM    1  C5  UNL     1      50.176   3.967   2.177  1.00  0.00     0.231 C 
HETATM    2  C6  UNL     1      49.111   4.769   2.847  1.00  0.00     0.090 C 
HETATM    3  N2  UNL     1      48.274   5.373   3.371  1.00  0.00    -0.195 NA
ENDROOT
BRANCH   1   4
HETATM    4  C4  UNL     1      51.450   4.497   2.847  1.00  0.00     0.042 A 
HETATM    5  C2  UNL     1      52.256   5.530   2.457  1.00  0.00     0.021 A 
HETATM    6  C1  UNL     1      51.986   6.399   1.238  1.00  0.00     0.069 C 
HETATM    7  N1  UNL     1      53.307   5.773   3.198  1.00  0.00    -0.363 N 
HETATM    8  C3  UNL     1      53.543   5.033   4.264  1.00  0.00     0.138 A 
ATOM      9  H1  UNL     1      53.942   6.533   2.952  1.00  0.00     0.165 HD
HETATM   10  S1  UNL     1      52.235   3.933   4.248  1.00  0.00    -0.084 SA
ENDBRANCH   1   4
BRANCH   1  11
HETATM   11  N3  UNL     1      50.108   2.632   2.405  1.00  0.00    -0.381 N 
HETATM   12  C7  UNL     1      49.465   1.769   3.191  1.00  0.00     0.074 C 
ATOM     13  H3  UNL     1      50.744   2.134   1.782  1.00  0.00     0.160 HD
BRANCH  12  14
HETATM   14  C8  UNL     1      48.042   1.237   3.104  1.00  0.00     0.040 C 
HETATM   15  C12 UNL     1      47.032   2.137   3.796  1.00  0.00     0.191 C 
HETATM   16  O1  UNL     1      46.562   1.879   4.948  1.00  0.00    -0.359 OA
HETATM   17  C13 UNL     1      46.073   1.163   5.872  1.00  0.00     0.137 C 
HETATM   18  C14 UNL     1      46.723   1.789   6.980  1.00  0.00     0.065 C 
HETATM   19  C20 UNL     1      44.795   0.903   5.286  1.00  0.00     0.062 C 
HETATM   20  N4  UNL     1      46.261  -0.171   6.384  1.00  0.00    -0.346 N 
HETATM   21  C15 UNL     1      48.129   1.201   6.794  1.00  0.00     0.032 C 
HETATM   22  C16 UNL     1      48.614   0.759   5.495  1.00  0.00    -0.022 C 
HETATM   23  C17 UNL     1      47.964   0.192   4.293  1.00  0.00    -0.056 C 
HETATM   24  C19 UNL     1      45.355  -0.059   4.190  1.00  0.00     0.022 C 
HETATM   25  C18 UNL     1      46.735  -0.569   4.363  1.00  0.00     0.021 A 
HETATM   26  C21 UNL     1      46.561  -2.009   4.838  1.00  0.00     0.092 A 
HETATM   27  C23 UNL     1      47.054  -1.082   5.749  1.00  0.00     0.116 A 
HETATM   28  S2  UNL     1      45.048  -2.340   5.898  1.00  0.00    -0.116 SA
HETATM   29  C22 UNL     1      45.330  -0.894   7.035  1.00  0.00     0.135 C 
BRANCH  14  30
HETATM   30  C9  UNL     1      47.779   0.697   1.803  1.00  0.00    -0.003 C 
HETATM   31  C10 UNL     1      47.277   1.413   0.621  1.00  0.00     0.011 C 
HETATM   32  C11 UNL     1      48.293  -0.717   1.434  1.00  0.00     0.011 C 
ENDBRANCH  14  30
ENDBRANCH  12  14
ENDBRANCH   1  11
TORSDOF 5
ENDMDL
MODEL 2
REMARK VINA RESULT: -8.152613326      4.468      7.910
REMARK  5 active torsions:
REMARK  status: ('A' for Active; 'I' for Inactive)
REMARK    1  A    between atoms: C4_7  and  C5_8 
REMARK    2  A    between atoms: C5_8  and  N3_11 
REMARK    3  A    between atoms: C7_13  and  C8_14 
REMARK    4  A    between atoms: C8_14  and  C9_15 
REMARK    5  A    between atoms: C17_24  and  C18_25 
ROOT
HETATM    1  C5  UNL     1      44.657  -4.597   1.170  1.00  0.00     0.231 C 
HETATM    2  C6  UNL     1      43.375  -5.055   0.560  1.00  0.00     0.090 C 
HETATM    3  N2  UNL     1      42.376  -5.391   0.080  1.00  0.00    -0.195 NA
ENDROOT
BRANCH   1   4
HETATM    4  C4  UNL     1      45.662  -5.615   0.616  1.00  0.00     0.042 A 
HETATM    5  C2  UNL     1      46.026  -6.827   1.133  1.00  0.00     0.021 A 
HETATM    6  C1  UNL     1      45.431  -7.417   2.403  1.00  0.00     0.069 C 
HETATM    7  N1  UNL     1      46.929  -7.505   0.472  1.00  0.00    -0.363 N 
HETATM    8  C3  UNL     1      47.440  -7.008  -0.637  1.00  0.00     0.138 A 
ATOM      9  H1  UNL     1      47.236  -8.416   0.814  1.00  0.00     0.165 HD
HETATM   10  S1  UNL     1      46.627  -5.512  -0.782  1.00  0.00    -0.084 SA
ENDBRANCH   1   4
BRANCH   1  11
HETATM   11  N3  UNL     1      45.058  -3.360   0.783  1.00  0.00    -0.381 N 
HETATM   12  C7  UNL     1      45.165  -2.128   1.279  1.00  0.00     0.074 C 
ATOM     13  H3  UNL     1      45.375  -3.379  -0.186  1.00  0.00     0.160 HD
BRANCH  12  14
HETATM   14  C8  UNL     1      46.209  -1.537   2.215  1.00  0.00     0.040 C 
HETATM   15  C12 UNL     1      46.678  -2.519   3.275  1.00  0.00     0.191 C 
HETATM   16  O1  UNL     1      46.259  -2.484   4.473  1.00  0.00    -0.359 OA
HETATM   17  C13 UNL     1      45.924  -1.953   5.575  1.00  0.00     0.137 C 
HETATM   18  C14 UNL     1      44.831  -2.815   5.893  1.00  0.00     0.065 C 
HETATM   19  C20 UNL     1      47.220  -1.531   6.008  1.00  0.00     0.062 C 
HETATM   20  N4  UNL     1      45.242  -0.760   6.006  1.00  0.00    -0.346 N 
HETATM   21  C15 UNL     1      43.792  -2.256   4.911  1.00  0.00     0.032 C 
HETATM   22  C16 UNL     1      44.180  -1.577   3.683  1.00  0.00    -0.022 C 
HETATM   23  C17 UNL     1      45.343  -0.753   3.287  1.00  0.00    -0.056 C 
HETATM   24  C19 UNL     1      47.338  -0.387   4.950  1.00  0.00     0.022 C 
HETATM   25  C18 UNL     1      46.104   0.024   4.243  1.00  0.00     0.021 A 
HETATM   26  C21 UNL     1      45.701   1.342   4.896  1.00  0.00     0.092 A 
HETATM   27  C23 UNL     1      44.899   0.231   5.132  1.00  0.00     0.116 A 
HETATM   28  S2  UNL     1      46.116   1.508   6.720  1.00  0.00    -0.116 SA
HETATM   29  C22 UNL     1      45.414  -0.149   7.194  1.00  0.00     0.135 C 
BRANCH  14  30
HETATM   30  C9  UNL     1      47.147  -0.733   1.488  1.00  0.00    -0.003 C 
HETATM   31  C10 UNL     1      48.534  -0.417   1.861  1.00  0.00     0.011 C 
HETATM   32  C11 UNL     1      46.848  -0.329   0.023  1.00  0.00     0.011 C 
ENDBRANCH  14  30
ENDBRANCH  12  14
ENDBRANCH   1  11
TORSDOF 5
ENDMDL
MODEL 3
REMARK VINA RESULT: -8.068505352      1.253      2.231
REMARK  5 active torsions:
REMARK  status: ('A' for Active; 'I' for Inactive)
REMARK    1  A    between atoms: C4_7  and  C5_8 
REMARK    2  A    between atoms: C5_8  and  N3_11 
REMARK    3  A    between atoms: C7_13  and  C8_14 
REMARK    4  A    between atoms: C8_14  and  C9_15 
REMARK    5  A    between atoms: C17_24  and  C18_25 
ROOT
HETATM    1  C5  UNL     1      51.060   2.998   4.208  1.00  0.00     0.231 C 
HETATM    2  C6  UNL     1      52.522   3.100   4.491  1.00  0.00     0.090 C 
HETATM    3  N2  UNL     1      53.659   3.161   4.702  1.00  0.00    -0.195 NA
ENDROOT
BRANCH   1   4
HETATM    4  C4  UNL     1      50.753   4.368   3.591  1.00  0.00     0.042 A 
HETATM    5  C2  UNL     1      49.807   5.282   3.963  1.00  0.00     0.021 A 
HETATM    6  C1  UNL     1      48.869   5.093   5.145  1.00  0.00     0.069 C 
HETATM    7  N1  UNL     1      49.733   6.379   3.254  1.00  0.00    -0.363 N 
HETATM    8  C3  UNL     1      50.552   6.558   2.236  1.00  0.00     0.138 A 
ATOM      9  H1  UNL     1      49.045   7.095   3.489  1.00  0.00     0.165 HD
HETATM   10  S1  UNL     1      51.484   5.126   2.254  1.00  0.00    -0.084 SA
ENDBRANCH   1   4
BRANCH   1  11
HETATM   11  N3  UNL     1      50.725   2.046   3.302  1.00  0.00    -0.381 N 
HETATM   12  C7  UNL     1      49.990   0.938   3.220  1.00  0.00     0.074 C 
ATOM     13  H3  UNL     1      51.174   2.237   2.406  1.00  0.00     0.160 HD
BRANCH  12  14
HETATM   14  C8  UNL     1      48.484   0.769   3.085  1.00  0.00     0.040 C 
HETATM   15  C12 UNL     1      47.700   1.822   3.850  1.00  0.00     0.191 C 
HETATM   16  O1  UNL     1      47.156   1.588   4.974  1.00  0.00    -0.359 OA
HETATM   17  C13 UNL     1      46.491   0.932   5.831  1.00  0.00     0.137 C 
HETATM   18  C14 UNL     1      47.245   1.290   6.991  1.00  0.00     0.065 C 
HETATM   19  C20 UNL     1      45.201   1.035   5.222  1.00  0.00     0.062 C 
HETATM   20  N4  UNL     1      46.346  -0.445   6.225  1.00  0.00    -0.346 N 
HETATM   21  C15 UNL     1      48.476   0.402   6.758  1.00  0.00     0.032 C 
HETATM   22  C16 UNL     1      48.871  -0.031   5.426  1.00  0.00    -0.022 C 
HETATM   23  C17 UNL     1      48.133  -0.324   4.178  1.00  0.00    -0.056 C 
HETATM   24  C19 UNL     1      45.542   0.063   4.047  1.00  0.00     0.022 C 
HETATM   25  C18 UNL     1      46.757  -0.773   4.179  1.00  0.00     0.021 A 
HETATM   26  C21 UNL     1      46.237  -2.165   4.525  1.00  0.00     0.092 A 
HETATM   27  C23 UNL     1      46.914  -1.463   5.515  1.00  0.00     0.116 A 
HETATM   28  S2  UNL     1      44.664  -2.215   5.549  1.00  0.00    -0.116 SA
HETATM   29  C22 UNL     1      45.255  -0.979   6.809  1.00  0.00     0.135 C 
BRANCH  14  30
HETATM   30  C9  UNL     1      48.130   0.419   1.741  1.00  0.00    -0.003 C 
HETATM   31  C10 UNL     1      48.081  -0.927   1.150  1.00  0.00     0.011 C 
HETATM   32  C11 UNL     1      47.463   1.468   0.818  1.00  0.00     0.011 C 
ENDBRANCH  14  30
ENDBRANCH  12  14
ENDBRANCH   1  11
TORSDOF 5
ENDMDL
MODEL 4
REMARK VINA RESULT: -8.057599446      3.317      7.683
REMARK  5 active torsions:
REMARK  status: ('A' for Active; 'I' for Inactive)
REMARK    1  A    between atoms: C4_7  and  C5_8 
REMARK    2  A    between atoms: C5_8  and  N3_11 
REMARK    3  A    between atoms: C7_13  and  C8_14 
REMARK    4  A    between atoms: C8_14  and  C9_15 
REMARK    5  A    between atoms: C17_24  and  C18_25 
ROOT
HETATM    1  C5  UNL     1      44.606  -2.953   2.264  1.00  0.00     0.231 C 
HETATM    2  C6  UNL     1      43.903  -2.653   0.983  1.00  0.00     0.090 C 
HETATM    3  N2  UNL     1      43.372  -2.405  -0.016  1.00  0.00    -0.195 NA
ENDROOT
BRANCH   1   4
HETATM    4  C4  UNL     1      44.721  -4.482   2.220  1.00  0.00     0.042 A 
HETATM    5  C2  UNL     1      44.789  -5.366   3.261  1.00  0.00     0.021 A 
HETATM    6  C1  UNL     1      44.722  -4.955   4.724  1.00  0.00     0.069 C 
HETATM    7  N1  UNL     1      44.904  -6.633   2.955  1.00  0.00    -0.363 N 
HETATM    8  C3  UNL     1      44.949  -7.000   1.689  1.00  0.00     0.138 A 
ATOM      9  H1  UNL     1      44.958  -7.335   3.693  1.00  0.00     0.165 HD
HETATM   10  S1  UNL     1      44.824  -5.507   0.866  1.00  0.00    -0.084 SA
ENDBRANCH   1   4
BRANCH   1  11
HETATM   11  N3  UNL     1      45.859  -2.441   2.356  1.00  0.00    -0.381 N 
HETATM   12  C7  UNL     1      46.464  -1.283   2.617  1.00  0.00     0.074 C 
ATOM     13  H3  UNL     1      46.551  -3.166   2.167  1.00  0.00     0.160 HD
BRANCH  12  14
HETATM   14  C8  UNL     1      46.710  -0.585   3.946  1.00  0.00     0.040 C 
HETATM   15  C12 UNL     1      46.341   0.889   3.917  1.00  0.00     0.191 C 
HETATM   16  O1  UNL     1      47.210   1.809   3.804  1.00  0.00    -0.359 OA
HETATM   17  C13 UNL     1      48.298   2.417   4.032  1.00  0.00     0.137 C 
HETATM   18  C14 UNL     1      48.539   2.908   2.711  1.00  0.00     0.065 C 
HETATM   19  C20 UNL     1      48.036   2.822   5.378  1.00  0.00     0.062 C 
HETATM   20  N4  UNL     1      49.676   2.064   4.261  1.00  0.00    -0.346 N 
HETATM   21  C15 UNL     1      49.005   1.601   2.054  1.00  0.00     0.032 C 
HETATM   22  C16 UNL     1      48.598   0.298   2.557  1.00  0.00    -0.022 C 
HETATM   23  C17 UNL     1      48.253  -0.226   3.896  1.00  0.00    -0.056 C 
HETATM   24  C19 UNL     1      48.169   1.381   5.968  1.00  0.00     0.022 C 
HETATM   25  C18 UNL     1      48.792   0.344   5.113  1.00  0.00     0.021 A 
HETATM   26  C21 UNL     1      50.200   0.170   5.675  1.00  0.00     0.092 A 
HETATM   27  C23 UNL     1      50.070   0.768   4.426  1.00  0.00     0.116 A 
HETATM   28  S2  UNL     1      50.983   1.713   6.403  1.00  0.00    -0.116 SA
HETATM   29  C22 UNL     1      50.565   2.802   4.953  1.00  0.00     0.135 C 
BRANCH  14  30
HETATM   30  C9  UNL     1      46.317  -1.421   5.041  1.00  0.00    -0.003 C 
HETATM   31  C10 UNL     1      47.168  -2.327   5.828  1.00  0.00     0.011 C 
HETATM   32  C11 UNL     1      44.932  -1.225   5.706  1.00  0.00     0.011 C 
ENDBRANCH  14  30
ENDBRANCH  12  14
ENDBRANCH   1  11
TORSDOF 5
ENDMDL
MODEL 5
REMARK VINA RESULT: -8.006560534      2.929      7.660
REMARK  5 active torsions:
REMARK  status: ('A' for Active; 'I' for Inactive)
REMARK    1  A    between atoms: C4_7  and  C5_8 
REMARK    2  A    between atoms: C5_8  and  N3_11 
REMARK    3  A    between atoms: C7_13  and  C8_14 
REMARK    4  A    between atoms: C8_14  and  C9_15 
REMARK    5  A    between atoms: C17_24  and  C18_25 
ROOT
HETATM    1  C5  UNL     1      44.876  -2.427   2.707  1.00  0.00     0.231 C 
HETATM    2  C6  UNL     1      45.648  -2.032   1.493  1.00  0.00     0.090 C 
HETATM    3  N2  UNL     1      46.262  -1.718   0.563  1.00  0.00    -0.195 NA
ENDROOT
BRANCH   1   4
HETATM    4  C4  UNL     1      44.511  -3.885   2.399  1.00  0.00     0.042 A 
HETATM    5  C2  UNL     1      44.454  -4.951   3.252  1.00  0.00     0.021 A 
HETATM    6  C1  UNL     1      44.728  -4.855   4.745  1.00  0.00     0.069 C 
HETATM    7  N1  UNL     1      44.132  -6.108   2.732  1.00  0.00    -0.363 N 
HETATM    8  C3  UNL     1      43.880  -6.199   1.440  1.00  0.00     0.138 A 
ATOM      9  H1  UNL     1      44.075  -6.937   3.323  1.00  0.00     0.165 HD
HETATM   10  S1  UNL     1      44.100  -4.590   0.906  1.00  0.00    -0.084 SA
ENDBRANCH   1   4
BRANCH   1  11
HETATM   11  N3  UNL     1      45.588  -2.408   3.862  1.00  0.00    -0.381 N 
HETATM   12  C7  UNL     1      46.632  -1.778   4.399  1.00  0.00     0.074 C 
ATOM     13  H3  UNL     1      45.206  -3.084   4.523  1.00  0.00     0.160 HD
BRANCH  12  14
HETATM   14  C8  UNL     1      46.733  -0.383   4.996  1.00  0.00     0.040 C 
HETATM   15  C12 UNL     1      46.136   0.690   4.099  1.00  0.00     0.191 C 
HETATM   16  O1  UNL     1      46.850   1.453   3.377  1.00  0.00    -0.359 OA
HETATM   17  C13 UNL     1      47.823   2.216   3.098  1.00  0.00     0.137 C 
HETATM   18  C14 UNL     1      48.014   1.814   1.740  1.00  0.00     0.065 C 
HETATM   19  C20 UNL     1      47.468   3.324   3.930  1.00  0.00     0.062 C 
HETATM   20  N4  UNL     1      49.233   2.275   3.385  1.00  0.00    -0.346 N 
HETATM   21  C15 UNL     1      48.697   0.461   1.986  1.00  0.00     0.032 C 
HETATM   22  C16 UNL     1      48.489  -0.294   3.213  1.00  0.00    -0.022 C 
HETATM   23  C17 UNL     1      48.200   0.079   4.615  1.00  0.00    -0.056 C 
HETATM   24  C19 UNL     1      47.813   2.590   5.266  1.00  0.00     0.022 C 
HETATM   25  C18 UNL     1      48.613   1.346   5.179  1.00  0.00     0.021 A 
HETATM   26  C21 UNL     1      50.017   1.754   5.616  1.00  0.00     0.092 A 
HETATM   27  C23 UNL     1      49.824   1.429   4.278  1.00  0.00     0.116 A 
HETATM   28  S2  UNL     1      50.528   3.508   5.180  1.00  0.00    -0.116 SA
HETATM   29  C22 UNL     1      49.978   3.397   3.406  1.00  0.00     0.135 C 
BRANCH  14  30
HETATM   30  C9  UNL     1      46.451  -0.409   6.401  1.00  0.00    -0.003 C 
HETATM   31  C10 UNL     1      45.326   0.229   7.101  1.00  0.00     0.011 C 
HETATM   32  C11 UNL     1      47.202  -1.401   7.322  1.00  0.00     0.011 C 
ENDBRANCH  14  30
ENDBRANCH  12  14
ENDBRANCH   1  11
TORSDOF 5
ENDMDL
