MODEL 1
REMARK VINA RESULT: -9.679772295      0.000      0.000
REMARK  8 active torsions:
REMARK  status: ('A' for Active; 'I' for Inactive)
REMARK    1  A    between atoms: C2_2  and  C3_3 
REMARK    2  A    between atoms: C2_2  and  C19_22 
REMARK    3  A    between atoms: C3_3  and  C4_4 
REMARK    4  A    between atoms: C4_4  and  C5_5 
REMARK    5  A    between atoms: C19_22  and  C20_23 
REMARK    6  A    between atoms: C20_23  and  C21_24 
REMARK    7  A    between atoms: C21_24  and  O4_25 
REMARK    8  A    between atoms: C21_24  and  C22_27 
ROOT
HETATM    1  C5  UNL     1      45.580  -5.878   2.281  1.00  0.00    -0.006 C 
HETATM    2  C6  UNL     1      45.237  -7.314   2.475  1.00  0.00     0.014 C 
HETATM    3  C7  UNL     1      44.011  -7.506   1.612  1.00  0.00     0.033 A 
HETATM    4  C8  UNL     1      44.282  -7.898   0.122  1.00  0.00     0.071 A 
HETATM    5  C9  UNL     1      43.122  -8.603  -0.564  1.00  0.00     0.047 C 
HETATM    6  O1  UNL     1      45.477  -8.493  -0.038  1.00  0.00    -0.366 OA
HETATM    7  C10 UNL     1      46.340  -8.030  -0.963  1.00  0.00     0.093 C 
HETATM    8  C11 UNL     1      47.798  -8.263  -0.631  1.00  0.00     0.049 C 
HETATM    9  C12 UNL     1      46.138  -8.600  -2.373  1.00  0.00     0.151 C 
HETATM   10  C13 UNL     1      46.826  -7.545  -3.158  1.00  0.00     0.262 C 
HETATM   11  O2  UNL     1      47.254  -7.662  -4.325  1.00  0.00    -0.265 OA
HETATM   12  O3  UNL     1      46.932  -6.389  -2.401  1.00  0.00    -0.313 OA
HETATM   13  C14 UNL     1      46.080  -6.551  -1.285  1.00  0.00     0.167 C 
HETATM   14  C15 UNL     1      46.460  -5.776  -0.080  1.00  0.00     0.041 C 
HETATM   15  C16 UNL     1      45.251  -5.667   0.812  1.00  0.00     0.004 C 
HETATM   16  C17 UNL     1      44.122  -6.534   0.470  1.00  0.00    -0.002 A 
HETATM   17  C18 UNL     1      42.779  -5.873   0.129  1.00  0.00     0.019 C 
ENDROOT
BRANCH   1  18
HETATM   18  C4  UNL     1      44.560  -5.046   3.074  1.00  0.00     0.032 C 
BRANCH  18  19
HETATM   19  C3  UNL     1      45.083  -3.756   3.514  1.00  0.00    -0.024 C 
BRANCH  19  20
HETATM   20  C2  UNL     1      44.848  -2.572   2.956  1.00  0.00    -0.087 C 
HETATM   21  C1  UNL     1      44.418  -1.473   3.869  1.00  0.00     0.043 C 
BRANCH  20  22
HETATM   22  C19 UNL     1      45.063  -2.381   1.521  1.00  0.00     0.036 C 
BRANCH  22  23
HETATM   23  C20 UNL     1      46.413  -1.954   1.107  1.00  0.00     0.043 C 
BRANCH  23  24
HETATM   24  C21 UNL     1      46.599  -0.535   0.759  1.00  0.00     0.176 C 
BRANCH  24  25
HETATM   25  O4  UNL     1      47.117  -0.500  -0.588  1.00  0.00    -0.389 OA
ATOM     26  H4  UNL     1      46.585  -1.096  -1.103  1.00  0.00     0.210 HD
ENDBRANCH  24  25
BRANCH  24  27
HETATM   27  C22 UNL     1      47.701   0.074   1.604  1.00  0.00     0.096 A 
HETATM   28  N1  UNL     1      48.328  -0.558   2.614  1.00  0.00    -0.295 N 
HETATM   29  N2  UNL     1      49.211   0.051   3.267  1.00  0.00    -0.298 N 
ATOM     30  H1  UNL     1      48.088  -1.522   2.846  1.00  0.00     0.187 HD
HETATM   31  C23 UNL     1      49.523   1.307   2.964  1.00  0.00     0.064 A 
ATOM     32  H2  UNL     1      49.691  -0.421   4.032  1.00  0.00     0.187 HD
HETATM   33  C24 UNL     1      50.545   2.199   3.626  1.00  0.00     0.078 C 
HETATM   34  S1  UNL     1      48.458   1.585   1.658  1.00  0.00    -0.059 SA
ENDBRANCH  24  27
ENDBRANCH  23  24
ENDBRANCH  22  23
ENDBRANCH  20  22
ENDBRANCH  19  20
ENDBRANCH  18  19
ENDBRANCH   1  18
TORSDOF 8
ENDMDL
MODEL 2
REMARK VINA RESULT: -9.674230683      1.077      1.155
REMARK  8 active torsions:
REMARK  status: ('A' for Active; 'I' for Inactive)
REMARK    1  A    between atoms: C2_2  and  C3_3 
REMARK    2  A    between atoms: C2_2  and  C19_22 
REMARK    3  A    between atoms: C3_3  and  C4_4 
REMARK    4  A    between atoms: C4_4  and  C5_5 
REMARK    5  A    between atoms: C19_22  and  C20_23 
REMARK    6  A    between atoms: C20_23  and  C21_24 
REMARK    7  A    between atoms: C21_24  and  O4_25 
REMARK    8  A    between atoms: C21_24  and  C22_27 
ROOT
HETATM    1  C5  UNL     1      45.900  -5.749   1.867  1.00  0.00    -0.006 C 
HETATM    2  C6  UNL     1      45.850  -7.189   2.236  1.00  0.00     0.014 C 
HETATM    3  C7  UNL     1      44.593  -7.686   1.560  1.00  0.00     0.033 A 
HETATM    4  C8  UNL     1      44.767  -8.195   0.090  1.00  0.00     0.071 A 
HETATM    5  C9  UNL     1      43.687  -9.161  -0.373  1.00  0.00     0.047 C 
HETATM    6  O1  UNL     1      46.025  -8.591  -0.166  1.00  0.00    -0.366 OA
HETATM    7  C10 UNL     1      46.682  -8.096  -1.233  1.00  0.00     0.093 C 
HETATM    8  C11 UNL     1      48.185  -8.037  -1.071  1.00  0.00     0.049 C 
HETATM    9  C12 UNL     1      46.435  -8.850  -2.546  1.00  0.00     0.151 C 
HETATM   10  C13 UNL     1      46.827  -7.790  -3.509  1.00  0.00     0.262 C 
HETATM   11  O2  UNL     1      47.138  -7.965  -4.704  1.00  0.00    -0.265 OA
HETATM   12  O3  UNL     1      46.801  -6.554  -2.882  1.00  0.00    -0.313 OA
HETATM   13  C14 UNL     1      46.122  -6.730  -1.656  1.00  0.00     0.167 C 
HETATM   14  C15 UNL     1      46.482  -5.769  -0.587  1.00  0.00     0.041 C 
HETATM   15  C16 UNL     1      45.379  -5.766   0.439  1.00  0.00     0.004 C 
HETATM   16  C17 UNL     1      44.398  -6.848   0.327  1.00  0.00    -0.002 A 
HETATM   17  C18 UNL     1      42.927  -6.469   0.101  1.00  0.00     0.019 C 
ENDROOT
BRANCH   1  18
HETATM   18  C4  UNL     1      44.838  -5.018   2.703  1.00  0.00     0.032 C 
BRANCH  18  19
HETATM   19  C3  UNL     1      44.431  -3.737   2.131  1.00  0.00    -0.024 C 
BRANCH  19  20
HETATM   20  C2  UNL     1      44.958  -2.545   2.398  1.00  0.00    -0.087 C 
HETATM   21  C1  UNL     1      44.439  -1.838   3.606  1.00  0.00     0.043 C 
BRANCH  20  22
HETATM   22  C19 UNL     1      46.028  -2.010   1.557  1.00  0.00     0.036 C 
BRANCH  22  23
HETATM   23  C20 UNL     1      46.911  -1.002   2.173  1.00  0.00     0.043 C 
BRANCH  23  24
HETATM   24  C21 UNL     1      47.652  -0.105   1.270  1.00  0.00     0.176 C 
BRANCH  24  25
HETATM   25  O4  UNL     1      48.456  -0.946   0.415  1.00  0.00    -0.389 OA
ATOM     26  H4  UNL     1      49.363  -0.718   0.580  1.00  0.00     0.210 HD
ENDBRANCH  24  25
BRANCH  24  27
HETATM   27  C22 UNL     1      48.661   0.714   2.052  1.00  0.00     0.096 A 
HETATM   28  N1  UNL     1      49.157   1.900   1.653  1.00  0.00    -0.295 N 
HETATM   29  N2  UNL     1      50.009   2.482   2.368  1.00  0.00    -0.298 N 
ATOM     30  H1  UNL     1      48.844   2.322   0.778  1.00  0.00     0.187 HD
HETATM   31  C23 UNL     1      50.418   1.933   3.507  1.00  0.00     0.064 A 
ATOM     32  H2  UNL     1      50.389   3.381   2.073  1.00  0.00     0.187 HD
HETATM   33  C24 UNL     1      51.425   2.472   4.493  1.00  0.00     0.078 C 
HETATM   34  S1  UNL     1      49.495   0.496   3.506  1.00  0.00    -0.059 SA
ENDBRANCH  24  27
ENDBRANCH  23  24
ENDBRANCH  22  23
ENDBRANCH  20  22
ENDBRANCH  19  20
ENDBRANCH  18  19
ENDBRANCH   1  18
TORSDOF 8
ENDMDL
MODEL 3
REMARK VINA RESULT: -9.521096718      2.993      5.309
REMARK  8 active torsions:
REMARK  status: ('A' for Active; 'I' for Inactive)
REMARK    1  A    between atoms: C2_2  and  C3_3 
REMARK    2  A    between atoms: C2_2  and  C19_22 
REMARK    3  A    between atoms: C3_3  and  C4_4 
REMARK    4  A    between atoms: C4_4  and  C5_5 
REMARK    5  A    between atoms: C19_22  and  C20_23 
REMARK    6  A    between atoms: C20_23  and  C21_24 
REMARK    7  A    between atoms: C21_24  and  O4_25 
REMARK    8  A    between atoms: C21_24  and  C22_27 
ROOT
HETATM    1  C5  UNL     1      46.341  -7.870  -2.346  1.00  0.00    -0.006 C 
HETATM    2  C6  UNL     1      46.964  -8.031  -3.688  1.00  0.00     0.014 C 
HETATM    3  C7  UNL     1      48.204  -8.848  -3.408  1.00  0.00     0.033 A 
HETATM    4  C8  UNL     1      48.017 -10.402  -3.443  1.00  0.00     0.071 A 
HETATM    5  C9  UNL     1      49.296 -11.183  -3.707  1.00  0.00     0.047 C 
HETATM    6  O1  UNL     1      46.966 -10.771  -4.196  1.00  0.00    -0.366 OA
HETATM    7  C10 UNL     1      46.028 -11.591  -3.684  1.00  0.00     0.093 C 
HETATM    8  C11 UNL     1      44.647 -11.407  -4.273  1.00  0.00     0.049 C 
HETATM    9  C12 UNL     1      46.341 -13.087  -3.817  1.00  0.00     0.151 C 
HETATM   10  C13 UNL     1      45.455 -13.613  -2.747  1.00  0.00     0.262 C 
HETATM   11  O2  UNL     1      45.061 -14.791  -2.637  1.00  0.00    -0.265 OA
HETATM   12  O3  UNL     1      45.120 -12.592  -1.872  1.00  0.00    -0.313 OA
HETATM   13  C14 UNL     1      45.986 -11.511  -2.151  1.00  0.00     0.167 C 
HETATM   14  C15 UNL     1      45.459 -10.170  -1.805  1.00  0.00     0.041 C 
HETATM   15  C16 UNL     1      46.620  -9.217  -1.700  1.00  0.00     0.004 C 
HETATM   16  C17 UNL     1      47.901  -9.709  -2.213  1.00  0.00    -0.002 A 
HETATM   17  C18 UNL     1      49.084  -9.799  -1.239  1.00  0.00     0.019 C 
ENDROOT
BRANCH   1  18
HETATM   18  C4  UNL     1      47.172  -6.839  -1.568  1.00  0.00     0.032 C 
BRANCH  18  19
HETATM   19  C3  UNL     1      47.023  -6.948  -0.120  1.00  0.00    -0.024 C 
BRANCH  19  20
HETATM   20  C2  UNL     1      45.952  -6.617   0.595  1.00  0.00    -0.087 C 
HETATM   21  C1  UNL     1      45.621  -7.498   1.754  1.00  0.00     0.043 C 
BRANCH  20  22
HETATM   22  C19 UNL     1      45.191  -5.412   0.264  1.00  0.00     0.036 C 
BRANCH  22  23
HETATM   23  C20 UNL     1      44.500  -4.740   1.380  1.00  0.00     0.043 C 
BRANCH  23  24
HETATM   24  C21 UNL     1      43.986  -3.380   1.140  1.00  0.00     0.176 C 
BRANCH  24  25
HETATM   25  O4  UNL     1      43.400  -3.382  -0.179  1.00  0.00    -0.389 OA
ATOM     26  H4  UNL     1      43.429  -2.486  -0.494  1.00  0.00     0.210 HD
ENDBRANCH  24  25
BRANCH  24  27
HETATM   27  C22 UNL     1      45.134  -2.394   1.043  1.00  0.00     0.096 A 
HETATM   28  N1  UNL     1      45.647  -1.928  -0.111  1.00  0.00    -0.295 N 
HETATM   29  N2  UNL     1      46.616  -1.132  -0.077  1.00  0.00    -0.298 N 
ATOM     30  H1  UNL     1      45.252  -2.220  -1.005  1.00  0.00     0.187 HD
HETATM   31  C23 UNL     1      47.132  -0.752   1.088  1.00  0.00     0.064 A 
ATOM     32  H2  UNL     1      47.010  -0.775  -0.947  1.00  0.00     0.187 HD
HETATM   33  C24 UNL     1      48.287   0.187   1.334  1.00  0.00     0.078 C 
HETATM   34  S1  UNL     1      46.130  -1.618   2.167  1.00  0.00    -0.059 SA
ENDBRANCH  24  27
ENDBRANCH  23  24
ENDBRANCH  22  23
ENDBRANCH  20  22
ENDBRANCH  19  20
ENDBRANCH  18  19
ENDBRANCH   1  18
TORSDOF 8
ENDMDL
MODEL 4
REMARK VINA RESULT: -9.273542917      1.652      1.998
REMARK  8 active torsions:
REMARK  status: ('A' for Active; 'I' for Inactive)
REMARK    1  A    between atoms: C2_2  and  C3_3 
REMARK    2  A    between atoms: C2_2  and  C19_22 
REMARK    3  A    between atoms: C3_3  and  C4_4 
REMARK    4  A    between atoms: C4_4  and  C5_5 
REMARK    5  A    between atoms: C19_22  and  C20_23 
REMARK    6  A    between atoms: C20_23  and  C21_24 
REMARK    7  A    between atoms: C21_24  and  O4_25 
REMARK    8  A    between atoms: C21_24  and  C22_27 
ROOT
HETATM    1  C5  UNL     1      45.605  -5.053   1.695  1.00  0.00    -0.006 C 
HETATM    2  C6  UNL     1      45.551  -6.350   2.422  1.00  0.00     0.014 C 
HETATM    3  C7  UNL     1      44.363  -7.053   1.806  1.00  0.00     0.033 A 
HETATM    4  C8  UNL     1      44.666  -7.916   0.536  1.00  0.00     0.071 A 
HETATM    5  C9  UNL     1      43.645  -9.010   0.262  1.00  0.00     0.047 C 
HETATM    6  O1  UNL     1      45.948  -8.316   0.486  1.00  0.00    -0.366 OA
HETATM    7  C10 UNL     1      46.680  -8.087  -0.621  1.00  0.00     0.093 C 
HETATM    8  C11 UNL     1      48.164  -7.930  -0.369  1.00  0.00     0.049 C 
HETATM    9  C12 UNL     1      46.555  -9.163  -1.708  1.00  0.00     0.151 C 
HETATM   10  C13 UNL     1      47.005  -8.372  -2.881  1.00  0.00     0.262 C 
HETATM   11  O2  UNL     1      47.416  -8.838  -3.963  1.00  0.00    -0.265 OA
HETATM   12  O3  UNL     1      46.906  -7.019  -2.600  1.00  0.00    -0.313 OA
HETATM   13  C14 UNL     1      46.132  -6.899  -1.424  1.00  0.00     0.167 C 
HETATM   14  C15 UNL     1      46.386  -5.682  -0.618  1.00  0.00     0.041 C 
HETATM   15  C16 UNL     1      45.203  -5.457   0.287  1.00  0.00     0.004 C 
HETATM   16  C17 UNL     1      44.254  -6.568   0.388  1.00  0.00    -0.002 A 
HETATM   17  C18 UNL     1      42.800  -6.318  -0.038  1.00  0.00     0.019 C 
ENDROOT
BRANCH   1  18
HETATM   18  C4  UNL     1      44.466  -4.172   2.232  1.00  0.00     0.032 C 
BRANCH  18  19
HETATM   19  C3  UNL     1      44.522  -2.795   1.750  1.00  0.00    -0.024 C 
BRANCH  19  20
HETATM   20  C2  UNL     1      45.609  -2.038   1.636  1.00  0.00    -0.087 C 
HETATM   21  C1  UNL     1      46.059  -1.714   0.250  1.00  0.00     0.043 C 
BRANCH  20  22
HETATM   22  C19 UNL     1      46.275  -1.523   2.833  1.00  0.00     0.036 C 
BRANCH  22  23
HETATM   23  C20 UNL     1      47.346  -0.532   2.617  1.00  0.00     0.043 C 
BRANCH  23  24
HETATM   24  C21 UNL     1      47.591   0.447   3.690  1.00  0.00     0.176 C 
BRANCH  24  25
HETATM   25  O4  UNL     1      46.301   0.952   4.096  1.00  0.00    -0.389 OA
ATOM     26  H4  UNL     1      46.462   1.742   4.600  1.00  0.00     0.210 HD
ENDBRANCH  24  25
BRANCH  24  27
HETATM   27  C22 UNL     1      48.317   1.660   3.141  1.00  0.00     0.096 A 
HETATM   28  N1  UNL     1      49.175   1.632   2.104  1.00  0.00    -0.295 N 
HETATM   29  N2  UNL     1      49.742   2.694   1.746  1.00  0.00    -0.298 N 
ATOM     30  H1  UNL     1      49.363   0.758   1.614  1.00  0.00     0.187 HD
HETATM   31  C23 UNL     1      49.498   3.833   2.385  1.00  0.00     0.064 A 
ATOM     32  H2  UNL     1      50.393   2.681   0.961  1.00  0.00     0.187 HD
HETATM   33  C24 UNL     1      50.075   5.199   2.108  1.00  0.00     0.078 C 
HETATM   34  S1  UNL     1      48.381   3.296   3.561  1.00  0.00    -0.059 SA
ENDBRANCH  24  27
ENDBRANCH  23  24
ENDBRANCH  22  23
ENDBRANCH  20  22
ENDBRANCH  19  20
ENDBRANCH  18  19
ENDBRANCH   1  18
TORSDOF 8
ENDMDL
MODEL 5
REMARK VINA RESULT: -9.235699208      3.373      5.851
REMARK  8 active torsions:
REMARK  status: ('A' for Active; 'I' for Inactive)
REMARK    1  A    between atoms: C2_2  and  C3_3 
REMARK    2  A    between atoms: C2_2  and  C19_22 
REMARK    3  A    between atoms: C3_3  and  C4_4 
REMARK    4  A    between atoms: C4_4  and  C5_5 
REMARK    5  A    between atoms: C19_22  and  C20_23 
REMARK    6  A    between atoms: C20_23  and  C21_24 
REMARK    7  A    between atoms: C21_24  and  O4_25 
REMARK    8  A    between atoms: C21_24  and  C22_27 
ROOT
HETATM    1  C5  UNL     1      46.487  -7.925  -2.074  1.00  0.00    -0.006 C 
HETATM    2  C6  UNL     1      47.103  -8.022  -3.426  1.00  0.00     0.014 C 
HETATM    3  C7  UNL     1      48.318  -8.894  -3.200  1.00  0.00     0.033 A 
HETATM    4  C8  UNL     1      48.083 -10.436  -3.330  1.00  0.00     0.071 A 
HETATM    5  C9  UNL     1      49.336 -11.238  -3.645  1.00  0.00     0.047 C 
HETATM    6  O1  UNL     1      47.020 -10.726  -4.099  1.00  0.00    -0.366 OA
HETATM    7  C10 UNL     1      46.058 -11.545  -3.635  1.00  0.00     0.093 C 
HETATM    8  C11 UNL     1      44.681 -11.284  -4.207  1.00  0.00     0.049 C 
HETATM    9  C12 UNL     1      46.323 -13.040  -3.860  1.00  0.00     0.151 C 
HETATM   10  C13 UNL     1      45.423 -13.602  -2.822  1.00  0.00     0.262 C 
HETATM   11  O2  UNL     1      44.993 -14.772  -2.782  1.00  0.00    -0.265 OA
HETATM   12  O3  UNL     1      45.122 -12.627  -1.884  1.00  0.00    -0.313 OA
HETATM   13  C14 UNL     1      46.020 -11.558  -2.100  1.00  0.00     0.167 C 
HETATM   14  C15 UNL     1      45.535 -10.225  -1.672  1.00  0.00     0.041 C 
HETATM   15  C16 UNL     1      46.726  -9.317  -1.512  1.00  0.00     0.004 C 
HETATM   16  C17 UNL     1      47.990  -9.816  -2.059  1.00  0.00    -0.002 A 
HETATM   17  C18 UNL     1      49.171 -10.002  -1.096  1.00  0.00     0.019 C 
ENDROOT
BRANCH   1  18
HETATM   18  C4  UNL     1      47.352  -6.969  -1.238  1.00  0.00     0.032 C 
BRANCH  18  19
HETATM   19  C3  UNL     1      46.693  -6.510  -0.018  1.00  0.00    -0.024 C 
BRANCH  19  20
HETATM   20  C2  UNL     1      46.649  -7.148   1.149  1.00  0.00    -0.087 C 
HETATM   21  C1  UNL     1      47.942  -7.684   1.668  1.00  0.00     0.043 C 
BRANCH  20  22
HETATM   22  C19 UNL     1      45.388  -7.253   1.881  1.00  0.00     0.036 C 
BRANCH  22  23
HETATM   23  C20 UNL     1      44.677  -5.990   2.156  1.00  0.00     0.043 C 
BRANCH  23  24
HETATM   24  C21 UNL     1      44.591  -5.549   3.559  1.00  0.00     0.176 C 
BRANCH  24  25
HETATM   25  O4  UNL     1      43.262  -5.874   4.018  1.00  0.00    -0.389 OA
ATOM     26  H4  UNL     1      43.325  -6.036   4.952  1.00  0.00     0.210 HD
ENDBRANCH  24  25
BRANCH  24  27
HETATM   27  C22 UNL     1      44.661  -4.037   3.641  1.00  0.00     0.096 A 
HETATM   28  N1  UNL     1      44.868  -3.223   2.589  1.00  0.00    -0.295 N 
HETATM   29  N2  UNL     1      44.934  -1.983   2.774  1.00  0.00    -0.298 N 
ATOM     30  H1  UNL     1      44.971  -3.609   1.651  1.00  0.00     0.187 HD
HETATM   31  C23 UNL     1      44.800  -1.479   3.997  1.00  0.00     0.064 A 
ATOM     32  H2  UNL     1      45.090  -1.359   1.983  1.00  0.00     0.187 HD
HETATM   33  C24 UNL     1      44.849  -0.031   4.419  1.00  0.00     0.078 C 
HETATM   34  S1  UNL     1      44.569  -2.911   4.899  1.00  0.00    -0.059 SA
ENDBRANCH  24  27
ENDBRANCH  23  24
ENDBRANCH  22  23
ENDBRANCH  20  22
ENDBRANCH  19  20
ENDBRANCH  18  19
ENDBRANCH   1  18
TORSDOF 8
ENDMDL
