MODEL 1
REMARK VINA RESULT: -7.570939799      0.000      0.000
REMARK  3 active torsions:
REMARK  status: ('A' for Active; 'I' for Inactive)
REMARK    1  A    between atoms: C7_7  and  C8_8 
REMARK    2  A    between atoms: C8_8  and  C9_9 
REMARK    3  A    between atoms: C10_12  and  O3_13 
ROOT
HETATM    1  C1  UNL     1      25.247  15.169  31.427  1.00  0.00     0.011 C 
HETATM    2  C2  UNL     1      24.548  16.228  32.192  1.00  0.00    -0.006 C 
HETATM    3  C3  UNL     1      23.771  17.215  31.375  1.00  0.00     0.014 C 
HETATM    4  C4  UNL     1      22.467  17.296  32.134  1.00  0.00     0.044 C 
HETATM    5  C5  UNL     1      22.775  17.850  33.493  1.00  0.00     0.092 C 
HETATM    6  C6  UNL     1      23.414  16.709  34.283  1.00  0.00     0.039 C 
HETATM    7  C7  UNL     1      23.568  15.659  33.254  1.00  0.00     0.006 C 
HETATM    8  C10 UNL     1      22.301  15.809  32.459  1.00  0.00     0.072 C 
HETATM    9  C11 UNL     1      21.022  15.530  33.136  1.00  0.00     0.039 C 
HETATM   10  C12 UNL     1      19.875  16.140  32.337  1.00  0.00     0.012 C 
HETATM   11  C13 UNL     1      19.321  17.390  32.926  1.00  0.00     0.103 C 
HETATM   12  C14 UNL     1      20.196  18.098  33.872  1.00  0.00     0.217 C 
HETATM   13  O4  UNL     1      19.520  18.648  34.794  1.00  0.00    -0.274 OA
HETATM   14  N1  UNL     1      21.577  18.360  34.081  1.00  0.00    -0.356 N 
ATOM     15  H1  UNL     1      21.749  19.061  34.801  1.00  0.00     0.162 HD
ENDROOT
BRANCH   7  16
HETATM   16  C8  UNL     1      23.991  14.318  33.644  1.00  0.00     0.126 C 
BRANCH  16  17
HETATM   17  C9  UNL     1      23.281  13.134  33.213  1.00  0.00     0.173 C 
HETATM   18  O1  UNL     1      23.485  12.537  32.149  1.00  0.00    -0.648 OA
HETATM   19  O2  UNL     1      22.261  12.550  34.017  1.00  0.00    -0.648 OA
ENDBRANCH  16  17
ENDBRANCH   7  16
BRANCH   8  20
HETATM   20  O3  UNL     1      22.313  15.117  31.250  1.00  0.00    -0.389 OA
ATOM     21  H3  UNL     1      23.222  15.005  30.998  1.00  0.00     0.210 HD
ENDBRANCH   8  20
TORSDOF 3
ENDMDL
MODEL 2
REMARK VINA RESULT: -7.085458554      2.418      3.830
REMARK  3 active torsions:
REMARK  status: ('A' for Active; 'I' for Inactive)
REMARK    1  A    between atoms: C7_7  and  C8_8 
REMARK    2  A    between atoms: C8_8  and  C9_9 
REMARK    3  A    between atoms: C10_12  and  O3_13 
ROOT
HETATM    1  C1  UNL     1      26.312  15.775  33.157  1.00  0.00     0.011 C 
HETATM    2  C2  UNL     1      24.977  15.444  32.605  1.00  0.00    -0.006 C 
HETATM    3  C3  UNL     1      24.038  14.751  33.545  1.00  0.00     0.014 C 
HETATM    4  C4  UNL     1      22.755  15.518  33.332  1.00  0.00     0.044 C 
HETATM    5  C5  UNL     1      22.339  15.307  31.907  1.00  0.00     0.092 C 
HETATM    6  C6  UNL     1      23.258  16.186  31.061  1.00  0.00     0.039 C 
HETATM    7  C7  UNL     1      24.224  16.689  32.060  1.00  0.00     0.006 C 
HETATM    8  C10 UNL     1      23.344  16.929  33.256  1.00  0.00     0.072 C 
HETATM    9  C11 UNL     1      22.296  17.961  33.147  1.00  0.00     0.039 C 
HETATM   10  C12 UNL     1      21.263  17.761  34.250  1.00  0.00     0.012 C 
HETATM   11  C13 UNL     1      19.986  17.151  33.785  1.00  0.00     0.103 C 
HETATM   12  C14 UNL     1      20.049  16.425  32.508  1.00  0.00     0.217 C 
HETATM   13  O4  UNL     1      18.967  16.553  31.858  1.00  0.00    -0.274 OA
HETATM   14  N1  UNL     1      20.952  15.617  31.766  1.00  0.00    -0.356 N 
ATOM     15  H1  UNL     1      20.517  15.162  30.963  1.00  0.00     0.162 HD
ENDROOT
BRANCH   7  16
HETATM   16  C8  UNL     1      25.186  17.719  31.685  1.00  0.00     0.126 C 
BRANCH  16  17
HETATM   17  C9  UNL     1      25.104  18.424  30.424  1.00  0.00     0.173 C 
HETATM   18  O1  UNL     1      25.846  18.224  29.455  1.00  0.00    -0.648 OA
HETATM   19  O2  UNL     1      24.122  19.432  30.203  1.00  0.00    -0.648 OA
ENDBRANCH  16  17
ENDBRANCH   7  16
BRANCH   8  20
HETATM   20  O3  UNL     1      24.049  17.148  34.436  1.00  0.00    -0.389 OA
ATOM     21  H3  UNL     1      23.428  17.463  35.082  1.00  0.00     0.210 HD
ENDBRANCH   8  20
TORSDOF 3
ENDMDL
MODEL 3
REMARK VINA RESULT: -6.704781437      2.207      3.639
REMARK  3 active torsions:
REMARK  status: ('A' for Active; 'I' for Inactive)
REMARK    1  A    between atoms: C7_7  and  C8_8 
REMARK    2  A    between atoms: C8_8  and  C9_9 
REMARK    3  A    between atoms: C10_12  and  O3_13 
ROOT
HETATM    1  C1  UNL     1      25.648  13.930  32.376  1.00  0.00     0.011 C 
HETATM    2  C2  UNL     1      24.282  14.461  32.158  1.00  0.00    -0.006 C 
HETATM    3  C3  UNL     1      23.271  14.105  33.206  1.00  0.00     0.014 C 
HETATM    4  C4  UNL     1      22.593  15.432  33.453  1.00  0.00     0.044 C 
HETATM    5  C5  UNL     1      21.920  15.835  32.175  1.00  0.00     0.092 C 
HETATM    6  C6  UNL     1      23.029  16.330  31.248  1.00  0.00     0.039 C 
HETATM    7  C7  UNL     1      24.250  16.008  32.015  1.00  0.00     0.006 C 
HETATM    8  C10 UNL     1      23.833  16.330  33.423  1.00  0.00     0.072 C 
HETATM    9  C11 UNL     1      23.508  17.732  33.744  1.00  0.00     0.039 C 
HETATM   10  C12 UNL     1      22.711  17.789  35.043  1.00  0.00     0.012 C 
HETATM   11  C13 UNL     1      21.255  18.037  34.853  1.00  0.00     0.103 C 
HETATM   12  C14 UNL     1      20.722  17.739  33.516  1.00  0.00     0.217 C 
HETATM   13  O4  UNL     1      19.798  18.550  33.202  1.00  0.00    -0.274 OA
HETATM   14  N1  UNL     1      20.919  16.816  32.454  1.00  0.00    -0.356 N 
ATOM     15  H1  UNL     1      20.193  16.864  31.740  1.00  0.00     0.162 HD
ENDROOT
BRANCH   7  16
HETATM   16  C8  UNL     1      25.548  16.484  31.548  1.00  0.00     0.126 C 
BRANCH  16  17
HETATM   17  C9  UNL     1      25.686  17.700  30.776  1.00  0.00     0.173 C 
HETATM   18  O1  UNL     1      25.770  17.746  29.543  1.00  0.00    -0.648 OA
HETATM   19  O2  UNL     1      25.737  18.975  31.408  1.00  0.00    -0.648 OA
ENDBRANCH  16  17
ENDBRANCH   7  16
BRANCH   8  20
HETATM   20  O3  UNL     1      24.712  15.854  34.392  1.00  0.00    -0.389 OA
ATOM     21  H3  UNL     1      25.566  16.227  34.206  1.00  0.00     0.210 HD
ENDBRANCH   8  20
TORSDOF 3
ENDMDL
MODEL 4
REMARK VINA RESULT: -6.683514806      1.230      1.435
REMARK  3 active torsions:
REMARK  status: ('A' for Active; 'I' for Inactive)
REMARK    1  A    between atoms: C7_7  and  C8_8 
REMARK    2  A    between atoms: C8_8  and  C9_9 
REMARK    3  A    between atoms: C10_12  and  O3_13 
ROOT
HETATM    1  C1  UNL     1      25.354  14.446  30.276  1.00  0.00     0.011 C 
HETATM    2  C2  UNL     1      25.123  15.332  31.441  1.00  0.00    -0.006 C 
HETATM    3  C3  UNL     1      24.677  16.726  31.119  1.00  0.00     0.014 C 
HETATM    4  C4  UNL     1      23.542  16.928  32.095  1.00  0.00     0.044 C 
HETATM    5  C5  UNL     1      24.123  16.857  33.476  1.00  0.00     0.092 C 
HETATM    6  C6  UNL     1      24.383  15.377  33.752  1.00  0.00     0.039 C 
HETATM    7  C7  UNL     1      24.088  14.754  32.445  1.00  0.00     0.006 C 
HETATM    8  C10 UNL     1      22.896  15.544  31.981  1.00  0.00     0.072 C 
HETATM    9  C11 UNL     1      21.653  15.448  32.768  1.00  0.00     0.039 C 
HETATM   10  C12 UNL     1      20.733  16.612  32.418  1.00  0.00     0.012 C 
HETATM   11  C13 UNL     1      20.691  17.686  33.448  1.00  0.00     0.103 C 
HETATM   12  C14 UNL     1      21.824  17.723  34.384  1.00  0.00     0.217 C 
HETATM   13  O4  UNL     1      21.451  18.096  35.538  1.00  0.00    -0.274 OA
HETATM   14  N1  UNL     1      23.222  17.468  34.402  1.00  0.00    -0.356 N 
ATOM     15  H1  UNL     1      23.679  17.788  35.255  1.00  0.00     0.162 HD
ENDROOT
BRANCH   7  16
HETATM   16  C8  UNL     1      24.049  13.300  32.326  1.00  0.00     0.126 C 
BRANCH  16  17
HETATM   17  C9  UNL     1      23.765  12.445  33.458  1.00  0.00     0.173 C 
HETATM   18  O1  UNL     1      24.623  11.897  34.161  1.00  0.00    -0.648 OA
HETATM   19  O2  UNL     1      22.427  12.167  33.859  1.00  0.00    -0.648 OA
ENDBRANCH  16  17
ENDBRANCH   7  16
BRANCH   8  20
HETATM   20  O3  UNL     1      22.579  15.345  30.640  1.00  0.00    -0.389 OA
ATOM     21  H3  UNL     1      21.751  15.783  30.478  1.00  0.00     0.210 HD
ENDBRANCH   8  20
TORSDOF 3
ENDMDL
MODEL 5
REMARK VINA RESULT: -6.466125988      2.844      4.416
REMARK  3 active torsions:
REMARK  status: ('A' for Active; 'I' for Inactive)
REMARK    1  A    between atoms: C7_7  and  C8_8 
REMARK    2  A    between atoms: C8_8  and  C9_9 
REMARK    3  A    between atoms: C10_12  and  O3_13 
ROOT
HETATM    1  C1  UNL     1      23.855  14.302  32.060  1.00  0.00     0.011 C 
HETATM    2  C2  UNL     1      24.319  15.553  32.702  1.00  0.00    -0.006 C 
HETATM    3  C3  UNL     1      25.778  15.861  32.548  1.00  0.00     0.014 C 
HETATM    4  C4  UNL     1      25.754  17.323  32.170  1.00  0.00     0.044 C 
HETATM    5  C5  UNL     1      25.169  18.074  33.328  1.00  0.00     0.092 C 
HETATM    6  C6  UNL     1      23.664  17.816  33.285  1.00  0.00     0.039 C 
HETATM    7  C7  UNL     1      23.546  16.808  32.211  1.00  0.00     0.006 C 
HETATM    8  C10 UNL     1      24.560  17.291  31.212  1.00  0.00     0.072 C 
HETATM    9  C11 UNL     1      24.331  18.598  30.570  1.00  0.00     0.039 C 
HETATM   10  C12 UNL     1      25.631  19.100  29.951  1.00  0.00     0.012 C 
HETATM   11  C13 UNL     1      26.298  20.181  30.730  1.00  0.00     0.103 C 
HETATM   12  C14 UNL     1      25.906  20.289  32.143  1.00  0.00     0.217 C 
HETATM   13  O4  UNL     1      25.908  21.499  32.524  1.00  0.00    -0.274 OA
HETATM   14  N1  UNL     1      25.522  19.455  33.227  1.00  0.00    -0.356 N 
ATOM     15  H1  UNL     1      25.492  19.945  34.120  1.00  0.00     0.162 HD
ENDROOT
BRANCH   7  16
HETATM   16  C8  UNL     1      22.227  16.413  31.728  1.00  0.00     0.126 C 
BRANCH  16  17
HETATM   17  C9  UNL     1      21.056  16.447  32.578  1.00  0.00     0.173 C 
HETATM   18  O1  UNL     1      20.307  17.422  32.707  1.00  0.00    -0.648 OA
HETATM   19  O2  UNL     1      20.671  15.315  33.352  1.00  0.00    -0.648 OA
ENDBRANCH  16  17
ENDBRANCH   7  16
BRANCH   8  20
HETATM   20  O3  UNL     1      24.853  16.362  30.217  1.00  0.00    -0.389 OA
ATOM     21  H3  UNL     1      24.196  16.460  29.537  1.00  0.00     0.210 HD
ENDBRANCH   8  20
TORSDOF 3
ENDMDL
