MODEL 1
REMARK VINA RESULT: -6.483991013      0.000      0.000
REMARK  4 active torsions:
REMARK  status: ('A' for Active; 'I' for Inactive)
REMARK    1  A    between atoms: C2_2  and  C3_3 
REMARK       I    between atoms: C3_3  and  N1_5 
REMARK       I    between atoms: C4_7  and  N2_8 
REMARK       I    between atoms: C4_7  and  N4_13 
REMARK    2  A    between atoms: N2_8  and  C5_10 
REMARK    3  A    between atoms: N4_13  and  C7_15 
REMARK    4  A    between atoms: C11_19  and  O2_21 
ROOT
HETATM    1  C5  UNL     1      23.647  15.847  29.954  1.00  0.00     0.262 C 
HETATM    2  C6  UNL     1      24.321  14.752  30.635  1.00  0.00     0.079 C 
HETATM    3  N3  UNL     1      24.865  13.885  31.159  1.00  0.00    -0.196 NA
ENDROOT
BRANCH   1   4
HETATM    4  N2  UNL     1      23.426  16.964  30.846  1.00  0.00    -0.214 N 
HETATM    5  C4  UNL     1      22.478  16.967  31.886  1.00  0.00     0.677 C 
HETATM    6  N1  UNL     1      21.450  16.212  31.797  1.00  0.00    -0.160 N 
HETATM    7  N4  UNL     1      22.663  17.789  33.001  1.00  0.00    -0.222 N 
HETATM    8  C3  UNL     1      20.414  16.089  32.729  1.00  0.00     0.235 C 
ATOM      9  H1  UNL     1      21.377  15.639  30.957  1.00  0.00     0.187 HD
HETATM   10  O1  UNL     1      20.468  15.243  33.666  1.00  0.00    -0.273 OA
ATOM     11  H4  UNL     1      22.246  18.720  32.979  1.00  0.00     0.178 HD
ATOM     12  H2  UNL     1      23.993  17.801  30.713  1.00  0.00     0.178 HD
BRANCH   8  13
HETATM   13  C2  UNL     1      19.192  16.958  32.651  1.00  0.00     0.099 C 
HETATM   14  C1  UNL     1      19.094  17.865  33.845  1.00  0.00     0.014 C 
ENDBRANCH   8  13
BRANCH   7  15
HETATM   15  C7  UNL     1      23.411  17.410  34.193  1.00  0.00     0.102 C 
HETATM   16  C8  UNL     1      24.867  17.151  33.893  1.00  0.00     0.026 C 
HETATM   17  C9  UNL     1      25.559  17.006  35.246  1.00  0.00     0.005 C 
HETATM   18  C10 UNL     1      25.659  18.391  35.828  1.00  0.00     0.037 C 
HETATM   19  C11 UNL     1      24.400  19.185  35.686  1.00  0.00     0.056 C 
HETATM   20  C12 UNL     1      24.118  19.819  37.050  1.00  0.00     0.045 C 
HETATM   21  C13 UNL     1      23.194  18.380  35.312  1.00  0.00     0.063 C 
BRANCH  19  22
HETATM   22  O2  UNL     1      24.593  20.258  34.803  1.00  0.00    -0.390 OA
ATOM     23  H2  UNL     1      23.764  20.538  34.434  1.00  0.00     0.210 HD
ENDBRANCH  19  22
ENDBRANCH   7  15
ENDBRANCH   1   4
TORSDOF 4
ENDMDL
MODEL 2
REMARK VINA RESULT: -6.451790074      2.678      3.654
REMARK  4 active torsions:
REMARK  status: ('A' for Active; 'I' for Inactive)
REMARK    1  A    between atoms: C2_2  and  C3_3 
REMARK       I    between atoms: C3_3  and  N1_5 
REMARK       I    between atoms: C4_7  and  N2_8 
REMARK       I    between atoms: C4_7  and  N4_13 
REMARK    2  A    between atoms: N2_8  and  C5_10 
REMARK    3  A    between atoms: N4_13  and  C7_15 
REMARK    4  A    between atoms: C11_19  and  O2_21 
ROOT
HETATM    1  C5  UNL     1      23.554  13.313  33.343  1.00  0.00     0.262 C 
HETATM    2  C6  UNL     1      23.349  11.942  32.901  1.00  0.00     0.079 C 
HETATM    3  N3  UNL     1      23.178  10.855  32.568  1.00  0.00    -0.196 NA
ENDROOT
BRANCH   1   4
HETATM    4  N2  UNL     1      23.292  14.253  32.275  1.00  0.00    -0.214 N 
HETATM    5  C4  UNL     1      22.456  15.379  32.402  1.00  0.00     0.677 C 
HETATM    6  N1  UNL     1      21.521  15.368  33.272  1.00  0.00    -0.160 N 
HETATM    7  N4  UNL     1      22.652  16.494  31.581  1.00  0.00    -0.222 N 
HETATM    8  C3  UNL     1      20.603  16.389  33.534  1.00  0.00     0.235 C 
ATOM      9  H1  UNL     1      21.434  14.523  33.836  1.00  0.00     0.187 HD
HETATM   10  O1  UNL     1      20.847  17.294  34.382  1.00  0.00    -0.273 OA
ATOM     11  H4  UNL     1      22.128  16.537  30.707  1.00  0.00     0.178 HD
ATOM     12  H2  UNL     1      23.741  14.090  31.373  1.00  0.00     0.178 HD
BRANCH   8  13
HETATM   13  C2  UNL     1      19.285  16.453  32.815  1.00  0.00     0.099 C 
HETATM   14  C1  UNL     1      18.623  17.787  33.013  1.00  0.00     0.014 C 
ENDBRANCH   8  13
BRANCH   7  15
HETATM   15  C7  UNL     1      23.552  17.597  31.887  1.00  0.00     0.102 C 
HETATM   16  C8  UNL     1      24.535  17.246  32.977  1.00  0.00     0.026 C 
HETATM   17  C9  UNL     1      25.548  18.387  33.019  1.00  0.00     0.005 C 
HETATM   18  C10 UNL     1      26.432  18.221  31.812  1.00  0.00     0.037 C 
HETATM   19  C11 UNL     1      25.675  17.906  30.562  1.00  0.00     0.056 C 
HETATM   20  C12 UNL     1      26.216  18.832  29.470  1.00  0.00     0.045 C 
HETATM   21  C13 UNL     1      24.199  18.141  30.652  1.00  0.00     0.063 C 
BRANCH  19  22
HETATM   22  O2  UNL     1      25.960  16.603  30.130  1.00  0.00    -0.390 OA
ATOM     23  H2  UNL     1      26.325  16.616  29.253  1.00  0.00     0.210 HD
ENDBRANCH  19  22
ENDBRANCH   7  15
ENDBRANCH   1   4
TORSDOF 4
ENDMDL
MODEL 3
REMARK VINA RESULT: -6.343504052      2.849      4.916
REMARK  4 active torsions:
REMARK  status: ('A' for Active; 'I' for Inactive)
REMARK    1  A    between atoms: C2_2  and  C3_3 
REMARK       I    between atoms: C3_3  and  N1_5 
REMARK       I    between atoms: C4_7  and  N2_8 
REMARK       I    between atoms: C4_7  and  N4_13 
REMARK    2  A    between atoms: N2_8  and  C5_10 
REMARK    3  A    between atoms: N4_13  and  C7_15 
REMARK    4  A    between atoms: C11_19  and  O2_21 
ROOT
HETATM    1  C5  UNL     1      20.432  16.614  32.699  1.00  0.00     0.262 C 
HETATM    2  C6  UNL     1      19.191  16.953  33.377  1.00  0.00     0.079 C 
HETATM    3  N3  UNL     1      18.201  17.209  33.904  1.00  0.00    -0.196 NA
ENDROOT
BRANCH   1   4
HETATM    4  N2  UNL     1      21.534  16.530  33.632  1.00  0.00    -0.214 N 
HETATM    5  C4  UNL     1      22.651  15.690  33.460  1.00  0.00     0.677 C 
HETATM    6  N1  UNL     1      22.532  14.627  32.759  1.00  0.00    -0.160 N 
HETATM    7  N4  UNL     1      23.874  16.019  34.052  1.00  0.00    -0.222 N 
HETATM    8  C3  UNL     1      23.528  13.685  32.486  1.00  0.00     0.235 C 
ATOM      9  H1  UNL     1      21.613  14.448  32.357  1.00  0.00     0.187 HD
HETATM   10  O1  UNL     1      24.281  13.795  31.477  1.00  0.00    -0.273 OA
ATOM     11  H4  UNL     1      24.068  15.641  34.980  1.00  0.00     0.178 HD
ATOM     12  H2  UNL     1      21.500  17.115  34.466  1.00  0.00     0.178 HD
BRANCH   8  13
HETATM   13  C2  UNL     1      23.742  12.498  33.382  1.00  0.00     0.099 C 
HETATM   14  C1  UNL     1      25.125  11.936  33.218  1.00  0.00     0.014 C 
ENDBRANCH   8  13
BRANCH   7  15
HETATM   15  C7  UNL     1      24.889  16.864  33.439  1.00  0.00     0.102 C 
HETATM   16  C8  UNL     1      26.069  16.067  32.942  1.00  0.00     0.026 C 
HETATM   17  C9  UNL     1      26.921  17.035  32.124  1.00  0.00     0.005 C 
HETATM   18  C10 UNL     1      26.193  17.253  30.824  1.00  0.00     0.037 C 
HETATM   19  C11 UNL     1      24.724  17.473  30.997  1.00  0.00     0.056 C 
HETATM   20  C12 UNL     1      24.353  18.689  30.145  1.00  0.00     0.045 C 
HETATM   21  C13 UNL     1      24.301  17.769  32.403  1.00  0.00     0.063 C 
BRANCH  19  22
HETATM   22  O2  UNL     1      24.000  16.399  30.460  1.00  0.00    -0.390 OA
ATOM     23  H2  UNL     1      23.314  16.128  31.059  1.00  0.00     0.210 HD
ENDBRANCH  19  22
ENDBRANCH   7  15
ENDBRANCH   1   4
TORSDOF 4
ENDMDL
MODEL 4
REMARK VINA RESULT: -6.300706939      2.006      4.045
REMARK  4 active torsions:
REMARK  status: ('A' for Active; 'I' for Inactive)
REMARK    1  A    between atoms: C2_2  and  C3_3 
REMARK       I    between atoms: C3_3  and  N1_5 
REMARK       I    between atoms: C4_7  and  N2_8 
REMARK       I    between atoms: C4_7  and  N4_13 
REMARK    2  A    between atoms: N2_8  and  C5_10 
REMARK    3  A    between atoms: N4_13  and  C7_15 
REMARK    4  A    between atoms: C11_19  and  O2_21 
ROOT
HETATM    1  C5  UNL     1      20.366  18.529  34.282  1.00  0.00     0.262 C 
HETATM    2  C6  UNL     1      19.030  18.270  33.767  1.00  0.00     0.079 C 
HETATM    3  N3  UNL     1      17.975  18.082  33.350  1.00  0.00    -0.196 NA
ENDROOT
BRANCH   1   4
HETATM    4  N2  UNL     1      21.159  17.319  34.314  1.00  0.00    -0.214 N 
HETATM    5  C4  UNL     1      22.343  17.132  33.576  1.00  0.00     0.677 C 
HETATM    6  N1  UNL     1      22.517  17.792  32.495  1.00  0.00    -0.160 N 
HETATM    7  N4  UNL     1      23.314  16.232  34.024  1.00  0.00    -0.222 N 
HETATM    8  C3  UNL     1      23.623  17.732  31.642  1.00  0.00     0.235 C 
ATOM      9  H1  UNL     1      21.769  18.430  32.226  1.00  0.00     0.187 HD
HETATM   10  O1  UNL     1      24.621  18.490  31.802  1.00  0.00    -0.273 OA
ATOM     11  H4  UNL     1      23.266  15.273  33.682  1.00  0.00     0.178 HD
ATOM     12  H2  UNL     1      20.840  16.554  34.908  1.00  0.00     0.178 HD
BRANCH   8  13
HETATM   13  C2  UNL     1      23.668  16.763  30.495  1.00  0.00     0.099 C 
HETATM   14  C1  UNL     1      24.847  15.839  30.612  1.00  0.00     0.014 C 
ENDBRANCH   8  13
BRANCH   7  15
HETATM   15  C7  UNL     1      24.389  16.569  34.947  1.00  0.00     0.102 C 
HETATM   16  C8  UNL     1      25.722  16.687  34.250  1.00  0.00     0.026 C 
HETATM   17  C9  UNL     1      26.689  17.270  35.279  1.00  0.00     0.005 C 
HETATM   18  C10 UNL     1      26.340  18.728  35.416  1.00  0.00     0.037 C 
HETATM   19  C11 UNL     1      24.869  18.979  35.509  1.00  0.00     0.056 C 
HETATM   20  C12 UNL     1      24.657  19.945  36.678  1.00  0.00     0.045 C 
HETATM   21  C13 UNL     1      24.046  17.760  35.785  1.00  0.00     0.063 C 
BRANCH  19  22
HETATM   22  O2  UNL     1      24.414  19.658  34.370  1.00  0.00    -0.390 OA
ATOM     23  H2  UNL     1      24.786  20.531  34.332  1.00  0.00     0.210 HD
ENDBRANCH  19  22
ENDBRANCH   7  15
ENDBRANCH   1   4
TORSDOF 4
ENDMDL
MODEL 5
REMARK VINA RESULT: -6.241260767      2.407      5.448
REMARK  4 active torsions:
REMARK  status: ('A' for Active; 'I' for Inactive)
REMARK    1  A    between atoms: C2_2  and  C3_3 
REMARK       I    between atoms: C3_3  and  N1_5 
REMARK       I    between atoms: C4_7  and  N2_8 
REMARK       I    between atoms: C4_7  and  N4_13 
REMARK    2  A    between atoms: N2_8  and  C5_10 
REMARK    3  A    between atoms: N4_13  and  C7_15 
REMARK    4  A    between atoms: C11_19  and  O2_21 
ROOT
HETATM    1  C5  UNL     1      20.959  17.292  33.887  1.00  0.00     0.262 C 
HETATM    2  C6  UNL     1      19.504  17.293  33.871  1.00  0.00     0.079 C 
HETATM    3  N3  UNL     1      18.355  17.306  33.872  1.00  0.00    -0.196 NA
ENDROOT
BRANCH   1   4
HETATM    4  N2  UNL     1      21.498  17.329  32.545  1.00  0.00    -0.214 N 
HETATM    5  C4  UNL     1      22.872  17.419  32.249  1.00  0.00     0.677 C 
HETATM    6  N1  UNL     1      23.660  17.957  33.098  1.00  0.00    -0.160 N 
HETATM    7  N4  UNL     1      23.362  16.924  31.037  1.00  0.00    -0.222 N 
HETATM    8  C3  UNL     1      25.042  18.130  32.972  1.00  0.00     0.235 C 
ATOM      9  H1  UNL     1      23.237  18.297  33.961  1.00  0.00     0.187 HD
HETATM   10  O1  UNL     1      25.856  17.247  33.364  1.00  0.00    -0.273 OA
ATOM     11  H4  UNL     1      23.423  17.571  30.251  1.00  0.00     0.178 HD
ATOM     12  H2  UNL     1      20.843  17.286  31.765  1.00  0.00     0.178 HD
BRANCH   8  13
HETATM   13  C2  UNL     1      25.616  19.378  32.363  1.00  0.00     0.099 C 
HETATM   14  C1  UNL     1      26.260  19.088  31.037  1.00  0.00     0.014 C 
ENDBRANCH   8  13
BRANCH   7  15
HETATM   15  C7  UNL     1      23.790  15.550  30.817  1.00  0.00     0.102 C 
HETATM   16  C8  UNL     1      25.288  15.434  30.684  1.00  0.00     0.026 C 
HETATM   17  C9  UNL     1      25.602  13.940  30.702  1.00  0.00     0.005 C 
HETATM   18  C10 UNL     1      25.435  13.484  32.127  1.00  0.00     0.037 C 
HETATM   19  C11 UNL     1      24.203  14.022  32.781  1.00  0.00     0.056 C 
HETATM   20  C12 UNL     1      23.518  12.844  33.476  1.00  0.00     0.045 C 
HETATM   21  C13 UNL     1      23.208  14.621  31.836  1.00  0.00     0.063 C 
BRANCH  19  22
HETATM   22  O2  UNL     1      24.542  14.920  33.803  1.00  0.00    -0.390 OA
ATOM     23  H2  UNL     1      23.819  15.510  33.981  1.00  0.00     0.210 HD
ENDBRANCH  19  22
ENDBRANCH   7  15
ENDBRANCH   1   4
TORSDOF 4
ENDMDL
