MODEL 1
REMARK VINA RESULT: -6.852738218      0.000      0.000
REMARK  3 active torsions:
REMARK  status: ('A' for Active; 'I' for Inactive)
REMARK    1  A    between atoms: C2_2  and  C13_20 
REMARK       I    between atoms: N1_3  and  C3_5 
REMARK    2  A    between atoms: C3_5  and  C4_7 
REMARK    3  A    between atoms: N2_11  and  C8_12 
ROOT
HETATM    1  C4  UNL     1      21.827  17.840  33.268  1.00  0.00     0.322 C 
HETATM    2  C5  UNL     1      22.476  16.562  32.718  1.00  0.00     0.053 C 
HETATM    3  C6  UNL     1      23.025  16.724  31.337  1.00  0.00     0.014 C 
HETATM    4  C7  UNL     1      21.037  16.073  32.720  1.00  0.00     0.283 C 
HETATM    5  N2  UNL     1      20.534  17.379  32.998  1.00  0.00     0.134 N 
ENDROOT
BRANCH   1   6
HETATM    6  C3  UNL     1      22.304  18.085  34.618  1.00  0.00     0.256 C 
HETATM    7  N1  UNL     1      23.199  19.157  34.878  1.00  0.00    -0.323 N 
HETATM    8  C2  UNL     1      24.342  19.075  35.419  1.00  0.00     0.085 C 
ATOM      9  H1  UNL     1      22.889  20.089  34.602  1.00  0.00     0.169 HD
HETATM   10  C1  UNL     1      24.939  17.796  35.878  1.00  0.00     0.076 C 
HETATM   11  O1  UNL     1      21.961  17.385  35.597  1.00  0.00    -0.271 OA
BRANCH   8  12
HETATM   12  C13 UNL     1      25.103  20.319  35.593  1.00  0.00     0.222 C 
HETATM   13  O2  UNL     1      25.536  20.696  36.698  1.00  0.00    -0.643 OA
HETATM   14  O3  UNL     1      25.369  21.131  34.494  1.00  0.00    -0.643 OA
ENDBRANCH   8  12
ENDBRANCH   1   6
BRANCH   5  15
HETATM   15  C8  UNL     1      19.446  17.547  33.878  1.00  0.00     0.421 C 
HETATM   16  C9  UNL     1      19.190  19.029  34.057  1.00  0.00     0.067 C 
HETATM   17  C10 UNL     1      18.083  19.415  33.115  1.00  0.00     0.036 C 
HETATM   18  C11 UNL     1      17.911  18.155  32.275  1.00  0.00     0.184 C 
HETATM   19  C12 UNL     1      16.530  18.042  31.722  1.00  0.00     0.040 C 
HETATM   20  N3  UNL     1      18.203  17.116  33.250  1.00  0.00    -0.040 N 
ATOM     21  H32 UNL     1      18.237  16.175  32.858  1.00  0.00     0.280 HD
ATOM     22  H31 UNL     1      17.443  16.937  33.908  1.00  0.00     0.280 HD
ENDBRANCH   5  15
TORSDOF 3
ENDMDL
MODEL 2
REMARK VINA RESULT: -6.655093733      3.778      5.667
REMARK  3 active torsions:
REMARK  status: ('A' for Active; 'I' for Inactive)
REMARK    1  A    between atoms: C2_2  and  C13_20 
REMARK       I    between atoms: N1_3  and  C3_5 
REMARK    2  A    between atoms: C3_5  and  C4_7 
REMARK    3  A    between atoms: N2_11  and  C8_12 
ROOT
HETATM    1  C4  UNL     1      22.754  15.390  33.664  1.00  0.00     0.322 C 
HETATM    2  C5  UNL     1      23.959  16.311  33.426  1.00  0.00     0.053 C 
HETATM    3  C6  UNL     1      24.511  16.900  34.684  1.00  0.00     0.014 C 
HETATM    4  C7  UNL     1      22.899  17.193  32.784  1.00  0.00     0.283 C 
HETATM    5  N2  UNL     1      21.839  16.376  33.276  1.00  0.00     0.134 N 
ENDROOT
BRANCH   1   6
HETATM    6  C3  UNL     1      22.932  14.154  32.921  1.00  0.00     0.256 C 
HETATM    7  N1  UNL     1      22.687  12.902  33.545  1.00  0.00    -0.323 N 
HETATM    8  C2  UNL     1      23.503  11.938  33.656  1.00  0.00     0.085 C 
ATOM      9  H1  UNL     1      21.759  12.764  33.945  1.00  0.00     0.169 HD
HETATM   10  C1  UNL     1      24.890  11.977  33.130  1.00  0.00     0.076 C 
HETATM   11  O1  UNL     1      23.301  14.128  31.726  1.00  0.00    -0.271 OA
BRANCH   8  12
HETATM   12  C13 UNL     1      23.036  10.727  34.343  1.00  0.00     0.222 C 
HETATM   13  O2  UNL     1      22.047  10.075  33.963  1.00  0.00    -0.643 OA
HETATM   14  O3  UNL     1      23.710  10.264  35.471  1.00  0.00    -0.643 OA
ENDBRANCH   8  12
ENDBRANCH   1   6
BRANCH   5  15
HETATM   15  C8  UNL     1      20.710  16.120  32.473  1.00  0.00     0.421 C 
HETATM   16  C9  UNL     1      19.681  15.380  33.301  1.00  0.00     0.067 C 
HETATM   17  C10 UNL     1      18.696  16.395  33.814  1.00  0.00     0.036 C 
HETATM   18  C11 UNL     1      19.351  17.714  33.424  1.00  0.00     0.184 C 
HETATM   19  C12 UNL     1      18.345  18.802  33.251  1.00  0.00     0.040 C 
HETATM   20  N3  UNL     1      19.999  17.357  32.173  1.00  0.00    -0.040 N 
ATOM     21  H32 UNL     1      20.588  18.093  31.783  1.00  0.00     0.280 HD
ATOM     22  H31 UNL     1      19.362  17.290  31.378  1.00  0.00     0.280 HD
ENDBRANCH   5  15
TORSDOF 3
ENDMDL
MODEL 3
REMARK VINA RESULT: -6.580144604      4.127      6.642
REMARK  3 active torsions:
REMARK  status: ('A' for Active; 'I' for Inactive)
REMARK    1  A    between atoms: C2_2  and  C13_20 
REMARK       I    between atoms: N1_3  and  C3_5 
REMARK    2  A    between atoms: C3_5  and  C4_7 
REMARK    3  A    between atoms: N2_11  and  C8_12 
ROOT
HETATM    1  C4  UNL     1      22.876  16.570  31.518  1.00  0.00     0.322 C 
HETATM    2  C5  UNL     1      22.225  16.583  32.909  1.00  0.00     0.053 C 
HETATM    3  C6  UNL     1      20.950  17.362  32.959  1.00  0.00     0.014 C 
HETATM    4  C7  UNL     1      23.441  17.431  33.246  1.00  0.00     0.283 C 
HETATM    5  N2  UNL     1      23.811  17.549  31.874  1.00  0.00     0.134 N 
ENDROOT
BRANCH   1   6
HETATM    6  C3  UNL     1      23.259  15.212  31.173  1.00  0.00     0.256 C 
HETATM    7  N1  UNL     1      23.144  14.169  32.131  1.00  0.00    -0.323 N 
HETATM    8  C2  UNL     1      24.071  13.405  32.533  1.00  0.00     0.085 C 
ATOM      9  H1  UNL     1      22.220  14.021  32.536  1.00  0.00     0.169 HD
HETATM   10  C1  UNL     1      25.470  13.490  32.045  1.00  0.00     0.076 C 
HETATM   11  O1  UNL     1      23.699  14.897  30.045  1.00  0.00    -0.271 OA
BRANCH   8  12
HETATM   12  C13 UNL     1      23.727  12.388  33.536  1.00  0.00     0.222 C 
HETATM   13  O2  UNL     1      24.586  11.721  34.142  1.00  0.00    -0.643 OA
HETATM   14  O3  UNL     1      22.392  12.137  33.843  1.00  0.00    -0.643 OA
ENDBRANCH   8  12
ENDBRANCH   1   6
BRANCH   5  15
HETATM   15  C8  UNL     1      25.169  17.503  31.499  1.00  0.00     0.421 C 
HETATM   16  C9  UNL     1      25.305  18.056  30.095  1.00  0.00     0.067 C 
HETATM   17  C10 UNL     1      25.711  19.500  30.215  1.00  0.00     0.036 C 
HETATM   18  C11 UNL     1      25.569  19.759  31.710  1.00  0.00     0.184 C 
HETATM   19  C12 UNL     1      26.466  20.859  32.169  1.00  0.00     0.040 C 
HETATM   20  N3  UNL     1      25.948  18.469  32.264  1.00  0.00    -0.040 N 
ATOM     21  H32 UNL     1      25.826  18.397  33.274  1.00  0.00     0.280 HD
ATOM     22  H31 UNL     1      26.953  18.292  32.259  1.00  0.00     0.280 HD
ENDBRANCH   5  15
TORSDOF 3
ENDMDL
MODEL 4
REMARK VINA RESULT: -6.497172644      2.774      6.098
REMARK  3 active torsions:
REMARK  status: ('A' for Active; 'I' for Inactive)
REMARK    1  A    between atoms: C2_2  and  C13_20 
REMARK       I    between atoms: N1_3  and  C3_5 
REMARK    2  A    between atoms: C3_5  and  C4_7 
REMARK    3  A    between atoms: N2_11  and  C8_12 
ROOT
HETATM    1  C4  UNL     1      22.927  15.846  33.782  1.00  0.00     0.322 C 
HETATM    2  C5  UNL     1      23.706  14.844  32.918  1.00  0.00     0.053 C 
HETATM    3  C6  UNL     1      23.648  13.444  33.439  1.00  0.00     0.014 C 
HETATM    4  C7  UNL     1      24.899  15.618  33.455  1.00  0.00     0.283 C 
HETATM    5  N2  UNL     1      24.091  16.322  34.397  1.00  0.00     0.134 N 
ENDROOT
BRANCH   1   6
HETATM    6  C3  UNL     1      22.096  16.680  32.930  1.00  0.00     0.256 C 
HETATM    7  N1  UNL     1      21.083  17.498  33.498  1.00  0.00    -0.323 N 
HETATM    8  C2  UNL     1      19.848  17.481  33.213  1.00  0.00     0.085 C 
ATOM      9  H1  UNL     1      21.380  18.168  34.208  1.00  0.00     0.169 HD
HETATM   10  C1  UNL     1      19.254  16.568  32.206  1.00  0.00     0.076 C 
HETATM   11  O1  UNL     1      22.225  16.721  31.687  1.00  0.00    -0.271 OA
BRANCH   8  12
HETATM   12  C13 UNL     1      18.972  18.420  33.927  1.00  0.00     0.222 C 
HETATM   13  O2  UNL     1      19.378  19.152  34.849  1.00  0.00    -0.643 OA
HETATM   14  O3  UNL     1      17.628  18.518  33.579  1.00  0.00    -0.643 OA
ENDBRANCH   8  12
ENDBRANCH   1   6
BRANCH   5  15
HETATM   15  C8  UNL     1      24.334  17.685  34.660  1.00  0.00     0.421 C 
HETATM   16  C9  UNL     1      23.617  18.068  35.939  1.00  0.00     0.067 C 
HETATM   17  C10 UNL     1      24.620  17.997  37.058  1.00  0.00     0.036 C 
HETATM   18  C11 UNL     1      25.824  17.353  36.381  1.00  0.00     0.184 C 
HETATM   19  C12 UNL     1      27.102  17.727  37.054  1.00  0.00     0.040 C 
HETATM   20  N3  UNL     1      25.725  17.898  35.037  1.00  0.00    -0.040 N 
ATOM     21  H32 UNL     1      26.400  17.508  34.379  1.00  0.00     0.280 HD
ATOM     22  H31 UNL     1      26.036  18.867  34.957  1.00  0.00     0.280 HD
ENDBRANCH   5  15
TORSDOF 3
ENDMDL
MODEL 5
REMARK VINA RESULT: -6.430643539      2.751      6.252
REMARK  3 active torsions:
REMARK  status: ('A' for Active; 'I' for Inactive)
REMARK    1  A    between atoms: C2_2  and  C13_20 
REMARK       I    between atoms: N1_3  and  C3_5 
REMARK    2  A    between atoms: C3_5  and  C4_7 
REMARK    3  A    between atoms: N2_11  and  C8_12 
ROOT
HETATM    1  C4  UNL     1      23.812  16.430  32.628  1.00  0.00     0.322 C 
HETATM    2  C5  UNL     1      23.161  16.354  31.240  1.00  0.00     0.053 C 
HETATM    3  C6  UNL     1      23.722  15.266  30.382  1.00  0.00     0.014 C 
HETATM    4  C7  UNL     1      23.883  17.678  31.052  1.00  0.00     0.283 C 
HETATM    5  N2  UNL     1      24.619  17.514  32.263  1.00  0.00     0.134 N 
ENDROOT
BRANCH   1   6
HETATM    6  C3  UNL     1      22.780  16.532  33.646  1.00  0.00     0.256 C 
HETATM    7  N1  UNL     1      21.409  16.437  33.287  1.00  0.00    -0.323 N 
HETATM    8  C2  UNL     1      20.504  17.295  33.516  1.00  0.00     0.085 C 
ATOM      9  H1  UNL     1      21.123  15.592  32.794  1.00  0.00     0.169 HD
HETATM   10  C1  UNL     1      20.754  18.577  34.221  1.00  0.00     0.076 C 
HETATM   11  O1  UNL     1      23.036  16.705  34.858  1.00  0.00    -0.271 OA
BRANCH   8  12
HETATM   12  C13 UNL     1      19.144  16.990  33.054  1.00  0.00     0.222 C 
HETATM   13  O2  UNL     1      18.837  16.939  31.849  1.00  0.00    -0.643 OA
HETATM   14  O3  UNL     1      18.134  16.743  33.980  1.00  0.00    -0.643 OA
ENDBRANCH   8  12
ENDBRANCH   1   6
BRANCH   5  15
HETATM   15  C8  UNL     1      24.863  18.622  33.100  1.00  0.00     0.421 C 
HETATM   16  C9  UNL     1      26.025  18.293  34.014  1.00  0.00     0.067 C 
HETATM   17  C10 UNL     1      27.266  18.882  33.399  1.00  0.00     0.036 C 
HETATM   18  C11 UNL     1      26.772  19.334  32.031  1.00  0.00     0.184 C 
HETATM   19  C12 UNL     1      27.589  20.460  31.492  1.00  0.00     0.040 C 
HETATM   20  N3  UNL     1      25.408  19.736  32.334  1.00  0.00    -0.040 N 
ATOM     21  H32 UNL     1      24.856  19.989  31.515  1.00  0.00     0.280 HD
ATOM     22  H31 UNL     1      25.334  20.640  32.803  1.00  0.00     0.280 HD
ENDBRANCH   5  15
TORSDOF 3
ENDMDL
