MODEL 1
REMARK VINA RESULT: -7.043323273      0.000      0.000
REMARK  5 active torsions:
REMARK  status: ('A' for Active; 'I' for Inactive)
REMARK    1  A    between atoms: N2_5  and  C4_6 
REMARK    2  A    between atoms: C4_6  and  C5_7 
REMARK    3  A    between atoms: C8_12  and  C9_13 
REMARK       I    between atoms: C9_13  and  N3_15 
REMARK    4  A    between atoms: C12_18  and  C13_19 
REMARK    5  A    between atoms: C15_23  and  O6_24 
ROOT
HETATM    1  C1  UNL     1      26.117  19.111  29.390  1.00  0.00     0.272 C 
HETATM    2  N1  UNL     1      25.791  18.419  30.588  1.00  0.00    -0.065 N 
HETATM    3  C2  UNL     1      26.574  17.208  30.765  1.00  0.00     0.265 C 
HETATM    4  C3  UNL     1      25.777  16.365  31.745  1.00  0.00     0.267 C 
HETATM    5  N2  UNL     1      25.057  17.245  32.685  1.00  0.00    -0.040 N 
HETATM    6  C6  UNL     1      25.938  18.377  32.960  1.00  0.00     0.267 C 
HETATM    7  C7  UNL     1      26.076  19.260  31.728  1.00  0.00     0.265 C 
HETATM    8  C8  UNL     1      23.909  17.758  32.034  1.00  0.00     0.308 C 
HETATM    9  C16 UNL     1      24.367  18.118  30.602  1.00  0.00     0.280 C 
ENDROOT
BRANCH   8  10
HETATM   10  C9  UNL     1      22.757  16.829  31.925  1.00  0.00     0.255 C 
HETATM   11  O3  UNL     1      22.759  15.902  31.066  1.00  0.00    -0.271 OA
HETATM   12  N3  UNL     1      21.619  16.925  32.759  1.00  0.00    -0.324 N 
HETATM   13  C10 UNL     1      20.523  15.975  32.555  1.00  0.00     0.129 C 
HETATM   14  C15 UNL     1      21.429  17.879  33.825  1.00  0.00     0.223 C 
HETATM   15  C11 UNL     1      19.291  16.831  32.284  1.00  0.00     0.035 C 
HETATM   16  C12 UNL     1      19.052  17.839  33.386  1.00  0.00     0.092 C 
HETATM   17  C14 UNL     1      20.270  18.773  33.441  1.00  0.00     0.069 C 
BRANCH  16  18
HETATM   18  C13 UNL     1      17.828  18.590  33.060  1.00  0.00     0.177 C 
HETATM   19  O4  UNL     1      17.451  19.502  33.829  1.00  0.00    -0.648 OA
HETATM   20  O5  UNL     1      17.139  18.266  31.918  1.00  0.00    -0.648 OA
ENDBRANCH  16  18
BRANCH  14  21
HETATM   21  O6  UNL     1      21.039  17.231  35.011  1.00  0.00    -0.377 OA
ATOM     22  H6  UNL     1      21.155  17.803  35.761  1.00  0.00     0.212 HD
ENDBRANCH  14  21
ENDBRANCH   8  10
BRANCH   5  23
HETATM   23  C4  UNL     1      24.898  16.492  33.872  1.00  0.00     0.351 C 
BRANCH  23  24
HETATM   24  C5  UNL     1      24.994  17.175  35.151  1.00  0.00     0.199 C 
HETATM   25  O1  UNL     1      26.011  16.966  35.863  1.00  0.00    -0.647 OA
HETATM   26  O2  UNL     1      24.055  18.045  35.660  1.00  0.00    -0.647 OA
ENDBRANCH  23  24
ENDBRANCH   5  23
TORSDOF 5
ENDMDL
MODEL 2
REMARK VINA RESULT: -7.018568800      0.898      1.157
REMARK  5 active torsions:
REMARK  status: ('A' for Active; 'I' for Inactive)
REMARK    1  A    between atoms: N2_5  and  C4_6 
REMARK    2  A    between atoms: C4_6  and  C5_7 
REMARK    3  A    between atoms: C8_12  and  C9_13 
REMARK       I    between atoms: C9_13  and  N3_15 
REMARK    4  A    between atoms: C12_18  and  C13_19 
REMARK    5  A    between atoms: C15_23  and  O6_24 
ROOT
HETATM    1  C1  UNL     1      26.277  19.038  29.399  1.00  0.00     0.272 C 
HETATM    2  N1  UNL     1      25.888  18.452  30.634  1.00  0.00    -0.065 N 
HETATM    3  C2  UNL     1      26.673  17.275  30.966  1.00  0.00     0.265 C 
HETATM    4  C3  UNL     1      25.829  16.509  31.969  1.00  0.00     0.267 C 
HETATM    5  N2  UNL     1      25.043  17.458  32.782  1.00  0.00    -0.040 N 
HETATM    6  C6  UNL     1      25.892  18.625  33.005  1.00  0.00     0.267 C 
HETATM    7  C7  UNL     1      26.093  19.396  31.708  1.00  0.00     0.265 C 
HETATM    8  C8  UNL     1      23.930  17.890  32.021  1.00  0.00     0.308 C 
HETATM    9  C16 UNL     1      24.469  18.129  30.591  1.00  0.00     0.280 C 
ENDROOT
BRANCH   8  10
HETATM   10  C9  UNL     1      22.798  16.935  31.929  1.00  0.00     0.255 C 
HETATM   11  O3  UNL     1      22.815  15.999  31.080  1.00  0.00    -0.271 OA
HETATM   12  N3  UNL     1      21.662  17.016  32.769  1.00  0.00    -0.324 N 
HETATM   13  C10 UNL     1      20.587  16.041  32.583  1.00  0.00     0.129 C 
HETATM   14  C15 UNL     1      21.458  17.978  33.825  1.00  0.00     0.223 C 
HETATM   15  C11 UNL     1      19.335  16.867  32.309  1.00  0.00     0.035 C 
HETATM   16  C12 UNL     1      19.080  17.881  33.401  1.00  0.00     0.092 C 
HETATM   17  C14 UNL     1      20.278  18.842  33.438  1.00  0.00     0.069 C 
BRANCH  16  18
HETATM   18  C13 UNL     1      17.838  18.602  33.074  1.00  0.00     0.177 C 
HETATM   19  O4  UNL     1      17.468  19.542  33.811  1.00  0.00    -0.648 OA
HETATM   20  O5  UNL     1      17.125  18.220  31.965  1.00  0.00    -0.648 OA
ENDBRANCH  16  18
BRANCH  14  21
HETATM   21  O6  UNL     1      21.089  17.335  35.021  1.00  0.00    -0.377 OA
ATOM     22  H6  UNL     1      21.760  17.448  35.684  1.00  0.00     0.212 HD
ENDBRANCH  14  21
ENDBRANCH   8  10
BRANCH   5  23
HETATM   23  C4  UNL     1      24.822  16.812  34.021  1.00  0.00     0.351 C 
BRANCH  23  24
HETATM   24  C5  UNL     1      25.219  15.421  34.164  1.00  0.00     0.199 C 
HETATM   25  O1  UNL     1      24.367  14.530  33.914  1.00  0.00    -0.647 OA
HETATM   26  O2  UNL     1      26.467  14.988  34.555  1.00  0.00    -0.647 OA
ENDBRANCH  23  24
ENDBRANCH   5  23
TORSDOF 5
ENDMDL
MODEL 3
REMARK VINA RESULT: -6.571824837      2.594      4.362
REMARK  5 active torsions:
REMARK  status: ('A' for Active; 'I' for Inactive)
REMARK    1  A    between atoms: N2_5  and  C4_6 
REMARK    2  A    between atoms: C4_6  and  C5_7 
REMARK    3  A    between atoms: C8_12  and  C9_13 
REMARK       I    between atoms: C9_13  and  N3_15 
REMARK    4  A    between atoms: C12_18  and  C13_19 
REMARK    5  A    between atoms: C15_23  and  O6_24 
ROOT
HETATM    1  C1  UNL     1      25.358  11.232  33.567  1.00  0.00     0.272 C 
HETATM    2  N1  UNL     1      25.573  12.546  33.071  1.00  0.00    -0.065 N 
HETATM    3  C2  UNL     1      26.940  13.001  33.267  1.00  0.00     0.265 C 
HETATM    4  C3  UNL     1      26.866  14.515  33.182  1.00  0.00     0.267 C 
HETATM    5  N2  UNL     1      25.798  14.907  32.241  1.00  0.00    -0.040 N 
HETATM    6  C6  UNL     1      25.816  13.932  31.155  1.00  0.00     0.267 C 
HETATM    7  C7  UNL     1      25.333  12.574  31.647  1.00  0.00     0.265 C 
HETATM    8  C8  UNL     1      24.550  14.781  32.897  1.00  0.00     0.308 C 
HETATM    9  C16 UNL     1      24.631  13.461  33.699  1.00  0.00     0.280 C 
ENDROOT
BRANCH   8  10
HETATM   10  C9  UNL     1      24.201  15.870  33.843  1.00  0.00     0.255 C 
HETATM   11  O3  UNL     1      24.704  15.898  35.003  1.00  0.00    -0.271 OA
HETATM   12  N3  UNL     1      23.310  16.915  33.507  1.00  0.00    -0.324 N 
HETATM   13  C10 UNL     1      23.011  17.929  34.520  1.00  0.00     0.129 C 
HETATM   14  C15 UNL     1      22.659  17.095  32.232  1.00  0.00     0.223 C 
HETATM   15  C11 UNL     1      21.497  17.896  34.691  1.00  0.00     0.035 C 
HETATM   16  C12 UNL     1      20.777  18.092  33.376  1.00  0.00     0.092 C 
HETATM   17  C14 UNL     1      21.170  16.933  32.448  1.00  0.00     0.069 C 
BRANCH  16  18
HETATM   18  C13 UNL     1      19.329  18.084  33.642  1.00  0.00     0.177 C 
HETATM   19  O4  UNL     1      18.783  17.017  34.004  1.00  0.00    -0.648 OA
HETATM   20  O5  UNL     1      18.621  19.249  33.485  1.00  0.00    -0.648 OA
ENDBRANCH  16  18
BRANCH  14  21
HETATM   21  O6  UNL     1      22.838  18.408  31.761  1.00  0.00    -0.377 OA
ATOM     22  H6  UNL     1      23.089  18.406  30.844  1.00  0.00     0.212 HD
ENDBRANCH  14  21
ENDBRANCH   8  10
BRANCH   5  23
HETATM   23  C4  UNL     1      26.183  16.168  31.728  1.00  0.00     0.351 C 
BRANCH  23  24
HETATM   24  C5  UNL     1      25.923  16.462  30.329  1.00  0.00     0.199 C 
HETATM   25  O1  UNL     1      26.904  16.537  29.544  1.00  0.00    -0.647 OA
HETATM   26  O2  UNL     1      24.678  16.669  29.778  1.00  0.00    -0.647 OA
ENDBRANCH  23  24
ENDBRANCH   5  23
TORSDOF 5
ENDMDL
MODEL 4
REMARK VINA RESULT: -6.348542615      1.510      1.670
REMARK  5 active torsions:
REMARK  status: ('A' for Active; 'I' for Inactive)
REMARK    1  A    between atoms: N2_5  and  C4_6 
REMARK    2  A    between atoms: C4_6  and  C5_7 
REMARK    3  A    between atoms: C8_12  and  C9_13 
REMARK       I    between atoms: C9_13  and  N3_15 
REMARK    4  A    between atoms: C12_18  and  C13_19 
REMARK    5  A    between atoms: C15_23  and  O6_24 
ROOT
HETATM    1  C1  UNL     1      26.749  18.747  29.048  1.00  0.00     0.272 C 
HETATM    2  N1  UNL     1      26.470  18.609  30.435  1.00  0.00    -0.065 N 
HETATM    3  C2  UNL     1      27.562  17.987  31.166  1.00  0.00     0.265 C 
HETATM    4  C3  UNL     1      26.930  17.455  32.439  1.00  0.00     0.267 C 
HETATM    5  N2  UNL     1      25.819  18.338  32.847  1.00  0.00    -0.040 N 
HETATM    6  C6  UNL     1      26.229  19.703  32.532  1.00  0.00     0.267 C 
HETATM    7  C7  UNL     1      26.275  19.914  31.024  1.00  0.00     0.265 C 
HETATM    8  C8  UNL     1      24.691  18.043  32.043  1.00  0.00     0.308 C 
HETATM    9  C16 UNL     1      25.239  17.854  30.609  1.00  0.00     0.280 C 
ENDROOT
BRANCH   8  10
HETATM   10  C9  UNL     1      23.936  16.819  32.409  1.00  0.00     0.255 C 
HETATM   11  O3  UNL     1      24.258  15.697  31.925  1.00  0.00    -0.271 OA
HETATM   12  N3  UNL     1      22.839  16.839  33.302  1.00  0.00    -0.324 N 
HETATM   13  C10 UNL     1      22.144  15.581  33.580  1.00  0.00     0.129 C 
HETATM   14  C15 UNL     1      22.332  18.000  33.994  1.00  0.00     0.223 C 
HETATM   15  C11 UNL     1      20.689  15.830  33.197  1.00  0.00     0.035 C 
HETATM   16  C12 UNL     1      20.117  17.034  33.911  1.00  0.00     0.092 C 
HETATM   17  C14 UNL     1      20.932  18.264  33.484  1.00  0.00     0.069 C 
BRANCH  16  18
HETATM   18  C13 UNL     1      18.707  17.175  33.512  1.00  0.00     0.177 C 
HETATM   19  O4  UNL     1      17.880  16.312  33.884  1.00  0.00    -0.648 OA
HETATM   20  O5  UNL     1      18.342  18.250  32.742  1.00  0.00    -0.648 OA
ENDBRANCH  16  18
BRANCH  14  21
HETATM   21  O6  UNL     1      22.198  17.741  35.370  1.00  0.00    -0.377 OA
ATOM     22  H6  UNL     1      21.490  18.255  35.742  1.00  0.00     0.212 HD
ENDBRANCH  14  21
ENDBRANCH   8  10
BRANCH   5  23
HETATM   23  C4  UNL     1      25.718  18.204  34.251  1.00  0.00     0.351 C 
BRANCH  23  24
HETATM   24  C5  UNL     1      25.662  19.407  35.065  1.00  0.00     0.199 C 
HETATM   25  O1  UNL     1      26.675  19.714  35.745  1.00  0.00    -0.647 OA
HETATM   26  O2  UNL     1      24.579  20.254  35.158  1.00  0.00    -0.647 OA
ENDBRANCH  23  24
ENDBRANCH   5  23
TORSDOF 5
ENDMDL
MODEL 5
REMARK VINA RESULT: -6.327899080      3.440      5.236
REMARK  5 active torsions:
REMARK  status: ('A' for Active; 'I' for Inactive)
REMARK    1  A    between atoms: N2_5  and  C4_6 
REMARK    2  A    between atoms: C4_6  and  C5_7 
REMARK    3  A    between atoms: C8_12  and  C9_13 
REMARK       I    between atoms: C9_13  and  N3_15 
REMARK    4  A    between atoms: C12_18  and  C13_19 
REMARK    5  A    between atoms: C15_23  and  O6_24 
ROOT
HETATM    1  C1  UNL     1      23.756  10.178  34.616  1.00  0.00     0.272 C 
HETATM    2  N1  UNL     1      24.332  11.203  33.817  1.00  0.00    -0.065 N 
HETATM    3  C2  UNL     1      25.757  11.362  34.054  1.00  0.00     0.265 C 
HETATM    4  C3  UNL     1      26.084  12.760  33.559  1.00  0.00     0.267 C 
HETATM    5  N2  UNL     1      25.208  13.100  32.421  1.00  0.00    -0.040 N 
HETATM    6  C6  UNL     1      25.029  11.876  31.646  1.00  0.00     0.267 C 
HETATM    7  C7  UNL     1      24.184  10.872  32.419  1.00  0.00     0.265 C 
HETATM    8  C8  UNL     1      23.936  13.465  32.924  1.00  0.00     0.308 C 
HETATM    9  C16 UNL     1      23.628  12.455  34.054  1.00  0.00     0.280 C 
ENDROOT
BRANCH   8  10
HETATM   10  C9  UNL     1      23.832  14.833  33.493  1.00  0.00     0.255 C 
HETATM   11  O3  UNL     1      24.517  15.161  34.504  1.00  0.00    -0.271 OA
HETATM   12  N3  UNL     1      22.983  15.823  32.947  1.00  0.00    -0.324 N 
HETATM   13  C10 UNL     1      22.933  17.134  33.597  1.00  0.00     0.129 C 
HETATM   14  C15 UNL     1      22.149  15.672  31.778  1.00  0.00     0.223 C 
HETATM   15  C11 UNL     1      21.469  17.350  33.961  1.00  0.00     0.035 C 
HETATM   16  C12 UNL     1      20.563  17.211  32.759  1.00  0.00     0.092 C 
HETATM   17  C14 UNL     1      20.708  15.778  32.225  1.00  0.00     0.069 C 
BRANCH  16  18
HETATM   18  C13 UNL     1      19.181  17.471  33.196  1.00  0.00     0.177 C 
HETATM   19  O4  UNL     1      18.598  16.622  33.908  1.00  0.00    -0.648 OA
HETATM   20  O5  UNL     1      18.574  18.639  32.809  1.00  0.00    -0.648 OA
ENDBRANCH  16  18
BRANCH  14  21
HETATM   21  O6  UNL     1      22.353  16.736  30.881  1.00  0.00    -0.377 OA
ATOM     22  H6  UNL     1      21.906  16.573  30.058  1.00  0.00     0.212 HD
ENDBRANCH  14  21
ENDBRANCH   8  10
BRANCH   5  23
HETATM   23  C4  UNL     1      25.934  14.031  31.642  1.00  0.00     0.351 C 
BRANCH  23  24
HETATM   24  C5  UNL     1      25.632  14.142  30.224  1.00  0.00     0.199 C 
HETATM   25  O1  UNL     1      26.518  13.800  29.398  1.00  0.00    -0.647 OA
HETATM   26  O2  UNL     1      24.443  14.596  29.699  1.00  0.00    -0.647 OA
ENDBRANCH  23  24
ENDBRANCH   5  23
TORSDOF 5
ENDMDL
