MODEL 1
REMARK VINA RESULT: -7.510686232      0.000      0.000
REMARK  5 active torsions:
REMARK  status: ('A' for Active; 'I' for Inactive)
REMARK    1  A    between atoms: C3_3  and  N1_4 
REMARK       I    between atoms: N1_4  and  C4_6 
REMARK       I    between atoms: C4_6  and  N2_8 
REMARK    2  A    between atoms: N2_8  and  C5_10 
REMARK    3  A    between atoms: C6_11  and  O2_12 
REMARK    4  A    between atoms: C6_11  and  N3_14 
REMARK    5  A    between atoms: C10_18  and  C11_19 
REMARK       I    between atoms: C11_19  and  N4_21 
REMARK       I    between atoms: N5_24  and  C14_25 
ROOT
HETATM    1  C1  UNL     1      18.131  17.612  32.063  1.00  0.00     0.014 C 
HETATM    2  C2  UNL     1      18.711  17.999  33.051  1.00  0.00    -0.098 C 
HETATM    3  C3  UNL     1      19.392  18.465  34.259  1.00  0.00     0.217 C 
ENDROOT
BRANCH   3   4
HETATM    4  N1  UNL     1      20.633  19.118  33.933  1.00  0.00    -0.333 N 
HETATM    5  C4  UNL     1      21.871  18.576  34.333  1.00  0.00     0.320 C 
HETATM    6  O1  UNL     1      21.892  17.508  34.983  1.00  0.00    -0.247 OA
HETATM    7  N2  UNL     1      23.119  19.201  34.024  1.00  0.00    -0.315 N 
ATOM      8  H2  UNL     1      23.086  20.075  33.498  1.00  0.00     0.170 HD
ATOM      9  H1  UNL     1      20.616  19.990  33.403  1.00  0.00     0.165 HD
BRANCH   7  10
HETATM   10  C5  UNL     1      24.382  18.713  34.383  1.00  0.00     0.148 C 
HETATM   11  C6  UNL     1      25.401  18.348  33.431  1.00  0.00     0.154 C 
BRANCH  11  12
HETATM   12  O2  UNL     1      26.463  17.765  34.004  1.00  0.00    -0.345 OA
ATOM     13  H2  UNL     1      26.223  17.078  34.615  1.00  0.00     0.219 HD
ENDBRANCH  11  12
BRANCH  11  14
HETATM   14  N3  UNL     1      25.550  18.461  32.058  1.00  0.00    -0.347 N 
HETATM   15  C7  UNL     1      26.453  19.249  31.274  1.00  0.00     0.126 C 
HETATM   16  C8  UNL     1      25.551  19.878  30.204  1.00  0.00     0.022 C 
HETATM   17  C9  UNL     1      24.483  18.866  30.026  1.00  0.00     0.037 C 
HETATM   18  C10 UNL     1      24.738  17.786  31.022  1.00  0.00     0.178 C 
BRANCH  18  19
HETATM   19  C11 UNL     1      25.350  16.614  30.444  1.00  0.00     0.242 C 
HETATM   20  O3  UNL     1      26.252  16.711  29.582  1.00  0.00    -0.271 OA
HETATM   21  N4  UNL     1      24.956  15.312  30.827  1.00  0.00    -0.347 N 
HETATM   22  C12 UNL     1      23.955  15.098  31.844  1.00  0.00     0.145 C 
HETATM   23  C17 UNL     1      25.523  14.123  30.210  1.00  0.00     0.145 C 
HETATM   24  C13 UNL     1      24.603  14.205  32.918  1.00  0.00     0.145 C 
HETATM   25  N5  UNL     1      24.910  12.949  32.272  1.00  0.00    -0.349 N 
HETATM   26  C14 UNL     1      24.369  11.707  32.705  1.00  0.00     0.215 C 
HETATM   27  C16 UNL     1      25.805  13.005  31.146  1.00  0.00     0.145 C 
HETATM   28  C15 UNL     1      23.449  11.615  33.857  1.00  0.00     0.117 C 
HETATM   29  O4  UNL     1      24.664  10.638  32.113  1.00  0.00    -0.274 OA
ENDBRANCH  18  19
ENDBRANCH  11  14
ENDBRANCH   7  10
ENDBRANCH   3   4
TORSDOF 5
ENDMDL
MODEL 2
REMARK VINA RESULT: -7.155023179      2.465      5.153
REMARK  5 active torsions:
REMARK  status: ('A' for Active; 'I' for Inactive)
REMARK    1  A    between atoms: C3_3  and  N1_4 
REMARK       I    between atoms: N1_4  and  C4_6 
REMARK       I    between atoms: C4_6  and  N2_8 
REMARK    2  A    between atoms: N2_8  and  C5_10 
REMARK    3  A    between atoms: C6_11  and  O2_12 
REMARK    4  A    between atoms: C6_11  and  N3_14 
REMARK    5  A    between atoms: C10_18  and  C11_19 
REMARK       I    between atoms: C11_19  and  N4_21 
REMARK       I    between atoms: N5_24  and  C14_25 
ROOT
HETATM    1  C1  UNL     1      18.199  20.131  33.641  1.00  0.00     0.014 C 
HETATM    2  C2  UNL     1      18.451  18.948  33.684  1.00  0.00    -0.098 C 
HETATM    3  C3  UNL     1      18.733  17.515  33.742  1.00  0.00     0.217 C 
ENDROOT
BRANCH   3   4
HETATM    4  N1  UNL     1      20.144  17.271  33.900  1.00  0.00    -0.333 N 
HETATM    5  C4  UNL     1      20.724  16.053  33.492  1.00  0.00     0.320 C 
HETATM    6  O1  UNL     1      20.002  15.168  32.984  1.00  0.00    -0.247 OA
HETATM    7  N2  UNL     1      22.121  15.783  33.635  1.00  0.00    -0.315 N 
ATOM      8  H2  UNL     1      22.697  16.512  34.056  1.00  0.00     0.170 HD
ATOM      9  H1  UNL     1      20.733  17.993  34.314  1.00  0.00     0.165 HD
BRANCH   7  10
HETATM   10  C5  UNL     1      22.763  14.601  33.244  1.00  0.00     0.148 C 
HETATM   11  C6  UNL     1      23.872  14.557  32.324  1.00  0.00     0.154 C 
BRANCH  11  12
HETATM   12  O2  UNL     1      24.218  13.307  31.985  1.00  0.00    -0.345 OA
ATOM     13  H2  UNL     1      24.623  13.256  31.127  1.00  0.00     0.219 HD
ENDBRANCH  11  12
BRANCH  11  14
HETATM   14  N3  UNL     1      24.676  15.502  31.707  1.00  0.00    -0.347 N 
HETATM   15  C7  UNL     1      24.753  15.918  30.339  1.00  0.00     0.126 C 
HETATM   16  C8  UNL     1      26.259  15.933  30.047  1.00  0.00     0.022 C 
HETATM   17  C9  UNL     1      26.853  16.258  31.364  1.00  0.00     0.037 C 
HETATM   18  C10 UNL     1      25.732  16.318  32.345  1.00  0.00     0.178 C 
BRANCH  18  19
HETATM   19  C11 UNL     1      25.336  17.667  32.672  1.00  0.00     0.242 C 
HETATM   20  O3  UNL     1      24.987  18.475  31.783  1.00  0.00    -0.271 OA
HETATM   21  N4  UNL     1      25.328  18.128  34.008  1.00  0.00    -0.347 N 
HETATM   22  C12 UNL     1      25.673  17.258  35.106  1.00  0.00     0.145 C 
HETATM   23  C17 UNL     1      24.988  19.501  34.347  1.00  0.00     0.145 C 
HETATM   24  C13 UNL     1      24.478  17.281  36.078  1.00  0.00     0.145 C 
HETATM   25  N5  UNL     1      24.369  18.640  36.556  1.00  0.00    -0.349 N 
HETATM   26  C14 UNL     1      24.471  18.984  37.933  1.00  0.00     0.215 C 
HETATM   27  C16 UNL     1      24.148  19.658  35.562  1.00  0.00     0.145 C 
HETATM   28  C15 UNL     1      24.696  17.965  38.977  1.00  0.00     0.117 C 
HETATM   29  O4  UNL     1      24.370  20.180  38.304  1.00  0.00    -0.274 OA
ENDBRANCH  18  19
ENDBRANCH  11  14
ENDBRANCH   7  10
ENDBRANCH   3   4
TORSDOF 5
ENDMDL
MODEL 3
REMARK VINA RESULT: -7.034138903      2.464      6.139
REMARK  5 active torsions:
REMARK  status: ('A' for Active; 'I' for Inactive)
REMARK    1  A    between atoms: C3_3  and  N1_4 
REMARK       I    between atoms: N1_4  and  C4_6 
REMARK       I    between atoms: C4_6  and  N2_8 
REMARK    2  A    between atoms: N2_8  and  C5_10 
REMARK    3  A    between atoms: C6_11  and  O2_12 
REMARK    4  A    between atoms: C6_11  and  N3_14 
REMARK    5  A    between atoms: C10_18  and  C11_19 
REMARK       I    between atoms: C11_19  and  N4_21 
REMARK       I    between atoms: N5_24  and  C14_25 
ROOT
HETATM    1  C1  UNL     1      27.178  17.995  29.483  1.00  0.00     0.014 C 
HETATM    2  C2  UNL     1      27.153  19.007  30.146  1.00  0.00    -0.098 C 
HETATM    3  C3  UNL     1      27.146  20.233  30.943  1.00  0.00     0.217 C 
ENDROOT
BRANCH   3   4
HETATM    4  N1  UNL     1      26.007  20.272  31.823  1.00  0.00    -0.333 N 
HETATM    5  C4  UNL     1      25.961  19.488  32.993  1.00  0.00     0.320 C 
HETATM    6  O1  UNL     1      26.926  18.744  33.272  1.00  0.00    -0.247 OA
HETATM    7  N2  UNL     1      24.844  19.507  33.885  1.00  0.00    -0.315 N 
ATOM      8  H2  UNL     1      24.061  20.114  33.642  1.00  0.00     0.170 HD
ATOM      9  H1  UNL     1      25.220  20.879  31.595  1.00  0.00     0.165 HD
BRANCH   7  10
HETATM   10  C5  UNL     1      24.736  18.760  35.067  1.00  0.00     0.148 C 
HETATM   11  C6  UNL     1      24.598  17.326  35.100  1.00  0.00     0.154 C 
BRANCH  11  12
HETATM   12  O2  UNL     1      24.359  16.854  36.331  1.00  0.00    -0.345 OA
ATOM     13  H2  UNL     1      23.447  16.623  36.467  1.00  0.00     0.219 HD
ENDBRANCH  11  12
BRANCH  11  14
HETATM   14  N3  UNL     1      24.659  16.310  34.159  1.00  0.00    -0.347 N 
HETATM   15  C7  UNL     1      25.159  14.972  34.255  1.00  0.00     0.126 C 
HETATM   16  C8  UNL     1      26.012  14.811  32.990  1.00  0.00     0.022 C 
HETATM   17  C9  UNL     1      25.340  15.701  32.015  1.00  0.00     0.037 C 
HETATM   18  C10 UNL     1      24.236  16.388  32.744  1.00  0.00     0.178 C 
BRANCH  18  19
HETATM   19  C11 UNL     1      22.937  15.821  32.471  1.00  0.00     0.242 C 
HETATM   20  O3  UNL     1      22.798  14.600  32.235  1.00  0.00    -0.271 OA
HETATM   21  N4  UNL     1      21.771  16.621  32.459  1.00  0.00    -0.347 N 
HETATM   22  C12 UNL     1      21.824  18.031  32.762  1.00  0.00     0.145 C 
HETATM   23  C17 UNL     1      20.465  16.074  32.128  1.00  0.00     0.145 C 
HETATM   24  C13 UNL     1      20.843  18.268  33.925  1.00  0.00     0.145 C 
HETATM   25  N5  UNL     1      19.530  17.931  33.425  1.00  0.00    -0.349 N 
HETATM   26  C14 UNL     1      18.458  18.866  33.383  1.00  0.00     0.215 C 
HETATM   27  C16 UNL     1      19.344  16.582  32.960  1.00  0.00     0.145 C 
HETATM   28  C15 UNL     1      18.616  20.256  33.854  1.00  0.00     0.117 C 
HETATM   29  O4  UNL     1      17.331  18.529  32.940  1.00  0.00    -0.274 OA
ENDBRANCH  18  19
ENDBRANCH  11  14
ENDBRANCH   7  10
ENDBRANCH   3   4
TORSDOF 5
ENDMDL
MODEL 4
REMARK VINA RESULT: -7.001273217      2.500      5.152
REMARK  5 active torsions:
REMARK  status: ('A' for Active; 'I' for Inactive)
REMARK    1  A    between atoms: C3_3  and  N1_4 
REMARK       I    between atoms: N1_4  and  C4_6 
REMARK       I    between atoms: C4_6  and  N2_8 
REMARK    2  A    between atoms: N2_8  and  C5_10 
REMARK    3  A    between atoms: C6_11  and  O2_12 
REMARK    4  A    between atoms: C6_11  and  N3_14 
REMARK    5  A    between atoms: C10_18  and  C11_19 
REMARK       I    between atoms: C11_19  and  N4_21 
REMARK       I    between atoms: N5_24  and  C14_25 
ROOT
HETATM    1  C1  UNL     1      18.768  17.611  33.506  1.00  0.00     0.014 C 
HETATM    2  C2  UNL     1      19.483  16.652  33.328  1.00  0.00    -0.098 C 
HETATM    3  C3  UNL     1      20.350  15.489  33.136  1.00  0.00     0.217 C 
ENDROOT
BRANCH   3   4
HETATM    4  N1  UNL     1      20.946  15.499  31.825  1.00  0.00    -0.333 N 
HETATM    5  C4  UNL     1      22.337  15.356  31.654  1.00  0.00     0.320 C 
HETATM    6  O1  UNL     1      23.068  15.219  32.659  1.00  0.00    -0.247 OA
HETATM    7  N2  UNL     1      22.957  15.361  30.366  1.00  0.00    -0.315 N 
ATOM      8  H2  UNL     1      22.349  15.480  29.555  1.00  0.00     0.170 HD
ATOM      9  H1  UNL     1      20.350  15.610  31.005  1.00  0.00     0.165 HD
BRANCH   7  10
HETATM   10  C5  UNL     1      24.330  15.217  30.125  1.00  0.00     0.148 C 
HETATM   11  C6  UNL     1      25.274  16.304  30.184  1.00  0.00     0.154 C 
BRANCH  11  12
HETATM   12  O2  UNL     1      26.498  15.954  29.766  1.00  0.00    -0.345 OA
ATOM     13  H2  UNL     1      27.165  16.080  30.431  1.00  0.00     0.219 HD
ENDBRANCH  11  12
BRANCH  11  14
HETATM   14  N3  UNL     1      25.221  17.633  30.575  1.00  0.00    -0.347 N 
HETATM   15  C7  UNL     1      24.841  18.809  29.852  1.00  0.00     0.126 C 
HETATM   16  C8  UNL     1      25.952  19.814  30.184  1.00  0.00     0.022 C 
HETATM   17  C9  UNL     1      26.378  19.408  31.543  1.00  0.00     0.037 C 
HETATM   18  C10 UNL     1      25.605  18.182  31.893  1.00  0.00     0.178 C 
BRANCH  18  19
HETATM   19  C11 UNL     1      24.500  18.443  32.784  1.00  0.00     0.242 C 
HETATM   20  O3  UNL     1      23.324  18.503  32.360  1.00  0.00    -0.271 OA
HETATM   21  N4  UNL     1      24.701  18.642  34.169  1.00  0.00    -0.347 N 
HETATM   22  C12 UNL     1      26.014  18.549  34.759  1.00  0.00     0.145 C 
HETATM   23  C17 UNL     1      23.604  18.963  35.068  1.00  0.00     0.145 C 
HETATM   24  C13 UNL     1      25.921  17.493  35.876  1.00  0.00     0.145 C 
HETATM   25  N5  UNL     1      24.991  18.013  36.851  1.00  0.00    -0.349 N 
HETATM   26  C14 UNL     1      25.349  18.256  38.206  1.00  0.00     0.215 C 
HETATM   27  C16 UNL     1      23.655  18.283  36.387  1.00  0.00     0.145 C 
HETATM   28  C15 UNL     1      26.710  17.988  38.714  1.00  0.00     0.117 C 
HETATM   29  O4  UNL     1      24.506  18.709  39.021  1.00  0.00    -0.274 OA
ENDBRANCH  18  19
ENDBRANCH  11  14
ENDBRANCH   7  10
ENDBRANCH   3   4
TORSDOF 5
ENDMDL
MODEL 5
REMARK VINA RESULT: -6.999881390      1.757      6.649
REMARK  5 active torsions:
REMARK  status: ('A' for Active; 'I' for Inactive)
REMARK    1  A    between atoms: C3_3  and  N1_4 
REMARK       I    between atoms: N1_4  and  C4_6 
REMARK       I    between atoms: C4_6  and  N2_8 
REMARK    2  A    between atoms: N2_8  and  C5_10 
REMARK    3  A    between atoms: C6_11  and  O2_12 
REMARK    4  A    between atoms: C6_11  and  N3_14 
REMARK    5  A    between atoms: C10_18  and  C11_19 
REMARK       I    between atoms: C11_19  and  N4_21 
REMARK       I    between atoms: N5_24  and  C14_25 
ROOT
HETATM    1  C1  UNL     1      27.166  20.583  32.171  1.00  0.00     0.014 C 
HETATM    2  C2  UNL     1      26.449  20.248  31.256  1.00  0.00    -0.098 C 
HETATM    3  C3  UNL     1      25.584  19.866  30.141  1.00  0.00     0.217 C 
ENDROOT
BRANCH   3   4
HETATM    4  N1  UNL     1      24.862  18.656  30.438  1.00  0.00    -0.333 N 
HETATM    5  C4  UNL     1      25.362  17.395  30.056  1.00  0.00     0.320 C 
HETATM    6  O1  UNL     1      26.452  17.325  29.448  1.00  0.00    -0.247 OA
HETATM    7  N2  UNL     1      24.668  16.177  30.338  1.00  0.00    -0.315 N 
ATOM      8  H2  UNL     1      23.777  16.249  30.829  1.00  0.00     0.170 HD
ATOM      9  H1  UNL     1      23.972  18.712  30.934  1.00  0.00     0.165 HD
BRANCH   7  10
HETATM   10  C5  UNL     1      25.111  14.892  29.994  1.00  0.00     0.148 C 
HETATM   11  C6  UNL     1      25.262  13.817  30.942  1.00  0.00     0.154 C 
BRANCH  11  12
HETATM   12  O2  UNL     1      25.844  12.733  30.410  1.00  0.00    -0.345 OA
ATOM     13  H2  UNL     1      25.863  11.993  31.006  1.00  0.00     0.219 HD
ENDBRANCH  11  12
BRANCH  11  14
HETATM   14  N3  UNL     1      24.944  13.630  32.277  1.00  0.00    -0.347 N 
HETATM   15  C7  UNL     1      25.691  13.036  33.345  1.00  0.00     0.126 C 
HETATM   16  C8  UNL     1      24.675  12.108  34.026  1.00  0.00     0.022 C 
HETATM   17  C9  UNL     1      23.384  12.795  33.793  1.00  0.00     0.037 C 
HETATM   18  C10 UNL     1      23.671  13.984  32.941  1.00  0.00     0.178 C 
BRANCH  18  19
HETATM   19  C11 UNL     1      23.702  15.220  33.686  1.00  0.00     0.242 C 
HETATM   20  O3  UNL     1      24.761  15.641  34.203  1.00  0.00    -0.271 OA
HETATM   21  N4  UNL     1      22.539  16.005  33.860  1.00  0.00    -0.347 N 
HETATM   22  C12 UNL     1      21.280  15.625  33.265  1.00  0.00     0.145 C 
HETATM   23  C17 UNL     1      22.543  17.221  34.656  1.00  0.00     0.145 C 
HETATM   24  C13 UNL     1      20.822  16.819  32.407  1.00  0.00     0.145 C 
HETATM   25  N5  UNL     1      20.612  17.920  33.319  1.00  0.00    -0.349 N 
HETATM   26  C14 UNL     1      19.355  18.569  33.466  1.00  0.00     0.215 C 
HETATM   27  C16 UNL     1      21.750  18.343  34.091  1.00  0.00     0.145 C 
HETATM   28  C15 UNL     1      18.168  18.160  32.689  1.00  0.00     0.117 C 
HETATM   29  O4  UNL     1      19.217  19.523  34.273  1.00  0.00    -0.274 OA
ENDBRANCH  18  19
ENDBRANCH  11  14
ENDBRANCH   7  10
ENDBRANCH   3   4
TORSDOF 5
ENDMDL
