MODEL 1
REMARK VINA RESULT: -6.276389510      0.000      0.000
REMARK  7 active torsions:
REMARK  status: ('A' for Active; 'I' for Inactive)
REMARK    1  A    between atoms: C2_2  and  N1_3 
REMARK    2  A    between atoms: N1_3  and  C19_26 
REMARK    3  A    between atoms: N2_6  and  C5_7 
REMARK    4  A    between atoms: N2_6  and  C17_24 
REMARK    5  A    between atoms: C5_7  and  C6_8 
REMARK    6  A    between atoms: C7_9  and  O1_10 
REMARK    7  A    between atoms: C7_9  and  C8_12 
ROOT
HETATM    1  C6  UNL     1      22.403  16.805  32.353  1.00  0.00     0.259 C 
HETATM    2  C7  UNL     1      23.150  15.506  32.790  1.00  0.00     0.167 C 
HETATM    3  C9  UNL     1      22.344  14.941  33.892  1.00  0.00     0.078 C 
HETATM    4  C10 UNL     1      20.974  15.321  33.464  1.00  0.00     0.241 C 
HETATM    5  N4  UNL     1      21.187  16.752  33.017  1.00  0.00    -0.058 N 
HETATM    6  C11 UNL     1      20.065  16.896  32.065  1.00  0.00     0.238 C 
HETATM    7  C12 UNL     1      18.950  17.554  32.829  1.00  0.00     0.029 C 
HETATM    8  C13 UNL     1      19.709  18.440  33.789  1.00  0.00     0.029 C 
HETATM    9  C14 UNL     1      20.853  17.513  34.131  1.00  0.00     0.238 C 
ENDROOT
BRANCH   1  10
HETATM   10  C5  UNL     1      23.427  17.844  32.481  1.00  0.00     0.275 C 
BRANCH  10  11
HETATM   11  N2  UNL     1      24.552  18.098  31.697  1.00  0.00    -0.055 N 
HETATM   12  C4  UNL     1      24.407  18.605  30.373  1.00  0.00     0.266 C 
HETATM   13  C3  UNL     1      25.747  18.620  29.664  1.00  0.00     0.266 C 
HETATM   14  N1  UNL     1      26.805  17.999  30.408  1.00  0.00    -0.058 N 
HETATM   15  C16 UNL     1      26.949  18.734  31.638  1.00  0.00     0.266 C 
HETATM   16  C15 UNL     1      25.654  18.786  32.341  1.00  0.00     0.266 C 
BRANCH  14  17
HETATM   17  C2  UNL     1      27.986  17.990  29.595  1.00  0.00     0.233 C 
HETATM   18  C1  UNL     1      29.107  18.817  30.165  1.00  0.00     0.035 C 
ENDBRANCH  14  17
BRANCH  14  19
HETATM   19  C19 UNL     1      26.394  16.671  30.780  1.00  0.00     0.223 A 
HETATM   20  C17 UNL     1      27.542  15.900  31.201  1.00  0.00     0.223 A 
HETATM   21  C18 UNL     1      26.823  15.471  30.012  1.00  0.00     0.071 A 
ENDBRANCH  14  19
ENDBRANCH  10  11
ENDBRANCH   1  10
BRANCH   2  22
HETATM   22  O1  UNL     1      24.399  15.827  33.342  1.00  0.00    -0.378 OA
ATOM     23  H1  UNL     1      24.958  16.219  32.682  1.00  0.00     0.211 HD
ENDBRANCH   2  22
BRANCH   2  24
HETATM   24  C8  UNL     1      23.388  14.586  31.693  1.00  0.00     0.268 C 
HETATM   25  N3  UNL     1      23.694  13.235  31.956  1.00  0.00    -0.059 NA
HETATM   26  O2  UNL     1      23.329  14.963  30.502  1.00  0.00    -0.273 OA
ENDBRANCH   2  24
TORSDOF 7
ENDMDL
MODEL 2
REMARK VINA RESULT: -6.267112412      3.785      5.714
REMARK  7 active torsions:
REMARK  status: ('A' for Active; 'I' for Inactive)
REMARK    1  A    between atoms: C2_2  and  N1_3 
REMARK    2  A    between atoms: N1_3  and  C19_26 
REMARK    3  A    between atoms: N2_6  and  C5_7 
REMARK    4  A    between atoms: N2_6  and  C17_24 
REMARK    5  A    between atoms: C5_7  and  C6_8 
REMARK    6  A    between atoms: C7_9  and  O1_10 
REMARK    7  A    between atoms: C7_9  and  C8_12 
ROOT
HETATM    1  C6  UNL     1      23.638  16.551  33.513  1.00  0.00     0.259 C 
HETATM    2  C7  UNL     1      22.624  17.195  32.515  1.00  0.00     0.167 C 
HETATM    3  C9  UNL     1      22.770  16.431  31.259  1.00  0.00     0.078 C 
HETATM    4  C10 UNL     1      23.073  15.076  31.786  1.00  0.00     0.241 C 
HETATM    5  N4  UNL     1      24.070  15.396  32.880  1.00  0.00    -0.058 N 
HETATM    6  C11 UNL     1      23.883  14.219  33.754  1.00  0.00     0.238 C 
HETATM    7  C12 UNL     1      24.967  13.246  33.383  1.00  0.00     0.029 C 
HETATM    8  C13 UNL     1      26.098  14.170  32.995  1.00  0.00     0.029 C 
HETATM    9  C14 UNL     1      25.309  15.237  32.272  1.00  0.00     0.238 C 
ENDROOT
BRANCH   1  10
HETATM   10  C5  UNL     1      24.466  17.684  33.932  1.00  0.00     0.275 C 
BRANCH  10  11
HETATM   11  N2  UNL     1      24.625  18.262  35.191  1.00  0.00    -0.055 N 
HETATM   12  C4  UNL     1      24.136  19.576  35.447  1.00  0.00     0.266 C 
HETATM   13  C3  UNL     1      24.590  20.052  36.813  1.00  0.00     0.266 C 
HETATM   14  N1  UNL     1      25.507  19.160  37.464  1.00  0.00    -0.058 N 
HETATM   15  C16 UNL     1      24.828  17.903  37.638  1.00  0.00     0.266 C 
HETATM   16  C15 UNL     1      24.326  17.424  36.336  1.00  0.00     0.266 C 
BRANCH  14  17
HETATM   17  C2  UNL     1      25.933  19.766  38.692  1.00  0.00     0.233 C 
HETATM   18  C1  UNL     1      25.163  21.012  39.037  1.00  0.00     0.035 C 
ENDBRANCH  14  17
BRANCH  14  19
HETATM   19  C19 UNL     1      26.611  18.901  36.578  1.00  0.00     0.223 A 
HETATM   20  C17 UNL     1      27.744  18.415  37.332  1.00  0.00     0.223 A 
HETATM   21  C18 UNL     1      27.871  19.688  36.640  1.00  0.00     0.071 A 
ENDBRANCH  14  19
ENDBRANCH  10  11
ENDBRANCH   1  10
BRANCH   2  22
HETATM   22  O1  UNL     1      23.005  18.512  32.219  1.00  0.00    -0.378 OA
ATOM     23  H1  UNL     1      23.703  18.791  32.800  1.00  0.00     0.211 HD
ENDBRANCH   2  22
BRANCH   2  24
HETATM   24  C8  UNL     1      21.268  17.245  33.029  1.00  0.00     0.268 C 
HETATM   25  N3  UNL     1      21.037  17.210  34.420  1.00  0.00    -0.059 NA
HETATM   26  O2  UNL     1      20.282  17.318  32.263  1.00  0.00    -0.273 OA
ENDBRANCH   2  24
TORSDOF 7
ENDMDL
MODEL 3
REMARK VINA RESULT: -6.159052290      3.310      5.925
REMARK  7 active torsions:
REMARK  status: ('A' for Active; 'I' for Inactive)
REMARK    1  A    between atoms: C2_2  and  N1_3 
REMARK    2  A    between atoms: N1_3  and  C19_26 
REMARK    3  A    between atoms: N2_6  and  C5_7 
REMARK    4  A    between atoms: N2_6  and  C17_24 
REMARK    5  A    between atoms: C5_7  and  C6_8 
REMARK    6  A    between atoms: C7_9  and  O1_10 
REMARK    7  A    between atoms: C7_9  and  C8_12 
ROOT
HETATM    1  C6  UNL     1      24.008  15.281  32.096  1.00  0.00     0.259 C 
HETATM    2  C7  UNL     1      24.624  15.670  30.715  1.00  0.00     0.167 C 
HETATM    3  C9  UNL     1      23.748  16.734  30.180  1.00  0.00     0.078 C 
HETATM    4  C10 UNL     1      23.350  17.427  31.433  1.00  0.00     0.241 C 
HETATM    5  N4  UNL     1      23.051  16.253  32.342  1.00  0.00    -0.058 N 
HETATM    6  C11 UNL     1      23.272  16.884  33.660  1.00  0.00     0.238 C 
HETATM    7  C12 UNL     1      21.916  17.303  34.155  1.00  0.00     0.029 C 
HETATM    8  C13 UNL     1      21.025  16.230  33.576  1.00  0.00     0.029 C 
HETATM    9  C14 UNL     1      21.679  16.068  32.223  1.00  0.00     0.238 C 
ENDROOT
BRANCH   1  10
HETATM   10  C5  UNL     1      23.783  13.839  31.973  1.00  0.00     0.275 C 
BRANCH  10  11
HETATM   11  N2  UNL     1      24.309  12.782  32.714  1.00  0.00    -0.055 N 
HETATM   12  C4  UNL     1      25.653  12.832  33.185  1.00  0.00     0.266 C 
HETATM   13  C3  UNL     1      26.048  11.500  33.794  1.00  0.00     0.266 C 
HETATM   14  N1  UNL     1      25.062  10.471  33.632  1.00  0.00    -0.058 N 
HETATM   15  C16 UNL     1      23.864  10.920  34.293  1.00  0.00     0.266 C 
HETATM   16  C15 UNL     1      23.468  12.239  33.763  1.00  0.00     0.266 C 
BRANCH  14  17
HETATM   17  C2  UNL     1      25.593   9.248  34.159  1.00  0.00     0.233 C 
HETATM   18  C1  UNL     1      25.773   9.274  35.654  1.00  0.00     0.035 C 
ENDBRANCH  14  17
BRANCH  14  19
HETATM   19  C19 UNL     1      24.733  10.360  32.236  1.00  0.00     0.223 A 
HETATM   20  C17 UNL     1      24.420   8.987  31.911  1.00  0.00     0.223 A 
HETATM   21  C18 UNL     1      25.583   9.595  31.285  1.00  0.00     0.071 A 
ENDBRANCH  14  19
ENDBRANCH  10  11
ENDBRANCH   1  10
BRANCH   2  22
HETATM   22  O1  UNL     1      24.523  14.594  29.820  1.00  0.00    -0.378 OA
ATOM     23  H1  UNL     1      23.752  14.692  29.274  1.00  0.00     0.211 HD
ENDBRANCH   2  22
BRANCH   2  24
HETATM   24  C8  UNL     1      26.026  16.034  30.794  1.00  0.00     0.268 C 
HETATM   25  N3  UNL     1      26.706  16.483  29.643  1.00  0.00    -0.059 NA
HETATM   26  O2  UNL     1      26.658  15.960  31.870  1.00  0.00    -0.273 OA
ENDBRANCH   2  24
TORSDOF 7
ENDMDL
MODEL 4
REMARK VINA RESULT: -6.147271117      2.908      6.413
REMARK  7 active torsions:
REMARK  status: ('A' for Active; 'I' for Inactive)
REMARK    1  A    between atoms: C2_2  and  N1_3 
REMARK    2  A    between atoms: N1_3  and  C19_26 
REMARK    3  A    between atoms: N2_6  and  C5_7 
REMARK    4  A    between atoms: N2_6  and  C17_24 
REMARK    5  A    between atoms: C5_7  and  C6_8 
REMARK    6  A    between atoms: C7_9  and  O1_10 
REMARK    7  A    between atoms: C7_9  and  C8_12 
ROOT
HETATM    1  C6  UNL     1      25.030  12.598  32.709  1.00  0.00     0.259 C 
HETATM    2  C7  UNL     1      24.470  11.149  32.868  1.00  0.00     0.167 C 
HETATM    3  C9  UNL     1      25.306  10.306  31.988  1.00  0.00     0.078 C 
HETATM    4  C10 UNL     1      26.620  10.988  32.109  1.00  0.00     0.241 C 
HETATM    5  N4  UNL     1      26.212  12.443  32.002  1.00  0.00    -0.058 N 
HETATM    6  C11 UNL     1      27.338  13.081  32.717  1.00  0.00     0.238 C 
HETATM    7  C12 UNL     1      28.308  13.525  31.659  1.00  0.00     0.029 C 
HETATM    8  C13 UNL     1      27.386  13.869  30.513  1.00  0.00     0.029 C 
HETATM    9  C14 UNL     1      26.382  12.749  30.657  1.00  0.00     0.238 C 
ENDROOT
BRANCH   1  10
HETATM   10  C5  UNL     1      23.857  13.371  32.297  1.00  0.00     0.275 C 
BRANCH  10  11
HETATM   11  N2  UNL     1      23.490  14.680  32.608  1.00  0.00    -0.055 N 
HETATM   12  C4  UNL     1      23.778  15.222  33.894  1.00  0.00     0.266 C 
HETATM   13  C3  UNL     1      23.122  16.580  34.053  1.00  0.00     0.266 C 
HETATM   14  N1  UNL     1      22.260  16.940  32.964  1.00  0.00    -0.058 N 
HETATM   15  C16 UNL     1      23.070  16.979  31.775  1.00  0.00     0.266 C 
HETATM   16  C15 UNL     1      23.767  15.690  31.605  1.00  0.00     0.266 C 
BRANCH  14  17
HETATM   17  C2  UNL     1      21.631  18.189  33.280  1.00  0.00     0.233 C 
HETATM   18  C1  UNL     1      22.130  18.799  34.562  1.00  0.00     0.035 C 
ENDBRANCH  14  17
BRANCH  14  19
HETATM   19  C19 UNL     1      21.301  15.887  32.764  1.00  0.00     0.223 A 
HETATM   20  C17 UNL     1      20.159  16.392  32.035  1.00  0.00     0.223 A 
HETATM   21  C18 UNL     1      19.954  15.917  33.395  1.00  0.00     0.071 A 
ENDBRANCH  14  19
ENDBRANCH  10  11
ENDBRANCH   1  10
BRANCH   2  22
HETATM   22  O1  UNL     1      23.166  11.075  32.357  1.00  0.00    -0.378 OA
ATOM     23  H1  UNL     1      22.976  11.841  31.830  1.00  0.00     0.211 HD
ENDBRANCH   2  22
BRANCH   2  24
HETATM   24  C8  UNL     1      24.418  10.703  34.248  1.00  0.00     0.268 C 
HETATM   25  N3  UNL     1      23.234  10.136  34.764  1.00  0.00    -0.059 NA
HETATM   26  O2  UNL     1      25.408  10.809  35.005  1.00  0.00    -0.273 OA
ENDBRANCH   2  24
TORSDOF 7
ENDMDL
MODEL 5
REMARK VINA RESULT: -6.134445466      2.741      4.980
REMARK  7 active torsions:
REMARK  status: ('A' for Active; 'I' for Inactive)
REMARK    1  A    between atoms: C2_2  and  N1_3 
REMARK    2  A    between atoms: N1_3  and  C19_26 
REMARK    3  A    between atoms: N2_6  and  C5_7 
REMARK    4  A    between atoms: N2_6  and  C17_24 
REMARK    5  A    between atoms: C5_7  and  C6_8 
REMARK    6  A    between atoms: C7_9  and  O1_10 
REMARK    7  A    between atoms: C7_9  and  C8_12 
ROOT
HETATM    1  C6  UNL     1      22.410  15.841  32.477  1.00  0.00     0.259 C 
HETATM    2  C7  UNL     1      20.988  15.982  33.105  1.00  0.00     0.167 C 
HETATM    3  C9  UNL     1      21.046  17.199  33.942  1.00  0.00     0.078 C 
HETATM    4  C10 UNL     1      21.979  18.041  33.150  1.00  0.00     0.241 C 
HETATM    5  N4  UNL     1      23.048  17.035  32.778  1.00  0.00    -0.058 N 
HETATM    6  C11 UNL     1      23.582  17.666  31.553  1.00  0.00     0.238 C 
HETATM    7  C12 UNL     1      24.799  18.440  31.977  1.00  0.00     0.029 C 
HETATM    8  C13 UNL     1      25.330  17.592  33.109  1.00  0.00     0.029 C 
HETATM    9  C14 UNL     1      24.023  17.194  33.755  1.00  0.00     0.238 C 
ENDROOT
BRANCH   1  10
HETATM   10  C5  UNL     1      22.828  14.498  32.883  1.00  0.00     0.275 C 
BRANCH  10  11
HETATM   11  N2  UNL     1      24.014  13.810  32.627  1.00  0.00    -0.055 N 
HETATM   12  C4  UNL     1      24.684  13.972  31.379  1.00  0.00     0.266 C 
HETATM   13  C3  UNL     1      25.834  12.989  31.268  1.00  0.00     0.266 C 
HETATM   14  N1  UNL     1      25.898  12.044  32.345  1.00  0.00    -0.058 N 
HETATM   15  C16 UNL     1      26.077  12.795  33.561  1.00  0.00     0.266 C 
HETATM   16  C15 UNL     1      25.003  13.799  33.688  1.00  0.00     0.266 C 
BRANCH  14  17
HETATM   17  C2  UNL     1      26.959  11.119  32.073  1.00  0.00     0.233 C 
HETATM   18  C1  UNL     1      27.707  11.430  30.804  1.00  0.00     0.035 C 
ENDBRANCH  14  17
BRANCH  14  19
HETATM   19  C19 UNL     1      24.624  11.387  32.462  1.00  0.00     0.223 A 
HETATM   20  C17 UNL     1      24.721  10.285  33.393  1.00  0.00     0.223 A 
HETATM   21  C18 UNL     1      24.415   9.988  32.003  1.00  0.00     0.071 A 
ENDBRANCH  14  19
ENDBRANCH  10  11
ENDBRANCH   1  10
BRANCH   2  22
HETATM   22  O1  UNL     1      20.737  14.916  33.981  1.00  0.00    -0.378 OA
ATOM     23  H1  UNL     1      20.075  14.340  33.617  1.00  0.00     0.211 HD
ENDBRANCH   2  22
BRANCH   2  24
HETATM   24  C8  UNL     1      19.924  15.987  32.118  1.00  0.00     0.268 C 
HETATM   25  N3  UNL     1      19.091  17.117  31.982  1.00  0.00    -0.059 NA
HETATM   26  O2  UNL     1      19.722  15.004  31.372  1.00  0.00    -0.273 OA
ENDBRANCH   2  24
TORSDOF 7
ENDMDL
