MODEL 1
REMARK VINA RESULT: -7.087799351      0.000      0.000
REMARK  6 active torsions:
REMARK  status: ('A' for Active; 'I' for Inactive)
REMARK    1  A    between atoms: C3_5  and  C4_6 
REMARK    2  A    between atoms: C3_5  and  N5_25 
REMARK    3  A    between atoms: C4_6  and  C5_7 
REMARK       I    between atoms: N2_11  and  C9_12 
REMARK    4  A    between atoms: C9_12  and  C10_14 
REMARK    5  A    between atoms: C10_14  and  N3_15 
REMARK    6  A    between atoms: N5_25  and  N6_27 
ROOT
HETATM    1  C1  UNL     1      16.340  17.914  30.978  1.00  0.00     0.037 C 
HETATM    2  C2  UNL     1      17.410  17.745  31.537  1.00  0.00     0.000 C 
HETATM    3  N1  UNL     1      18.633  17.527  32.167  1.00  0.00    -0.304 N 
ATOM      4  H1  UNL     1      19.359  16.979  31.706  1.00  0.00     0.177 HD
HETATM    5  C3  UNL     1      18.836  18.020  33.323  1.00  0.00     0.104 C 
ENDROOT
BRANCH   5   6
HETATM    6  C4  UNL     1      20.125  17.831  34.068  1.00  0.00     0.103 C 
BRANCH   6   7
HETATM    7  C5  UNL     1      21.086  17.156  33.156  1.00  0.00     0.094 C 
HETATM    8  C6  UNL     1      21.113  15.655  33.404  1.00  0.00     0.027 C 
HETATM    9  C7  UNL     1      22.351  15.255  32.611  1.00  0.00     0.022 C 
HETATM   10  C8  UNL     1      23.233  16.480  32.660  1.00  0.00     0.127 C 
HETATM   11  N2  UNL     1      22.460  17.493  33.353  1.00  0.00    -0.342 N 
HETATM   12  C9  UNL     1      23.074  18.567  34.062  1.00  0.00     0.267 C 
HETATM   13  O1  UNL     1      22.280  19.363  34.615  1.00  0.00    -0.267 OA
BRANCH  12  14
HETATM   14  C10 UNL     1      24.505  18.761  34.158  1.00  0.00     0.276 C 
BRANCH  14  15
HETATM   15  N3  UNL     1      25.110  18.694  35.453  1.00  0.00    -0.039 N 
HETATM   16  C11 UNL     1      26.565  18.749  35.386  1.00  0.00     0.245 C 
HETATM   17  C12 UNL     1      27.186  18.993  36.745  1.00  0.00     0.056 C 
HETATM   18  C13 UNL     1      26.560  18.228  37.860  1.00  0.00     0.238 C 
HETATM   19  N4  UNL     1      25.235  18.670  38.165  1.00  0.00    -0.068 N 
HETATM   20  C14 UNL     1      24.957  18.750  39.583  1.00  0.00     0.272 C 
HETATM   21  C15 UNL     1      24.914  19.956  37.585  1.00  0.00     0.265 C 
HETATM   22  C17 UNL     1      24.308  17.725  37.567  1.00  0.00     0.265 C 
HETATM   23  C16 UNL     1      24.726  19.930  36.122  1.00  0.00     0.271 C 
HETATM   24  C18 UNL     1      24.640  17.509  36.107  1.00  0.00     0.271 C 
ENDBRANCH  14  15
ENDBRANCH  12  14
ENDBRANCH   6   7
ENDBRANCH   5   6
BRANCH   5  25
HETATM   25  N5  UNL     1      17.819  18.778  33.946  1.00  0.00    -0.295 N 
ATOM     26  H5  UNL     1      16.953  18.296  34.188  1.00  0.00     0.187 HD
BRANCH  25  27
HETATM   27  N6  UNL     1      17.910  20.134  34.255  1.00  0.00    -0.344 N 
ATOM     28  H62 UNL     1      18.835  20.482  34.507  1.00  0.00     0.176 HD
ATOM     29  H61 UNL     1      17.128  20.788  34.246  1.00  0.00     0.176 HD
ENDBRANCH  25  27
ENDBRANCH   5  25
TORSDOF 6
ENDMDL
MODEL 2
REMARK VINA RESULT: -6.877781800      3.503      4.623
REMARK  6 active torsions:
REMARK  status: ('A' for Active; 'I' for Inactive)
REMARK    1  A    between atoms: C3_5  and  C4_6 
REMARK    2  A    between atoms: C3_5  and  N5_25 
REMARK    3  A    between atoms: C4_6  and  C5_7 
REMARK       I    between atoms: N2_11  and  C9_12 
REMARK    4  A    between atoms: C9_12  and  C10_14 
REMARK    5  A    between atoms: C10_14  and  N3_15 
REMARK    6  A    between atoms: N5_25  and  N6_27 
ROOT
HETATM    1  C1  UNL     1      17.765  18.281  32.411  1.00  0.00     0.037 C 
HETATM    2  C2  UNL     1      18.900  18.068  32.803  1.00  0.00     0.000 C 
HETATM    3  N1  UNL     1      20.204  17.846  33.239  1.00  0.00    -0.304 N 
ATOM      4  H1  UNL     1      20.774  18.622  33.574  1.00  0.00     0.177 HD
HETATM    5  C3  UNL     1      20.677  16.664  33.216  1.00  0.00     0.104 C 
ENDROOT
BRANCH   5   6
HETATM    6  C4  UNL     1      22.072  16.343  33.668  1.00  0.00     0.103 C 
BRANCH   6   7
HETATM    7  C5  UNL     1      22.630  15.323  32.740  1.00  0.00     0.094 C 
HETATM    8  C6  UNL     1      23.540  14.354  33.478  1.00  0.00     0.027 C 
HETATM    9  C7  UNL     1      24.211  13.643  32.308  1.00  0.00     0.022 C 
HETATM   10  C8  UNL     1      24.224  14.677  31.206  1.00  0.00     0.127 C 
HETATM   11  N2  UNL     1      23.515  15.826  31.737  1.00  0.00    -0.342 N 
HETATM   12  C9  UNL     1      23.750  17.151  31.266  1.00  0.00     0.267 C 
HETATM   13  O1  UNL     1      23.066  18.042  31.821  1.00  0.00    -0.267 OA
BRANCH  12  14
HETATM   14  C10 UNL     1      24.697  17.484  30.224  1.00  0.00     0.276 C 
BRANCH  14  15
HETATM   15  N3  UNL     1      25.972  18.004  30.612  1.00  0.00    -0.039 N 
HETATM   16  C11 UNL     1      27.051  17.509  29.765  1.00  0.00     0.245 C 
HETATM   17  C12 UNL     1      28.333  18.287  29.968  1.00  0.00     0.056 C 
HETATM   18  C13 UNL     1      28.645  18.612  31.389  1.00  0.00     0.238 C 
HETATM   19  N4  UNL     1      27.741  19.565  31.955  1.00  0.00    -0.068 N 
HETATM   20  C14 UNL     1      28.387  20.566  32.777  1.00  0.00     0.272 C 
HETATM   21  C15 UNL     1      26.950  20.261  30.963  1.00  0.00     0.265 C 
HETATM   22  C17 UNL     1      26.791  18.836  32.777  1.00  0.00     0.265 C 
HETATM   23  C16 UNL     1      25.908  19.431  30.329  1.00  0.00     0.271 C 
HETATM   24  C18 UNL     1      26.181  17.694  31.996  1.00  0.00     0.271 C 
ENDBRANCH  14  15
ENDBRANCH  12  14
ENDBRANCH   6   7
ENDBRANCH   5   6
BRANCH   5  25
HETATM   25  N5  UNL     1      19.873  15.600  32.748  1.00  0.00    -0.295 N 
ATOM     26  H5  UNL     1      19.679  15.560  31.748  1.00  0.00     0.187 HD
BRANCH  25  27
HETATM   27  N6  UNL     1      19.325  14.601  33.552  1.00  0.00    -0.344 N 
ATOM     28  H62 UNL     1      19.356  14.760  34.559  1.00  0.00     0.176 HD
ATOM     29  H61 UNL     1      18.904  13.740  33.206  1.00  0.00     0.176 HD
ENDBRANCH  25  27
ENDBRANCH   5  25
TORSDOF 6
ENDMDL
MODEL 3
REMARK VINA RESULT: -6.730704267      1.079      1.661
REMARK  6 active torsions:
REMARK  status: ('A' for Active; 'I' for Inactive)
REMARK    1  A    between atoms: C3_5  and  C4_6 
REMARK    2  A    between atoms: C3_5  and  N5_25 
REMARK    3  A    between atoms: C4_6  and  C5_7 
REMARK       I    between atoms: N2_11  and  C9_12 
REMARK    4  A    between atoms: C9_12  and  C10_14 
REMARK    5  A    between atoms: C10_14  and  N3_15 
REMARK    6  A    between atoms: N5_25  and  N6_27 
ROOT
HETATM    1  C1  UNL     1      16.617  18.008  31.308  1.00  0.00     0.037 C 
HETATM    2  C2  UNL     1      17.700  17.556  31.639  1.00  0.00     0.000 C 
HETATM    3  N1  UNL     1      18.931  17.019  32.007  1.00  0.00    -0.304 N 
ATOM      4  H1  UNL     1      19.444  16.418  31.362  1.00  0.00     0.177 HD
HETATM    5  C3  UNL     1      19.411  17.284  33.156  1.00  0.00     0.104 C 
ENDROOT
BRANCH   5   6
HETATM    6  C4  UNL     1      20.729  16.744  33.627  1.00  0.00     0.103 C 
BRANCH   6   7
HETATM    7  C5  UNL     1      21.758  17.103  32.615  1.00  0.00     0.094 C 
HETATM    8  C6  UNL     1      22.546  15.877  32.180  1.00  0.00     0.027 C 
HETATM    9  C7  UNL     1      23.697  16.529  31.424  1.00  0.00     0.022 C 
HETATM   10  C8  UNL     1      23.869  17.871  32.098  1.00  0.00     0.127 C 
HETATM   11  N2  UNL     1      22.806  17.954  33.082  1.00  0.00    -0.342 N 
HETATM   12  C9  UNL     1      22.913  18.765  34.250  1.00  0.00     0.267 C 
HETATM   13  O1  UNL     1      21.918  18.734  35.012  1.00  0.00    -0.267 OA
BRANCH  12  14
HETATM   14  C10 UNL     1      24.066  19.579  34.569  1.00  0.00     0.276 C 
BRANCH  14  15
HETATM   15  N3  UNL     1      24.948  19.126  35.600  1.00  0.00    -0.039 N 
HETATM   16  C11 UNL     1      24.992  17.671  35.690  1.00  0.00     0.245 C 
HETATM   17  C12 UNL     1      26.140  17.191  36.549  1.00  0.00     0.056 C 
HETATM   18  C13 UNL     1      26.357  17.980  37.795  1.00  0.00     0.238 C 
HETATM   19  N4  UNL     1      26.838  19.302  37.541  1.00  0.00    -0.068 N 
HETATM   20  C14 UNL     1      27.881  19.730  38.449  1.00  0.00     0.272 C 
HETATM   21  C15 UNL     1      27.335  19.480  36.193  1.00  0.00     0.265 C 
HETATM   22  C17 UNL     1      25.713  20.212  37.669  1.00  0.00     0.265 C 
HETATM   23  C16 UNL     1      26.283  19.507  35.159  1.00  0.00     0.271 C 
HETATM   24  C18 UNL     1      24.547  19.735  36.834  1.00  0.00     0.271 C 
ENDBRANCH  14  15
ENDBRANCH  12  14
ENDBRANCH   6   7
ENDBRANCH   5   6
BRANCH   5  25
HETATM   25  N5  UNL     1      18.686  18.119  34.037  1.00  0.00    -0.295 N 
ATOM     26  H5  UNL     1      17.723  17.859  34.247  1.00  0.00     0.187 HD
BRANCH  25  27
HETATM   27  N6  UNL     1      19.190  19.270  34.641  1.00  0.00    -0.344 N 
ATOM     28  H62 UNL     1      20.175  19.250  34.908  1.00  0.00     0.176 HD
ATOM     29  H61 UNL     1      18.650  20.114  34.830  1.00  0.00     0.176 HD
ENDBRANCH  25  27
ENDBRANCH   5  25
TORSDOF 6
ENDMDL
MODEL 4
REMARK VINA RESULT: -6.706261983      1.384      2.323
REMARK  6 active torsions:
REMARK  status: ('A' for Active; 'I' for Inactive)
REMARK    1  A    between atoms: C3_5  and  C4_6 
REMARK    2  A    between atoms: C3_5  and  N5_25 
REMARK    3  A    between atoms: C4_6  and  C5_7 
REMARK       I    between atoms: N2_11  and  C9_12 
REMARK    4  A    between atoms: C9_12  and  C10_14 
REMARK    5  A    between atoms: C10_14  and  N3_15 
REMARK    6  A    between atoms: N5_25  and  N6_27 
ROOT
HETATM    1  C1  UNL     1      17.062  18.116  31.586  1.00  0.00     0.037 C 
HETATM    2  C2  UNL     1      18.088  17.664  32.065  1.00  0.00     0.000 C 
HETATM    3  N1  UNL     1      19.249  17.125  32.615  1.00  0.00    -0.304 N 
ATOM      4  H1  UNL     1      19.528  16.169  32.394  1.00  0.00     0.177 HD
HETATM    5  C3  UNL     1      19.958  17.837  33.397  1.00  0.00     0.104 C 
ENDROOT
BRANCH   5   6
HETATM    6  C4  UNL     1      21.220  17.330  34.031  1.00  0.00     0.103 C 
BRANCH   6   7
HETATM    7  C5  UNL     1      22.365  18.039  33.400  1.00  0.00     0.094 C 
HETATM    8  C6  UNL     1      22.785  17.354  32.108  1.00  0.00     0.027 C 
HETATM    9  C7  UNL     1      24.117  18.043  31.838  1.00  0.00     0.022 C 
HETATM   10  C8  UNL     1      24.634  18.400  33.213  1.00  0.00     0.127 C 
HETATM   11  N2  UNL     1      23.587  18.009  34.139  1.00  0.00    -0.342 N 
HETATM   12  C9  UNL     1      23.858  17.680  35.499  1.00  0.00     0.267 C 
HETATM   13  O1  UNL     1      22.856  17.357  36.179  1.00  0.00    -0.267 OA
BRANCH  12  14
HETATM   14  C10 UNL     1      25.178  17.706  36.091  1.00  0.00     0.276 C 
BRANCH  14  15
HETATM   15  N3  UNL     1      25.427  18.640  37.147  1.00  0.00    -0.039 N 
HETATM   16  C11 UNL     1      24.523  19.783  37.097  1.00  0.00     0.245 C 
HETATM   17  C12 UNL     1      24.571  20.599  38.370  1.00  0.00     0.056 C 
HETATM   18  C13 UNL     1      25.939  20.806  38.924  1.00  0.00     0.238 C 
HETATM   19  N4  UNL     1      26.521  19.605  39.436  1.00  0.00    -0.068 N 
HETATM   20  C14 UNL     1      27.227  19.784  40.687  1.00  0.00     0.272 C 
HETATM   21  C15 UNL     1      25.560  18.540  39.626  1.00  0.00     0.265 C 
HETATM   22  C17 UNL     1      27.462  19.114  38.443  1.00  0.00     0.265 C 
HETATM   23  C16 UNL     1      25.066  17.939  38.372  1.00  0.00     0.271 C 
HETATM   24  C18 UNL     1      26.803  19.032  37.084  1.00  0.00     0.271 C 
ENDBRANCH  14  15
ENDBRANCH  12  14
ENDBRANCH   6   7
ENDBRANCH   5   6
BRANCH   5  25
HETATM   25  N5  UNL     1      19.555  19.159  33.693  1.00  0.00    -0.295 N 
ATOM     26  H5  UNL     1      19.589  19.842  32.936  1.00  0.00     0.187 HD
BRANCH  25  27
HETATM   27  N6  UNL     1      19.117  19.600  34.941  1.00  0.00    -0.344 N 
ATOM     28  H62 UNL     1      18.190  19.290  35.232  1.00  0.00     0.176 HD
ATOM     29  H61 UNL     1      19.652  20.199  35.568  1.00  0.00     0.176 HD
ENDBRANCH  25  27
ENDBRANCH   5  25
TORSDOF 6
ENDMDL
MODEL 5
REMARK VINA RESULT: -6.693941640      3.671      4.815
REMARK  6 active torsions:
REMARK  status: ('A' for Active; 'I' for Inactive)
REMARK    1  A    between atoms: C3_5  and  C4_6 
REMARK    2  A    between atoms: C3_5  and  N5_25 
REMARK    3  A    between atoms: C4_6  and  C5_7 
REMARK       I    between atoms: N2_11  and  C9_12 
REMARK    4  A    between atoms: C9_12  and  C10_14 
REMARK    5  A    between atoms: C10_14  and  N3_15 
REMARK    6  A    between atoms: N5_25  and  N6_27 
ROOT
HETATM    1  C1  UNL     1      17.763  18.160  32.395  1.00  0.00     0.037 C 
HETATM    2  C2  UNL     1      18.902  17.972  32.788  1.00  0.00     0.000 C 
HETATM    3  N1  UNL     1      20.210  17.779  33.227  1.00  0.00    -0.304 N 
ATOM      4  H1  UNL     1      20.767  18.570  33.549  1.00  0.00     0.177 HD
HETATM    5  C3  UNL     1      20.703  16.606  33.221  1.00  0.00     0.104 C 
ENDROOT
BRANCH   5   6
HETATM    6  C4  UNL     1      22.103  16.314  33.677  1.00  0.00     0.103 C 
BRANCH   6   7
HETATM    7  C5  UNL     1      22.680  15.297  32.759  1.00  0.00     0.094 C 
HETATM    8  C6  UNL     1      23.620  14.361  33.504  1.00  0.00     0.027 C 
HETATM    9  C7  UNL     1      24.300  13.651  32.339  1.00  0.00     0.022 C 
HETATM   10  C8  UNL     1      24.280  14.669  31.223  1.00  0.00     0.127 C 
HETATM   11  N2  UNL     1      23.545  15.807  31.743  1.00  0.00    -0.342 N 
HETATM   12  C9  UNL     1      23.744  17.130  31.251  1.00  0.00     0.267 C 
HETATM   13  O1  UNL     1      23.042  18.012  31.798  1.00  0.00    -0.267 OA
BRANCH  12  14
HETATM   14  C10 UNL     1      24.675  17.472  30.198  1.00  0.00     0.276 C 
BRANCH  14  15
HETATM   15  N3  UNL     1      25.920  18.073  30.567  1.00  0.00    -0.039 N 
HETATM   16  C11 UNL     1      25.903  19.522  30.406  1.00  0.00     0.245 C 
HETATM   17  C12 UNL     1      27.086  20.181  31.081  1.00  0.00     0.056 C 
HETATM   18  C13 UNL     1      28.382  19.468  30.900  1.00  0.00     0.238 C 
HETATM   19  N4  UNL     1      28.431  18.216  31.590  1.00  0.00    -0.068 N 
HETATM   20  C14 UNL     1      29.692  17.963  32.253  1.00  0.00     0.272 C 
HETATM   21  C15 UNL     1      27.383  18.066  32.576  1.00  0.00     0.265 C 
HETATM   22  C17 UNL     1      28.206  17.166  30.612  1.00  0.00     0.265 C 
HETATM   23  C16 UNL     1      26.038  17.864  32.004  1.00  0.00     0.271 C 
HETATM   24  C18 UNL     1      26.962  17.454  29.802  1.00  0.00     0.271 C 
ENDBRANCH  14  15
ENDBRANCH  12  14
ENDBRANCH   6   7
ENDBRANCH   5   6
BRANCH   5  25
HETATM   25  N5  UNL     1      19.917  15.521  32.771  1.00  0.00    -0.295 N 
ATOM     26  H5  UNL     1      19.775  15.426  31.766  1.00  0.00     0.187 HD
BRANCH  25  27
HETATM   27  N6  UNL     1      19.319  14.571  33.599  1.00  0.00    -0.344 N 
ATOM     28  H62 UNL     1      19.943  13.891  34.034  1.00  0.00     0.176 HD
ATOM     29  H61 UNL     1      18.320  14.512  33.793  1.00  0.00     0.176 HD
ENDBRANCH  25  27
ENDBRANCH   5  25
TORSDOF 6
ENDMDL
