MODEL 1
REMARK VINA RESULT: -1.029400194      0.000      0.000
REMARK  6 active torsions:
REMARK  status: ('A' for Active; 'I' for Inactive)
REMARK    1  A    between atoms: O1_2  and  C2_3 
REMARK    2  A    between atoms: C5_6  and  C6_7 
REMARK    3  A    between atoms: C8_11  and  C9_12 
REMARK    4  A    between atoms: N3_22  and  O2_23 
REMARK    5  A    between atoms: C17_25  and  C18_26 
REMARK    6  A    between atoms: N4_33  and  O3_34 
ROOT
HETATM    1  C6  UNL     1      -3.588  -9.386  25.936  1.00  0.00     0.143 A 
HETATM    2  N1  UNL     1      -4.752  -8.729  25.646  1.00  0.00    -0.349 N 
ATOM      3  H1  UNL     1      -5.470  -8.670  26.367  1.00  0.00     0.167 HD
HETATM    4  C7  UNL     1      -4.990  -8.166  24.472  1.00  0.00     0.107 A 
HETATM    5  C8  UNL     1      -4.019  -8.234  23.466  1.00  0.00     0.056 A 
HETATM    6  C17 UNL     1      -2.848  -8.886  23.734  1.00  0.00     0.090 A 
HETATM    7  N4  UNL     1      -2.692  -9.441  24.984  1.00  0.00    -0.206 N 
ENDROOT
BRANCH   5   8
HETATM    8  C9  UNL     1      -4.278  -7.610  22.177  1.00  0.00     0.148 A 
HETATM    9  N2  UNL     1      -4.688  -6.314  22.045  1.00  0.00    -0.338 N 
HETATM   10  C10 UNL     1      -4.849  -6.050  20.742  1.00  0.00     0.063 A 
ATOM     11  H2  UNL     1      -4.845  -5.657  22.810  1.00  0.00     0.167 HD
HETATM   12  C11 UNL     1      -5.239  -4.938  20.019  1.00  0.00     0.032 A 
HETATM   13  C16 UNL     1      -4.544  -7.179  20.005  1.00  0.00     0.091 A 
HETATM   14  C12 UNL     1      -5.331  -4.913  18.648  1.00  0.00     0.009 A 
HETATM   15  C13 UNL     1      -5.017  -6.061  17.951  1.00  0.00    -0.060 A 
HETATM   16  C14 UNL     1      -5.117  -6.032  16.475  1.00  0.00     0.048 C 
HETATM   17  C15 UNL     1      -4.627  -7.183  18.640  1.00  0.00     0.041 A 
HETATM   18  N3  UNL     1      -4.197  -8.113  20.952  1.00  0.00    -0.205 N 
BRANCH  18  19
HETATM   19  O2  UNL     1      -3.841  -9.365  20.568  1.00  0.00    -0.281 OA
ATOM     20  H2  UNL     1      -4.396 -10.119  20.411  1.00  0.00     0.245 HD
ENDBRANCH  18  19
ENDBRANCH   5   8
BRANCH   6  21
HETATM   21  C18 UNL     1      -1.765  -9.006  22.777  1.00  0.00    -0.006 A 
HETATM   22  C19 UNL     1      -1.418 -10.192  22.159  1.00  0.00     0.017 A 
HETATM   23  C20 UNL     1      -0.404 -10.265  21.227  1.00  0.00     0.043 A 
HETATM   24  C21 UNL     1       0.291  -9.124  20.896  1.00  0.00     0.116 A 
HETATM   25  F1  UNL     1       1.300  -9.129  19.985  1.00  0.00    -0.206 F 
HETATM   26  C22 UNL     1      -0.036  -7.928  21.498  1.00  0.00     0.043 A 
HETATM   27  C23 UNL     1      -1.049  -7.869  22.427  1.00  0.00     0.017 A 
ENDBRANCH   6  21
BRANCH   7  28
HETATM   28  O3  UNL     1      -1.513 -10.073  25.189  1.00  0.00    -0.281 OA
ATOM     29  H3  UNL     1      -1.033 -10.442  24.457  1.00  0.00     0.245 HD
ENDBRANCH   7  28
BRANCH   1  30
HETATM   30  C5  UNL     1      -3.503  -9.944  27.282  1.00  0.00     0.012 A 
HETATM   31  C4  UNL     1      -2.345 -10.275  27.921  1.00  0.00     0.018 A 
HETATM   32  C3  UNL     1      -2.317 -10.812  29.231  1.00  0.00     0.039 A 
HETATM   33  C2  UNL     1      -3.501 -11.015  29.902  1.00  0.00     0.085 A 
HETATM   34  C25 UNL     1      -4.690 -10.690  29.286  1.00  0.00     0.045 A 
HETATM   35  C24 UNL     1      -4.674 -10.173  28.017  1.00  0.00     0.037 A 
HETATM   36 BR1  UNL     1      -6.312 -10.978  30.238  1.00  0.00    -0.048 Br
BRANCH  33  37
HETATM   37  O1  UNL     1      -3.467 -11.540  31.184  1.00  0.00    -0.355 OA
HETATM   38  C1  UNL     1      -3.072 -10.766  32.277  1.00  0.00     0.210 C 
ENDBRANCH  33  37
ENDBRANCH   1  30
TORSDOF 6
ENDMDL
MODEL 2
REMARK VINA RESULT: -0.561037329      1.964      2.412
REMARK  6 active torsions:
REMARK  status: ('A' for Active; 'I' for Inactive)
REMARK    1  A    between atoms: O1_2  and  C2_3 
REMARK    2  A    between atoms: C5_6  and  C6_7 
REMARK    3  A    between atoms: C8_11  and  C9_12 
REMARK    4  A    between atoms: N3_22  and  O2_23 
REMARK    5  A    between atoms: C17_25  and  C18_26 
REMARK    6  A    between atoms: N4_33  and  O3_34 
ROOT
HETATM    1  C6  UNL     1      -3.696  -9.525  26.448  1.00  0.00     0.143 A 
HETATM    2  N1  UNL     1      -3.862  -8.170  26.374  1.00  0.00    -0.349 N 
ATOM      3  H1  UNL     1      -3.896  -7.636  27.242  1.00  0.00     0.167 HD
HETATM    4  C7  UNL     1      -3.980  -7.518  25.229  1.00  0.00     0.107 A 
HETATM    5  C8  UNL     1      -3.935  -8.229  24.024  1.00  0.00     0.056 A 
HETATM    6  C17 UNL     1      -3.770  -9.586  24.073  1.00  0.00     0.090 A 
HETATM    7  N4  UNL     1      -3.657 -10.175  25.312  1.00  0.00    -0.206 N 
ENDROOT
BRANCH   5   8
HETATM    8  C9  UNL     1      -4.058  -7.512  22.763  1.00  0.00     0.148 A 
HETATM    9  N2  UNL     1      -2.985  -7.007  22.085  1.00  0.00    -0.338 N 
HETATM   10  C10 UNL     1      -3.431  -6.398  20.980  1.00  0.00     0.063 A 
ATOM     11  H2  UNL     1      -2.009  -7.081  22.373  1.00  0.00     0.167 HD
HETATM   12  C11 UNL     1      -2.827  -5.722  19.935  1.00  0.00     0.032 A 
HETATM   13  C16 UNL     1      -4.808  -6.500  20.923  1.00  0.00     0.091 A 
HETATM   14  C12 UNL     1      -3.519  -5.168  18.884  1.00  0.00     0.009 A 
HETATM   15  C13 UNL     1      -4.892  -5.293  18.867  1.00  0.00    -0.060 A 
HETATM   16  C14 UNL     1      -5.634  -4.696  17.734  1.00  0.00     0.048 C 
HETATM   17  C15 UNL     1      -5.522  -5.958  19.890  1.00  0.00     0.041 A 
HETATM   18  N3  UNL     1      -5.138  -7.202  22.058  1.00  0.00    -0.205 N 
BRANCH  18  19
HETATM   19  O2  UNL     1      -6.438  -7.478  22.328  1.00  0.00    -0.281 OA
ATOM     20  H2  UNL     1      -6.879  -7.505  23.168  1.00  0.00     0.245 HD
ENDBRANCH  18  19
ENDBRANCH   5   8
BRANCH   6  21
HETATM   21  C18 UNL     1      -3.692 -10.424  22.893  1.00  0.00    -0.006 A 
HETATM   22  C19 UNL     1      -2.519 -10.671  22.207  1.00  0.00     0.017 A 
HETATM   23  C20 UNL     1      -2.471 -11.502  21.107  1.00  0.00     0.043 A 
HETATM   24  C21 UNL     1      -3.628 -12.108  20.671  1.00  0.00     0.116 A 
HETATM   25  F1  UNL     1      -3.649 -12.938  19.594  1.00  0.00    -0.206 F 
HETATM   26  C22 UNL     1      -4.812 -11.878  21.339  1.00  0.00     0.043 A 
HETATM   27  C23 UNL     1      -4.844 -11.047  22.434  1.00  0.00     0.017 A 
ENDBRANCH   6  21
BRANCH   7  28
HETATM   28  O3  UNL     1      -3.497 -11.518  25.297  1.00  0.00    -0.281 OA
ATOM     29  H3  UNL     1      -4.021 -12.057  24.717  1.00  0.00     0.245 HD
ENDBRANCH   7  28
BRANCH   1  30
HETATM   30  C5  UNL     1      -3.585 -10.069  27.798  1.00  0.00     0.012 A 
HETATM   31  C4  UNL     1      -2.413 -10.327  28.444  1.00  0.00     0.018 A 
HETATM   32  C3  UNL     1      -2.359 -10.854  29.757  1.00  0.00     0.039 A 
HETATM   33  C2  UNL     1      -3.532 -11.123  30.424  1.00  0.00     0.085 A 
HETATM   34  C25 UNL     1      -4.735 -10.874  29.800  1.00  0.00     0.045 A 
HETATM   35  C24 UNL     1      -4.744 -10.364  28.529  1.00  0.00     0.037 A 
HETATM   36 BR1  UNL     1      -6.342 -11.253  30.747  1.00  0.00    -0.048 Br
BRANCH  33  37
HETATM   37  O1  UNL     1      -3.474 -11.639  31.709  1.00  0.00    -0.355 OA
HETATM   38  C1  UNL     1      -3.033 -10.864  32.784  1.00  0.00     0.210 C 
ENDBRANCH  33  37
ENDBRANCH   1  30
TORSDOF 6
ENDMDL
MODEL 3
REMARK VINA RESULT: 0.036670783      1.000      1.115
REMARK  6 active torsions:
REMARK  status: ('A' for Active; 'I' for Inactive)
REMARK    1  A    between atoms: O1_2  and  C2_3 
REMARK    2  A    between atoms: C5_6  and  C6_7 
REMARK    3  A    between atoms: C8_11  and  C9_12 
REMARK    4  A    between atoms: N3_22  and  O2_23 
REMARK    5  A    between atoms: C17_25  and  C18_26 
REMARK    6  A    between atoms: N4_33  and  O3_34 
ROOT
HETATM    1  C6  UNL     1      -3.541  -9.284  26.396  1.00  0.00     0.143 A 
HETATM    2  N1  UNL     1      -4.578  -8.417  26.186  1.00  0.00    -0.349 N 
ATOM      3  H1  UNL     1      -5.238  -8.256  26.947  1.00  0.00     0.167 HD
HETATM    4  C7  UNL     1      -4.767  -7.779  25.043  1.00  0.00     0.107 A 
HETATM    5  C8  UNL     1      -3.875  -7.983  23.984  1.00  0.00     0.056 A 
HETATM    6  C17 UNL     1      -2.829  -8.845  24.170  1.00  0.00     0.090 A 
HETATM    7  N4  UNL     1      -2.716  -9.464  25.395  1.00  0.00    -0.206 N 
ENDROOT
BRANCH   5   8
HETATM    8  C9  UNL     1      -4.077  -7.276  22.728  1.00  0.00     0.148 A 
HETATM    9  N2  UNL     1      -3.112  -6.511  22.139  1.00  0.00    -0.338 N 
HETATM   10  C10 UNL     1      -3.613  -5.989  21.013  1.00  0.00     0.063 A 
ATOM     11  H2  UNL     1      -2.168  -6.362  22.497  1.00  0.00     0.167 HD
HETATM   12  C11 UNL     1      -3.117  -5.157  20.026  1.00  0.00     0.032 A 
HETATM   13  C16 UNL     1      -4.919  -6.411  20.853  1.00  0.00     0.091 A 
HETATM   14  C12 UNL     1      -3.846  -4.749  18.935  1.00  0.00     0.009 A 
HETATM   15  C13 UNL     1      -5.146  -5.194  18.814  1.00  0.00    -0.060 A 
HETATM   16  C14 UNL     1      -5.930  -4.753  17.638  1.00  0.00     0.048 C 
HETATM   17  C15 UNL     1      -5.668  -6.021  19.778  1.00  0.00     0.041 A 
HETATM   18  N3  UNL     1      -5.149  -7.207  21.950  1.00  0.00    -0.205 N 
BRANCH  18  19
HETATM   19  O2  UNL     1      -6.362  -7.791  22.119  1.00  0.00    -0.281 OA
ATOM     20  H2  UNL     1      -6.832  -8.368  21.530  1.00  0.00     0.245 HD
ENDBRANCH  18  19
ENDBRANCH   5   8
BRANCH   6  21
HETATM   21  C18 UNL     1      -1.834  -9.123  23.154  1.00  0.00    -0.006 A 
HETATM   22  C19 UNL     1      -1.941 -10.153  22.240  1.00  0.00     0.017 A 
HETATM   23  C20 UNL     1      -0.992 -10.370  21.262  1.00  0.00     0.043 A 
HETATM   24  C21 UNL     1       0.101  -9.536  21.188  1.00  0.00     0.116 A 
HETATM   25  F1  UNL     1       1.071  -9.695  20.249  1.00  0.00    -0.206 F 
HETATM   26  C22 UNL     1       0.231  -8.501  22.088  1.00  0.00     0.043 A 
HETATM   27  C23 UNL     1      -0.722  -8.297  23.058  1.00  0.00     0.017 A 
ENDBRANCH   6  21
BRANCH   7  28
HETATM   28  O3  UNL     1      -1.664 -10.304  25.519  1.00  0.00    -0.281 OA
ATOM     29  H3  UNL     1      -1.769 -11.145  25.947  1.00  0.00     0.245 HD
ENDBRANCH   7  28
BRANCH   1  30
HETATM   30  C5  UNL     1      -3.493  -9.896  27.719  1.00  0.00     0.012 A 
HETATM   31  C4  UNL     1      -2.353 -10.242  28.382  1.00  0.00     0.018 A 
HETATM   32  C3  UNL     1      -2.361 -10.833  29.669  1.00  0.00     0.039 A 
HETATM   33  C2  UNL     1      -3.564 -11.074  30.291  1.00  0.00     0.085 A 
HETATM   34  C25 UNL     1      -4.736 -10.736  29.651  1.00  0.00     0.045 A 
HETATM   35  C24 UNL     1      -4.685 -10.166  28.406  1.00  0.00     0.037 A 
HETATM   36 BR1  UNL     1      -6.385 -11.078  30.536  1.00  0.00    -0.048 Br
BRANCH  33  37
HETATM   37  O1  UNL     1      -3.567 -11.652  31.551  1.00  0.00    -0.355 OA
HETATM   38  C1  UNL     1      -3.116 -10.953  32.673  1.00  0.00     0.210 C 
ENDBRANCH  33  37
ENDBRANCH   1  30
TORSDOF 6
ENDMDL
MODEL 4
REMARK VINA RESULT: 0.910162162      1.242      1.676
REMARK  6 active torsions:
REMARK  status: ('A' for Active; 'I' for Inactive)
REMARK    1  A    between atoms: O1_2  and  C2_3 
REMARK    2  A    between atoms: C5_6  and  C6_7 
REMARK    3  A    between atoms: C8_11  and  C9_12 
REMARK    4  A    between atoms: N3_22  and  O2_23 
REMARK    5  A    between atoms: C17_25  and  C18_26 
REMARK    6  A    between atoms: N4_33  and  O3_34 
ROOT
HETATM    1  C6  UNL     1      -3.903  -8.705  25.330  1.00  0.00     0.143 A 
HETATM    2  N1  UNL     1      -5.085  -8.125  24.958  1.00  0.00    -0.349 N 
ATOM      3  H1  UNL     1      -5.831  -8.053  25.650  1.00  0.00     0.167 HD
HETATM    4  C7  UNL     1      -5.307  -7.655  23.741  1.00  0.00     0.107 A 
HETATM    5  C8  UNL     1      -4.299  -7.743  22.774  1.00  0.00     0.056 A 
HETATM    6  C17 UNL     1      -3.108  -8.318  23.124  1.00  0.00     0.090 A 
HETATM    7  N4  UNL     1      -2.972  -8.779  24.414  1.00  0.00    -0.206 N 
ENDROOT
BRANCH   5   8
HETATM    8  C9  UNL     1      -4.539  -7.219  21.437  1.00  0.00     0.148 A 
HETATM    9  N2  UNL     1      -5.095  -5.994  21.205  1.00  0.00    -0.338 N 
HETATM   10  C10 UNL     1      -5.194  -5.816  19.882  1.00  0.00     0.063 A 
ATOM     11  H2  UNL     1      -5.386  -5.326  21.920  1.00  0.00     0.167 HD
HETATM   12  C11 UNL     1      -5.664  -4.799  19.073  1.00  0.00     0.032 A 
HETATM   13  C16 UNL     1      -4.700  -6.932  19.232  1.00  0.00     0.091 A 
HETATM   14  C12 UNL     1      -5.661  -4.852  17.700  1.00  0.00     0.009 A 
HETATM   15  C13 UNL     1      -5.159  -5.983  17.091  1.00  0.00    -0.060 A 
HETATM   16  C14 UNL     1      -5.156  -6.039  15.612  1.00  0.00     0.048 C 
HETATM   17  C15 UNL     1      -4.685  -7.013  17.867  1.00  0.00     0.041 A 
HETATM   18  N3  UNL     1      -4.309  -7.767  20.251  1.00  0.00    -0.205 N 
BRANCH  18  19
HETATM   19  O2  UNL     1      -3.776  -8.981  19.963  1.00  0.00    -0.281 OA
ATOM     20  H2  UNL     1      -2.927  -9.185  19.591  1.00  0.00     0.245 HD
ENDBRANCH  18  19
ENDBRANCH   5   8
BRANCH   6  21
HETATM   21  C18 UNL     1      -1.987  -8.449  22.215  1.00  0.00    -0.006 A 
HETATM   22  C19 UNL     1      -1.256  -7.376  21.742  1.00  0.00     0.017 A 
HETATM   23  C20 UNL     1      -0.172  -7.536  20.905  1.00  0.00     0.043 A 
HETATM   24  C21 UNL     1       0.200  -8.805  20.521  1.00  0.00     0.116 A 
HETATM   25  F1  UNL     1       1.258  -9.032  19.698  1.00  0.00    -0.206 F 
HETATM   26  C22 UNL     1      -0.513  -9.892  20.978  1.00  0.00     0.043 A 
HETATM   27  C23 UNL     1      -1.592  -9.717  21.813  1.00  0.00     0.017 A 
ENDBRANCH   6  21
BRANCH   7  28
HETATM   28  O3  UNL     1      -1.774  -9.338  24.700  1.00  0.00    -0.281 OA
ATOM     29  H3  UNL     1      -0.977  -8.826  24.630  1.00  0.00     0.245 HD
ENDBRANCH   7  28
BRANCH   1  30
HETATM   30  C5  UNL     1      -3.841  -9.166  26.713  1.00  0.00     0.012 A 
HETATM   31  C4  UNL     1      -4.582  -8.662  27.741  1.00  0.00     0.018 A 
HETATM   32  C3  UNL     1      -4.486  -9.147  29.068  1.00  0.00     0.039 A 
HETATM   33  C2  UNL     1      -3.612 -10.172  29.349  1.00  0.00     0.085 A 
HETATM   34  C25 UNL     1      -2.848 -10.705  28.333  1.00  0.00     0.045 A 
HETATM   35  C24 UNL     1      -2.971 -10.207  27.063  1.00  0.00     0.037 A 
HETATM   36 BR1  UNL     1      -1.649 -12.123  28.750  1.00  0.00    -0.048 Br
BRANCH  33  37
HETATM   37  O1  UNL     1      -3.522 -10.643  30.649  1.00  0.00    -0.355 OA
HETATM   38  C1  UNL     1      -4.267 -11.745  31.076  1.00  0.00     0.210 C 
ENDBRANCH  33  37
ENDBRANCH   1  30
TORSDOF 6
ENDMDL
MODEL 5
REMARK VINA RESULT: 1.039158393      1.567      1.901
REMARK  6 active torsions:
REMARK  status: ('A' for Active; 'I' for Inactive)
REMARK    1  A    between atoms: O1_2  and  C2_3 
REMARK    2  A    between atoms: C5_6  and  C6_7 
REMARK    3  A    between atoms: C8_11  and  C9_12 
REMARK    4  A    between atoms: N3_22  and  O2_23 
REMARK    5  A    between atoms: C17_25  and  C18_26 
REMARK    6  A    between atoms: N4_33  and  O3_34 
ROOT
HETATM    1  C6  UNL     1      -3.639  -9.109  27.058  1.00  0.00     0.143 A 
HETATM    2  N1  UNL     1      -4.447  -8.028  26.838  1.00  0.00    -0.349 N 
ATOM      3  H1  UNL     1      -4.971  -7.644  27.624  1.00  0.00     0.167 HD
HETATM    4  C7  UNL     1      -4.582  -7.458  25.652  1.00  0.00     0.107 A 
HETATM    5  C8  UNL     1      -3.874  -7.967  24.557  1.00  0.00     0.056 A 
HETATM    6  C17 UNL     1      -3.059  -9.047  24.754  1.00  0.00     0.090 A 
HETATM    7  N4  UNL     1      -2.984  -9.573  26.024  1.00  0.00    -0.206 N 
ENDROOT
BRANCH   5   8
HETATM    8  C9  UNL     1      -4.017  -7.335  23.253  1.00  0.00     0.148 A 
HETATM    9  N2  UNL     1      -3.009  -6.644  22.645  1.00  0.00    -0.338 N 
HETATM   10  C10 UNL     1      -3.460  -6.179  21.474  1.00  0.00     0.063 A 
ATOM     11  H2  UNL     1      -2.070  -6.504  23.021  1.00  0.00     0.167 HD
HETATM   12  C11 UNL     1      -2.908  -5.430  20.451  1.00  0.00     0.032 A 
HETATM   13  C16 UNL     1      -4.775  -6.564  21.304  1.00  0.00     0.091 A 
HETATM   14  C12 UNL     1      -3.592  -5.068  19.315  1.00  0.00     0.009 A 
HETATM   15  C13 UNL     1      -4.903  -5.474  19.185  1.00  0.00    -0.060 A 
HETATM   16  C14 UNL     1      -5.638  -5.083  17.962  1.00  0.00     0.048 C 
HETATM   17  C15 UNL     1      -5.481  -6.218  20.184  1.00  0.00     0.041 A 
HETATM   18  N3  UNL     1      -5.065  -7.279  22.441  1.00  0.00    -0.205 N 
BRANCH  18  19
HETATM   19  O2  UNL     1      -6.302  -7.809  22.611  1.00  0.00    -0.281 OA
ATOM     20  H2  UNL     1      -6.813  -7.884  23.408  1.00  0.00     0.245 HD
ENDBRANCH  18  19
ENDBRANCH   5   8
BRANCH   6  21
HETATM   21  C18 UNL     1      -2.265  -9.650  23.702  1.00  0.00    -0.006 A 
HETATM   22  C19 UNL     1      -0.904  -9.457  23.565  1.00  0.00     0.017 A 
HETATM   23  C20 UNL     1      -0.170 -10.073  22.573  1.00  0.00     0.043 A 
HETATM   24  C21 UNL     1      -0.808 -10.909  21.684  1.00  0.00     0.116 A 
HETATM   25  F1  UNL     1      -0.143 -11.546  20.684  1.00  0.00    -0.206 F 
HETATM   26  C22 UNL     1      -2.165 -11.118  21.799  1.00  0.00     0.043 A 
HETATM   27  C23 UNL     1      -2.885 -10.497  22.793  1.00  0.00     0.017 A 
ENDBRANCH   6  21
BRANCH   7  28
HETATM   28  O3  UNL     1      -2.163 -10.640  26.156  1.00  0.00    -0.281 OA
ATOM     29  H3  UNL     1      -1.851 -11.103  25.388  1.00  0.00     0.245 HD
ENDBRANCH   7  28
BRANCH   1  30
HETATM   30  C5  UNL     1      -3.616  -9.604  28.430  1.00  0.00     0.012 A 
HETATM   31  C4  UNL     1      -3.050  -8.956  29.488  1.00  0.00     0.018 A 
HETATM   32  C3  UNL     1      -3.057  -9.479  30.804  1.00  0.00     0.039 A 
HETATM   33  C2  UNL     1      -3.657 -10.693  31.042  1.00  0.00     0.085 A 
HETATM   34  C25 UNL     1      -4.240 -11.375  29.997  1.00  0.00     0.045 A 
HETATM   35  C24 UNL     1      -4.212 -10.835  28.738  1.00  0.00     0.037 A 
HETATM   36 BR1  UNL     1      -5.065 -13.052  30.356  1.00  0.00    -0.048 Br
BRANCH  33  37
HETATM   37  O1  UNL     1      -3.661 -11.201  32.332  1.00  0.00    -0.355 OA
HETATM   38  C1  UNL     1      -2.897 -10.617  33.346  1.00  0.00     0.210 C 
ENDBRANCH  33  37
ENDBRANCH   1  30
TORSDOF 6
ENDMDL
