MODEL 1
REMARK VINA RESULT: -6.002041909      0.000      0.000
REMARK  4 active torsions:
REMARK  status: ('A' for Active; 'I' for Inactive)
REMARK    1  A    between atoms: C2_2  and  N1_3 
REMARK    2  A    between atoms: C2_2  and  C3_6 
REMARK    3  A    between atoms: C6_10  and  N2_11 
REMARK    4  A    between atoms: N2_11  and  C7_13 
ROOT
HETATM    1  N1  UNL     1      28.821  13.121  -9.670  1.00  0.00    -0.287 NA
HETATM    2  O1  UNL     1      27.598  13.277  -9.671  1.00  0.00    -0.218 OA
ATOM      3  H1  UNL     1      26.659  13.410  -9.621  1.00  0.00     0.261 HD
ENDROOT
BRANCH   1   4
HETATM    4  C2  UNL     1      30.028  12.949  -9.735  1.00  0.00     0.132 C 
HETATM    5  C1  UNL     1      30.581  11.759 -10.425  1.00  0.00     0.089 C 
BRANCH   4   6
HETATM    6  C3  UNL     1      30.928  13.933  -9.074  1.00  0.00     0.070 A 
HETATM    7  S1  UNL     1      30.945  15.632  -9.495  1.00  0.00    -0.097 SA
HETATM    8  C4  UNL     1      32.083  16.182  -8.377  1.00  0.00     0.053 A 
HETATM    9  C5  UNL     1      32.425  15.056  -7.709  1.00  0.00     0.038 A 
HETATM   10  C6  UNL     1      31.825  13.876  -8.070  1.00  0.00     0.049 A 
BRANCH  10  11
HETATM   11  N2  UNL     1      32.198  12.615  -7.441  1.00  0.00    -0.383 N 
ATOM     12  H2  UNL     1      32.402  11.796  -8.015  1.00  0.00     0.160 HD
BRANCH  11  13
HETATM   13  C7  UNL     1      32.276  12.530  -5.996  1.00  0.00     0.089 C 
HETATM   14  C8  UNL     1      31.134  11.725  -5.437  1.00  0.00     0.026 C 
HETATM   15  C9  UNL     1      31.762  10.352  -5.276  1.00  0.00     0.003 C 
HETATM   16  C10 UNL     1      33.130  10.670  -4.750  1.00  0.00     0.011 C 
HETATM   17  C11 UNL     1      33.533  11.923  -5.496  1.00  0.00    -0.027 C 
HETATM   18  C12 UNL     1      34.555  11.594  -6.544  1.00  0.00     0.017 C 
HETATM   19  C13 UNL     1      34.187  12.913  -4.535  1.00  0.00     0.017 C 
ENDBRANCH  11  13
ENDBRANCH  10  11
ENDBRANCH   4   6
ENDBRANCH   1   4
TORSDOF 4
ENDMDL
MODEL 2
REMARK VINA RESULT: -5.811462230      5.605      7.879
REMARK  4 active torsions:
REMARK  status: ('A' for Active; 'I' for Inactive)
REMARK    1  A    between atoms: C2_2  and  N1_3 
REMARK    2  A    between atoms: C2_2  and  C3_6 
REMARK    3  A    between atoms: C6_10  and  N2_11 
REMARK    4  A    between atoms: N2_11  and  C7_13 
ROOT
HETATM    1  N1  UNL     1      25.008   8.835  -9.686  1.00  0.00    -0.287 NA
HETATM    2  O1  UNL     1      25.015   9.485  -8.638  1.00  0.00    -0.218 OA
ATOM      3  H1  UNL     1      25.072   9.986  -7.833  1.00  0.00     0.261 HD
ENDROOT
BRANCH   1   4
HETATM    4  C2  UNL     1      24.935   8.191 -10.720  1.00  0.00     0.132 C 
HETATM    5  C1  UNL     1      24.433   6.795 -10.699  1.00  0.00     0.089 C 
BRANCH   4   6
HETATM    6  C3  UNL     1      25.395   8.816 -11.989  1.00  0.00     0.070 A 
HETATM    7  S1  UNL     1      24.902   8.234 -13.564  1.00  0.00    -0.097 SA
HETATM    8  C4  UNL     1      25.679   9.373 -14.536  1.00  0.00     0.053 A 
HETATM    9  C5  UNL     1      26.298  10.171 -13.636  1.00  0.00     0.038 A 
HETATM   10  C6  UNL     1      26.154   9.885 -12.302  1.00  0.00     0.049 A 
BRANCH  10  11
HETATM   11  N2  UNL     1      26.850  10.660 -11.282  1.00  0.00    -0.383 N 
ATOM     12  H2  UNL     1      26.739  10.426 -10.295  1.00  0.00     0.160 HD
BRANCH  11  13
HETATM   13  C7  UNL     1      27.700  11.765 -11.678  1.00  0.00     0.089 C 
HETATM   14  C8  UNL     1      27.390  13.002 -10.880  1.00  0.00     0.026 C 
HETATM   15  C9  UNL     1      28.439  12.947  -9.785  1.00  0.00     0.003 C 
HETATM   16  C10 UNL     1      29.666  12.499 -10.521  1.00  0.00     0.011 C 
HETATM   17  C11 UNL     1      29.151  11.493 -11.526  1.00  0.00    -0.027 C 
HETATM   18  C12 UNL     1      29.506  10.101 -11.095  1.00  0.00     0.017 C 
HETATM   19  C13 UNL     1      29.818  11.721 -12.881  1.00  0.00     0.017 C 
ENDBRANCH  11  13
ENDBRANCH  10  11
ENDBRANCH   4   6
ENDBRANCH   1   4
TORSDOF 4
ENDMDL
MODEL 3
REMARK VINA RESULT: -5.676358828      2.462      5.512
REMARK  4 active torsions:
REMARK  status: ('A' for Active; 'I' for Inactive)
REMARK    1  A    between atoms: C2_2  and  N1_3 
REMARK    2  A    between atoms: C2_2  and  C3_6 
REMARK    3  A    between atoms: C6_10  and  N2_11 
REMARK    4  A    between atoms: N2_11  and  C7_13 
ROOT
HETATM    1  N1  UNL     1      31.231  12.851  -6.752  1.00  0.00    -0.287 NA
HETATM    2  O1  UNL     1      30.617  12.243  -5.872  1.00  0.00    -0.218 OA
ATOM      3  H1  UNL     1      30.100  11.790  -5.217  1.00  0.00     0.261 HD
ENDROOT
BRANCH   1   4
HETATM    4  C2  UNL     1      31.896  13.434  -7.593  1.00  0.00     0.132 C 
HETATM    5  C1  UNL     1      33.335  13.119  -7.762  1.00  0.00     0.089 C 
BRANCH   4   6
HETATM    6  C3  UNL     1      31.246  14.491  -8.415  1.00  0.00     0.070 A 
HETATM    7  S1  UNL     1      31.798  16.151  -8.428  1.00  0.00    -0.097 SA
HETATM    8  C4  UNL     1      30.730  16.788  -9.569  1.00  0.00     0.053 A 
HETATM    9  C5  UNL     1      29.976  15.718  -9.912  1.00  0.00     0.038 A 
HETATM   10  C6  UNL     1      30.240  14.514  -9.312  1.00  0.00     0.049 A 
BRANCH  10  11
HETATM   11  N2  UNL     1      29.423  13.338  -9.582  1.00  0.00    -0.383 N 
ATOM     12  H2  UNL     1      28.934  12.867  -8.820  1.00  0.00     0.160 HD
BRANCH  11  13
HETATM   13  C7  UNL     1      29.309  12.841 -10.939  1.00  0.00     0.089 C 
HETATM   14  C8  UNL     1      30.384  11.831 -11.239  1.00  0.00     0.026 C 
HETATM   15  C9  UNL     1      29.665  10.517 -10.991  1.00  0.00     0.003 C 
HETATM   16  C10 UNL     1      28.310  10.761 -11.585  1.00  0.00     0.011 C 
HETATM   17  C11 UNL     1      28.005  12.201 -11.238  1.00  0.00    -0.027 C 
HETATM   18  C12 UNL     1      26.986  12.263 -10.139  1.00  0.00     0.017 C 
HETATM   19  C13 UNL     1      27.397  12.910 -12.446  1.00  0.00     0.017 C 
ENDBRANCH  11  13
ENDBRANCH  10  11
ENDBRANCH   4   6
ENDBRANCH   1   4
TORSDOF 4
ENDMDL
MODEL 4
REMARK VINA RESULT: -5.547882213      2.183      5.521
REMARK  4 active torsions:
REMARK  status: ('A' for Active; 'I' for Inactive)
REMARK    1  A    between atoms: C2_2  and  N1_3 
REMARK    2  A    between atoms: C2_2  and  C3_6 
REMARK    3  A    between atoms: C6_10  and  N2_11 
REMARK    4  A    between atoms: N2_11  and  C7_13 
ROOT
HETATM    1  N1  UNL     1      30.598  16.138  -9.681  1.00  0.00    -0.287 NA
HETATM    2  O1  UNL     1      29.659  16.392 -10.437  1.00  0.00    -0.218 OA
ATOM      3  H1  UNL     1      28.969  16.595 -11.058  1.00  0.00     0.261 HD
ENDROOT
BRANCH   1   4
HETATM    4  C2  UNL     1      31.484  15.877  -8.883  1.00  0.00     0.132 C 
HETATM    5  C1  UNL     1      32.504  16.896  -8.535  1.00  0.00     0.089 C 
BRANCH   4   6
HETATM    6  C3  UNL     1      31.545  14.510  -8.300  1.00  0.00     0.070 A 
HETATM    7  S1  UNL     1      32.812  14.002  -7.206  1.00  0.00    -0.097 SA
HETATM    8  C4  UNL     1      32.279  12.437  -6.870  1.00  0.00     0.053 A 
HETATM    9  C5  UNL     1      31.145  12.338  -7.602  1.00  0.00     0.038 A 
HETATM   10  C6  UNL     1      30.756  13.418  -8.353  1.00  0.00     0.049 A 
BRANCH  10  11
HETATM   11  N2  UNL     1      29.585  13.355  -9.219  1.00  0.00    -0.383 N 
ATOM     12  H2  UNL     1      28.654  13.518  -8.836  1.00  0.00     0.160 HD
BRANCH  11  13
HETATM   13  C7  UNL     1      29.752  13.061 -10.628  1.00  0.00     0.089 C 
HETATM   14  C8  UNL     1      30.650  11.870 -10.832  1.00  0.00     0.026 C 
HETATM   15  C9  UNL     1      29.648  10.741 -10.997  1.00  0.00     0.003 C 
HETATM   16  C10 UNL     1      28.583  11.363 -11.849  1.00  0.00     0.011 C 
HETATM   17  C11 UNL     1      28.481  12.784 -11.341  1.00  0.00    -0.027 C 
HETATM   18  C12 UNL     1      27.233  12.954 -10.526  1.00  0.00     0.017 C 
HETATM   19  C13 UNL     1      28.377  13.752 -12.517  1.00  0.00     0.017 C 
ENDBRANCH  11  13
ENDBRANCH  10  11
ENDBRANCH   4   6
ENDBRANCH   1   4
TORSDOF 4
ENDMDL
MODEL 5
REMARK VINA RESULT: -5.495432445      2.719      5.615
REMARK  4 active torsions:
REMARK  status: ('A' for Active; 'I' for Inactive)
REMARK    1  A    between atoms: C2_2  and  N1_3 
REMARK    2  A    between atoms: C2_2  and  C3_6 
REMARK    3  A    between atoms: C6_10  and  N2_11 
REMARK    4  A    between atoms: N2_11  and  C7_13 
ROOT
HETATM    1  N1  UNL     1      33.201  13.599  -6.990  1.00  0.00    -0.287 NA
HETATM    2  O1  UNL     1      34.303  13.738  -6.453  1.00  0.00    -0.218 OA
ATOM      3  H1  UNL     1      35.170  13.859  -6.086  1.00  0.00     0.261 HD
ENDROOT
BRANCH   1   4
HETATM    4  C2  UNL     1      32.087  13.443  -7.463  1.00  0.00     0.132 C 
HETATM    5  C1  UNL     1      31.358  12.168  -7.258  1.00  0.00     0.089 C 
BRANCH   4   6
HETATM    6  C3  UNL     1      31.494  14.537  -8.279  1.00  0.00     0.070 A 
HETATM    7  S1  UNL     1      32.113  16.173  -8.261  1.00  0.00    -0.097 SA
HETATM    8  C4  UNL     1      31.089  16.869  -9.408  1.00  0.00     0.053 A 
HETATM    9  C5  UNL     1      30.298  15.836  -9.777  1.00  0.00     0.038 A 
HETATM   10  C6  UNL     1      30.503  14.613  -9.190  1.00  0.00     0.049 A 
BRANCH  10  11
HETATM   11  N2  UNL     1      29.642  13.475  -9.488  1.00  0.00    -0.383 N 
ATOM     12  H2  UNL     1      29.125  13.013  -8.740  1.00  0.00     0.160 HD
BRANCH  11  13
HETATM   13  C7  UNL     1      29.524  13.005 -10.854  1.00  0.00     0.089 C 
HETATM   14  C8  UNL     1      30.565  11.961 -11.159  1.00  0.00     0.026 C 
HETATM   15  C9  UNL     1      29.796  10.671 -10.940  1.00  0.00     0.003 C 
HETATM   16  C10 UNL     1      28.457  10.974 -11.544  1.00  0.00     0.011 C 
HETATM   17  C11 UNL     1      28.201  12.418 -11.177  1.00  0.00    -0.027 C 
HETATM   18  C12 UNL     1      27.174  12.501 -10.087  1.00  0.00     0.017 C 
HETATM   19  C13 UNL     1      27.633  13.169 -12.379  1.00  0.00     0.017 C 
ENDBRANCH  11  13
ENDBRANCH  10  11
ENDBRANCH   4   6
ENDBRANCH   1   4
TORSDOF 4
ENDMDL
