MODEL 1
REMARK VINA RESULT: -6.534129003      0.000      0.000
REMARK  5 active torsions:
REMARK  status: ('A' for Active; 'I' for Inactive)
REMARK    1  A    between atoms: C4_4  and  S1_5 
REMARK    2  A    between atoms: S1_5  and  S2_6 
REMARK    3  A    between atoms: S2_6  and  C5_7 
REMARK    4  A    between atoms: C5_7  and  N2_11 
REMARK    5  A    between atoms: N2_11  and  C6_13 
ROOT
HETATM    1  C5  UNL     1      34.845  12.195  -5.241  1.00  0.00     0.145 C 
HETATM    2  N1  UNL     1      35.690  12.651  -4.379  1.00  0.00    -0.379 N 
ATOM      3  H11 UNL     1      36.229  11.956  -3.862  1.00  0.00     0.158 HD
ATOM      4  H12 UNL     1      35.803  13.653  -4.229  1.00  0.00     0.158 HD
ENDROOT
BRANCH   1   5
HETATM    5  S2  UNL     1      33.897  13.416  -6.149  1.00  0.00    -0.017 SA
BRANCH   5   6
HETATM    6  S1  UNL     1      32.226  12.588  -7.101  1.00  0.00    -0.049 SA
BRANCH   6   7
HETATM    7  C4  UNL     1      31.362  13.829  -8.109  1.00  0.00     0.019 A 
HETATM    8  C3  UNL     1      31.752  15.122  -8.128  1.00  0.00     0.034 A 
HETATM    9  C2  UNL     1      31.027  15.971  -8.925  1.00  0.00    -0.020 A 
HETATM   10  C1  UNL     1      31.235  17.442  -9.134  1.00  0.00     0.056 C 
HETATM   11  S3  UNL     1      29.848  14.955  -9.608  1.00  0.00    -0.105 SA
HETATM   12  C9  UNL     1      30.292  13.485  -8.877  1.00  0.00     0.069 A 
ENDBRANCH   6   7
ENDBRANCH   5   6
ENDBRANCH   1   5
BRANCH   1  13
HETATM   13  N2  UNL     1      34.688  10.820  -5.447  1.00  0.00    -0.366 N 
ATOM     14  H2  UNL     1      35.155  10.359  -6.228  1.00  0.00     0.162 HD
BRANCH  13  15
HETATM   15  C6  UNL     1      33.857  10.060  -4.541  1.00  0.00     0.083 A 
HETATM   16  C7  UNL     1      32.399  10.141  -4.790  1.00  0.00     0.027 A 
HETATM   17  C8  UNL     1      33.007  10.832  -3.581  1.00  0.00     0.027 A 
ENDBRANCH  13  15
ENDBRANCH   1  13
TORSDOF 5
ENDMDL
MODEL 2
REMARK VINA RESULT: -6.362934407      3.670      6.824
REMARK  5 active torsions:
REMARK  status: ('A' for Active; 'I' for Inactive)
REMARK    1  A    between atoms: C4_4  and  S1_5 
REMARK    2  A    between atoms: S1_5  and  S2_6 
REMARK    3  A    between atoms: S2_6  and  C5_7 
REMARK    4  A    between atoms: C5_7  and  N2_11 
REMARK    5  A    between atoms: N2_11  and  C6_13 
ROOT
HETATM    1  C5  UNL     1      30.198  15.734  -9.277  1.00  0.00     0.145 C 
HETATM    2  N1  UNL     1      30.319  16.955  -9.679  1.00  0.00    -0.379 N 
ATOM      3  H11 UNL     1      29.503  17.364 -10.135  1.00  0.00     0.158 HD
ATOM      4  H12 UNL     1      31.187  17.472  -9.544  1.00  0.00     0.158 HD
ENDROOT
BRANCH   1   5
HETATM    5  S2  UNL     1      31.631  15.014  -8.477  1.00  0.00    -0.017 SA
BRANCH   5   6
HETATM    6  S1  UNL     1      31.255  13.091  -7.740  1.00  0.00    -0.049 SA
BRANCH   6   7
HETATM    7  C4  UNL     1      32.452  12.635  -6.450  1.00  0.00     0.019 A 
HETATM    8  C3  UNL     1      32.178  11.680  -5.536  1.00  0.00     0.034 A 
HETATM    9  C2  UNL     1      33.156  11.418  -4.610  1.00  0.00    -0.020 A 
HETATM   10  C1  UNL     1      33.122  10.419  -3.491  1.00  0.00     0.056 C 
HETATM   11  S3  UNL     1      34.400  12.494  -5.038  1.00  0.00    -0.105 SA
HETATM   12  C9  UNL     1      33.664  13.250  -6.373  1.00  0.00     0.069 A 
ENDBRANCH   6   7
ENDBRANCH   5   6
ENDBRANCH   1   5
BRANCH   1  13
HETATM   13  N2  UNL     1      29.007  15.024  -9.462  1.00  0.00    -0.366 N 
ATOM     14  H2  UNL     1      28.214  15.175  -8.839  1.00  0.00     0.162 HD
BRANCH  13  15
HETATM   15  C6  UNL     1      28.912  14.073 -10.548  1.00  0.00     0.083 A 
HETATM   16  C7  UNL     1      27.566  13.921 -11.148  1.00  0.00     0.027 A 
HETATM   17  C8  UNL     1      28.150  12.811 -10.288  1.00  0.00     0.027 A 
ENDBRANCH  13  15
ENDBRANCH   1  13
TORSDOF 5
ENDMDL
MODEL 3
REMARK VINA RESULT: -6.279187115      1.131      2.172
REMARK  5 active torsions:
REMARK  status: ('A' for Active; 'I' for Inactive)
REMARK    1  A    between atoms: C4_4  and  S1_5 
REMARK    2  A    between atoms: S1_5  and  S2_6 
REMARK    3  A    between atoms: S2_6  and  C5_7 
REMARK    4  A    between atoms: C5_7  and  N2_11 
REMARK    5  A    between atoms: N2_11  and  C6_13 
ROOT
HETATM    1  C5  UNL     1      33.045  10.970  -4.725  1.00  0.00     0.145 C 
HETATM    2  N1  UNL     1      32.557  10.416  -3.667  1.00  0.00    -0.379 N 
ATOM      3  H11 UNL     1      33.229   9.989  -3.029  1.00  0.00     0.158 HD
ATOM      4  H12 UNL     1      31.553  10.410  -3.488  1.00  0.00     0.158 HD
ENDROOT
BRANCH   1   5
HETATM    5  S2  UNL     1      31.865  11.719  -5.847  1.00  0.00    -0.017 SA
BRANCH   5   6
HETATM    6  S1  UNL     1      32.791  12.861  -7.339  1.00  0.00    -0.049 SA
BRANCH   6   7
HETATM    7  C4  UNL     1      31.591  13.930  -8.188  1.00  0.00     0.019 A 
HETATM    8  C3  UNL     1      31.810  15.254  -8.342  1.00  0.00     0.034 A 
HETATM    9  C2  UNL     1      30.837  15.964  -8.999  1.00  0.00    -0.020 A 
HETATM   10  C1  UNL     1      30.817  17.433  -9.308  1.00  0.00     0.056 C 
HETATM   11  S3  UNL     1      29.673  14.783  -9.371  1.00  0.00    -0.105 SA
HETATM   12  C9  UNL     1      30.435  13.421  -8.692  1.00  0.00     0.069 A 
ENDBRANCH   6   7
ENDBRANCH   5   6
ENDBRANCH   1   5
BRANCH   1  13
HETATM   13  N2  UNL     1      34.422  10.978  -4.971  1.00  0.00    -0.366 N 
ATOM     14  H2  UNL     1      34.835  10.307  -5.617  1.00  0.00     0.162 HD
BRANCH  13  15
HETATM   15  C6  UNL     1      35.254  11.951  -4.297  1.00  0.00     0.083 A 
HETATM   16  C7  UNL     1      34.751  13.344  -4.315  1.00  0.00     0.027 A 
HETATM   17  C8  UNL     1      35.960  12.957  -5.151  1.00  0.00     0.027 A 
ENDBRANCH  13  15
ENDBRANCH   1  13
TORSDOF 5
ENDMDL
MODEL 4
REMARK VINA RESULT: -6.205236031      0.889      1.554
REMARK  5 active torsions:
REMARK  status: ('A' for Active; 'I' for Inactive)
REMARK    1  A    between atoms: C4_4  and  S1_5 
REMARK    2  A    between atoms: S1_5  and  S2_6 
REMARK    3  A    between atoms: S2_6  and  C5_7 
REMARK    4  A    between atoms: C5_7  and  N2_11 
REMARK    5  A    between atoms: N2_11  and  C6_13 
ROOT
HETATM    1  C5  UNL     1      34.932  12.211  -5.204  1.00  0.00     0.145 C 
HETATM    2  N1  UNL     1      35.835  12.641  -4.389  1.00  0.00    -0.379 N 
ATOM      3  H11 UNL     1      36.394  11.931  -3.915  1.00  0.00     0.158 HD
ATOM      4  H12 UNL     1      35.973  13.640  -4.233  1.00  0.00     0.158 HD
ENDROOT
BRANCH   1   5
HETATM    5  S2  UNL     1      33.951  13.458  -6.036  1.00  0.00    -0.017 SA
BRANCH   5   6
HETATM    6  S1  UNL     1      32.270  12.651  -6.989  1.00  0.00    -0.049 SA
BRANCH   6   7
HETATM    7  C4  UNL     1      31.474  13.878  -8.069  1.00  0.00     0.019 A 
HETATM    8  C3  UNL     1      30.426  13.554  -8.856  1.00  0.00     0.034 A 
HETATM    9  C2  UNL     1      29.905  14.559  -9.629  1.00  0.00    -0.020 A 
HETATM   10  C1  UNL     1      28.752  14.483 -10.587  1.00  0.00     0.056 C 
HETATM   11  S3  UNL     1      30.876  15.898  -9.239  1.00  0.00    -0.105 SA
HETATM   12  C9  UNL     1      31.918  15.164  -8.111  1.00  0.00     0.069 A 
ENDBRANCH   6   7
ENDBRANCH   5   6
ENDBRANCH   1   5
BRANCH   1  13
HETATM   13  N2  UNL     1      34.742  10.841  -5.418  1.00  0.00    -0.366 N 
ATOM     14  H2  UNL     1      35.164  10.382  -6.226  1.00  0.00     0.162 HD
BRANCH  13  15
HETATM   15  C6  UNL     1      33.941  10.083  -4.482  1.00  0.00     0.083 A 
HETATM   16  C7  UNL     1      32.478  10.130  -4.709  1.00  0.00     0.027 A 
HETATM   17  C8  UNL     1      33.092  10.859  -3.525  1.00  0.00     0.027 A 
ENDBRANCH  13  15
ENDBRANCH   1  13
TORSDOF 5
ENDMDL
MODEL 5
REMARK VINA RESULT: -6.164862833      2.353      3.495
REMARK  5 active torsions:
REMARK  status: ('A' for Active; 'I' for Inactive)
REMARK    1  A    between atoms: C4_4  and  S1_5 
REMARK    2  A    between atoms: S1_5  and  S2_6 
REMARK    3  A    between atoms: S2_6  and  C5_7 
REMARK    4  A    between atoms: C5_7  and  N2_11 
REMARK    5  A    between atoms: N2_11  and  C6_13 
ROOT
HETATM    1  C5  UNL     1      32.934  12.973  -6.731  1.00  0.00     0.145 C 
HETATM    2  N1  UNL     1      33.651  13.986  -7.083  1.00  0.00    -0.379 N 
ATOM      3  H11 UNL     1      34.609  14.007  -6.733  1.00  0.00     0.158 HD
ATOM      4  H12 UNL     1      33.270  14.721  -7.679  1.00  0.00     0.158 HD
ENDROOT
BRANCH   1   5
HETATM    5  S2  UNL     1      31.251  12.936  -7.346  1.00  0.00    -0.017 SA
BRANCH   5   6
HETATM    6  S1  UNL     1      30.895  14.404  -8.796  1.00  0.00    -0.049 SA
BRANCH   6   7
HETATM    7  C4  UNL     1      29.559  13.904  -9.923  1.00  0.00     0.019 A 
HETATM    8  C3  UNL     1      29.046  12.655  -9.902  1.00  0.00     0.034 A 
HETATM    9  C2  UNL     1      28.041  12.389 -10.796  1.00  0.00    -0.020 A 
HETATM   10  C1  UNL     1      27.296  11.101 -10.992  1.00  0.00     0.056 C 
HETATM   11  S3  UNL     1      27.849  13.864 -11.620  1.00  0.00    -0.105 SA
HETATM   12  C9  UNL     1      29.037  14.783 -10.822  1.00  0.00     0.069 A 
ENDBRANCH   6   7
ENDBRANCH   5   6
ENDBRANCH   1   5
BRANCH   1  13
HETATM   13  N2  UNL     1      33.456  11.964  -5.914  1.00  0.00    -0.366 N 
ATOM     14  H2  UNL     1      34.300  11.463  -6.188  1.00  0.00     0.162 HD
BRANCH  13  15
HETATM   15  C6  UNL     1      32.784  11.640  -4.674  1.00  0.00     0.083 A 
HETATM   16  C7  UNL     1      33.355  10.503  -3.916  1.00  0.00     0.027 A 
HETATM   17  C8  UNL     1      32.019  10.354  -4.627  1.00  0.00     0.027 A 
ENDBRANCH  13  15
ENDBRANCH   1  13
TORSDOF 5
ENDMDL
