MODEL 1
REMARK VINA RESULT: -8.439545871      0.000      0.000
REMARK  3 active torsions:
REMARK  status: ('A' for Active; 'I' for Inactive)
REMARK    1  A    between atoms: C3_4  and  C4_5 
REMARK    2  A    between atoms: C5_8  and  N2_9 
REMARK    3  A    between atoms: N2_9  and  C6_11 
ROOT
HETATM    1  C4  UNL     1      31.205  14.128  -8.923  1.00  0.00     0.153 A 
HETATM    2  N1  UNL     1      31.884  13.283  -8.131  1.00  0.00    -0.173 N 
ATOM      3  H1  UNL     1      31.717  12.278  -8.075  1.00  0.00     0.186 HD
HETATM    4  C5  UNL     1      32.813  13.944  -7.420  1.00  0.00     0.694 A 
HETATM    5  N3  UNL     1      32.707  15.234  -7.783  1.00  0.00    -0.131 N 
ATOM      6  H3  UNL     1      33.274  16.003  -7.425  1.00  0.00     0.205 HD
HETATM    7  N4  UNL     1      31.727  15.341  -8.698  1.00  0.00    -0.270 N 
ATOM      8  H4  UNL     1      31.429  16.207  -9.147  1.00  0.00     0.189 HD
ENDROOT
BRANCH   4   9
HETATM    9  N2  UNL     1      33.736  13.380  -6.461  1.00  0.00    -0.220 N 
ATOM     10  H2  UNL     1      34.503  13.945  -6.097  1.00  0.00     0.178 HD
BRANCH   9  11
HETATM   11  C6  UNL     1      33.573  12.012  -6.018  1.00  0.00     0.099 C 
HETATM   12  C7  UNL     1      34.845  11.536  -5.350  1.00  0.00     0.026 C 
HETATM   13  C8  UNL     1      34.580  11.403  -3.862  1.00  0.00     0.002 C 
HETATM   14  C9  UNL     1      33.588  10.293  -3.657  1.00  0.00     0.000 C 
HETATM   15  C10 UNL     1      32.300  10.599  -4.391  1.00  0.00     0.002 C 
HETATM   16  C11 UNL     1      32.380  11.923  -5.116  1.00  0.00     0.026 C 
ENDBRANCH   9  11
ENDBRANCH   4   9
BRANCH   1  17
HETATM   17  C3  UNL     1      30.123  13.796  -9.843  1.00  0.00     0.050 A 
HETATM   18  S1  UNL     1      29.857  12.351 -10.699  1.00  0.00    -0.098 SA
HETATM   19  C2  UNL     1      28.421  12.774 -11.521  1.00  0.00     0.050 A 
HETATM   20  C1  UNL     1      28.192  14.056 -11.091  1.00  0.00     0.009 A 
HETATM   21  C12 UNL     1      29.073  14.578 -10.226  1.00  0.00     0.023 A 
ENDBRANCH   1  17
TORSDOF 3
ENDMDL
MODEL 2
REMARK VINA RESULT: -8.049844110      2.055      6.662
REMARK  3 active torsions:
REMARK  status: ('A' for Active; 'I' for Inactive)
REMARK    1  A    between atoms: C3_4  and  C4_5 
REMARK    2  A    between atoms: C5_8  and  N2_9 
REMARK    3  A    between atoms: N2_9  and  C6_11 
ROOT
HETATM    1  C4  UNL     1      32.528  12.997  -6.707  1.00  0.00     0.153 A 
HETATM    2  N1  UNL     1      31.323  13.046  -7.298  1.00  0.00    -0.173 N 
ATOM      3  H1  UNL     1      30.556  12.402  -7.107  1.00  0.00     0.186 HD
HETATM    4  C5  UNL     1      31.269  14.062  -8.177  1.00  0.00     0.694 A 
HETATM    5  N3  UNL     1      32.473  14.657  -8.128  1.00  0.00    -0.131 N 
ATOM      6  H3  UNL     1      32.760  15.467  -8.678  1.00  0.00     0.205 HD
HETATM    7  N4  UNL     1      33.236  14.006  -7.233  1.00  0.00    -0.270 N 
ATOM      8  H4  UNL     1      34.198  14.242  -6.992  1.00  0.00     0.189 HD
ENDROOT
BRANCH   4   9
HETATM    9  N2  UNL     1      30.143  14.433  -9.004  1.00  0.00    -0.220 N 
ATOM     10  H2  UNL     1      29.916  15.418  -9.145  1.00  0.00     0.178 HD
BRANCH   9  11
HETATM   11  C6  UNL     1      29.338  13.409  -9.634  1.00  0.00     0.099 C 
HETATM   12  C7  UNL     1      28.326  14.051 -10.558  1.00  0.00     0.026 C 
HETATM   13  C8  UNL     1      28.730  13.749 -11.989  1.00  0.00     0.002 C 
HETATM   14  C9  UNL     1      28.590  12.270 -12.217  1.00  0.00     0.000 C 
HETATM   15  C10 UNL     1      29.472  11.506 -11.254  1.00  0.00     0.002 C 
HETATM   16  C11 UNL     1      30.235  12.441 -10.344  1.00  0.00     0.026 C 
ENDBRANCH   9  11
ENDBRANCH   4   9
BRANCH   1  17
HETATM   17  C3  UNL     1      32.976  12.043  -5.699  1.00  0.00     0.050 A 
HETATM   18  S1  UNL     1      34.552  11.756  -5.130  1.00  0.00    -0.098 SA
HETATM   19  C2  UNL     1      34.218  10.522  -3.996  1.00  0.00     0.050 A 
HETATM   20  C1  UNL     1      32.859  10.374  -4.102  1.00  0.00     0.009 A 
HETATM   21  C12 UNL     1      32.224  11.160  -4.982  1.00  0.00     0.023 A 
ENDBRANCH   1  17
TORSDOF 3
ENDMDL
MODEL 3
REMARK VINA RESULT: -8.044050437      0.992      1.570
REMARK  3 active torsions:
REMARK  status: ('A' for Active; 'I' for Inactive)
REMARK    1  A    between atoms: C3_4  and  C4_5 
REMARK    2  A    between atoms: C5_8  and  N2_9 
REMARK    3  A    between atoms: N2_9  and  C6_11 
ROOT
HETATM    1  C4  UNL     1      30.423  13.892  -9.276  1.00  0.00     0.153 A 
HETATM    2  N1  UNL     1      31.201  12.900  -8.814  1.00  0.00    -0.173 N 
ATOM      3  H1  UNL     1      31.068  11.911  -9.024  1.00  0.00     0.186 HD
HETATM    4  C5  UNL     1      32.182  13.391  -8.036  1.00  0.00     0.694 A 
HETATM    5  N3  UNL     1      32.004  14.723  -8.016  1.00  0.00    -0.131 N 
ATOM      6  H3  UNL     1      32.585  15.394  -7.513  1.00  0.00     0.205 HD
HETATM    7  N4  UNL     1      30.934  15.024  -8.771  1.00  0.00    -0.270 N 
ATOM      8  H4  UNL     1      30.568  15.962  -8.934  1.00  0.00     0.189 HD
ENDROOT
BRANCH   4   9
HETATM    9  N2  UNL     1      33.213  12.636  -7.360  1.00  0.00    -0.220 N 
ATOM     10  H2  UNL     1      33.982  12.232  -7.894  1.00  0.00     0.178 HD
BRANCH   9  11
HETATM   11  C6  UNL     1      33.154  12.452  -5.927  1.00  0.00     0.099 C 
HETATM   12  C7  UNL     1      31.809  11.878  -5.539  1.00  0.00     0.026 C 
HETATM   13  C8  UNL     1      32.013  10.441  -5.098  1.00  0.00     0.002 C 
HETATM   14  C9  UNL     1      32.819  10.447  -3.829  1.00  0.00     0.000 C 
HETATM   15  C10 UNL     1      34.155  11.117  -4.061  1.00  0.00     0.002 C 
HETATM   16  C11 UNL     1      34.297  11.587  -5.491  1.00  0.00     0.026 C 
ENDBRANCH   9  11
ENDBRANCH   4   9
BRANCH   1  17
HETATM   17  C3  UNL     1      29.261  13.766 -10.148  1.00  0.00     0.050 A 
HETATM   18  S1  UNL     1      27.991  12.638 -10.075  1.00  0.00    -0.098 SA
HETATM   19  C2  UNL     1      27.072  13.166 -11.415  1.00  0.00     0.050 A 
HETATM   20  C1  UNL     1      27.804  14.228 -11.884  1.00  0.00     0.009 A 
HETATM   21  C12 UNL     1      28.931  14.531 -11.227  1.00  0.00     0.023 A 
ENDBRANCH   1  17
TORSDOF 3
ENDMDL
MODEL 4
REMARK VINA RESULT: -8.019559037      2.046      6.709
REMARK  3 active torsions:
REMARK  status: ('A' for Active; 'I' for Inactive)
REMARK    1  A    between atoms: C3_4  and  C4_5 
REMARK    2  A    between atoms: C5_8  and  N2_9 
REMARK    3  A    between atoms: N2_9  and  C6_11 
ROOT
HETATM    1  C4  UNL     1      32.502  12.897  -6.677  1.00  0.00     0.153 A 
HETATM    2  N1  UNL     1      31.262  12.958  -7.188  1.00  0.00    -0.173 N 
ATOM      3  H1  UNL     1      30.493  12.343  -6.921  1.00  0.00     0.186 HD
HETATM    4  C5  UNL     1      31.174  13.941  -8.101  1.00  0.00     0.694 A 
HETATM    5  N3  UNL     1      32.394  14.503  -8.155  1.00  0.00    -0.131 N 
ATOM      6  H3  UNL     1      32.663  15.284  -8.754  1.00  0.00     0.205 HD
HETATM    7  N4  UNL     1      33.198  13.865  -7.288  1.00  0.00    -0.270 N 
ATOM      8  H4  UNL     1      34.181  14.083  -7.122  1.00  0.00     0.189 HD
ENDROOT
BRANCH   4   9
HETATM    9  N2  UNL     1      30.004  14.313  -8.865  1.00  0.00    -0.220 N 
ATOM     10  H2  UNL     1      29.240  14.817  -8.414  1.00  0.00     0.178 HD
BRANCH   9  11
HETATM   11  C6  UNL     1      29.917  13.971 -10.267  1.00  0.00     0.099 C 
HETATM   12  C7  UNL     1      30.169  12.490 -10.449  1.00  0.00     0.026 C 
HETATM   13  C8  UNL     1      28.861  11.827 -10.836  1.00  0.00     0.002 C 
HETATM   14  C9  UNL     1      28.462  12.329 -12.196  1.00  0.00     0.000 C 
HETATM   15  C10 UNL     1      28.299  13.833 -12.172  1.00  0.00     0.002 C 
HETATM   16  C11 UNL     1      28.583  14.397 -10.799  1.00  0.00     0.026 C 
ENDBRANCH   9  11
ENDBRANCH   4   9
BRANCH   1  17
HETATM   17  C3  UNL     1      32.993  11.969  -5.665  1.00  0.00     0.050 A 
HETATM   18  S1  UNL     1      34.599  11.626  -5.222  1.00  0.00    -0.098 SA
HETATM   19  C2  UNL     1      34.310  10.467  -4.002  1.00  0.00     0.050 A 
HETATM   20  C1  UNL     1      32.941  10.384  -3.980  1.00  0.00     0.009 A 
HETATM   21  C12 UNL     1      32.268  11.160  -4.840  1.00  0.00     0.023 A 
ENDBRANCH   1  17
TORSDOF 3
ENDMDL
MODEL 5
REMARK VINA RESULT: -7.832951294      2.083      6.312
REMARK  3 active torsions:
REMARK  status: ('A' for Active; 'I' for Inactive)
REMARK    1  A    between atoms: C3_4  and  C4_5 
REMARK    2  A    between atoms: C5_8  and  N2_9 
REMARK    3  A    between atoms: N2_9  and  C6_11 
ROOT
HETATM    1  C4  UNL     1      31.921  13.040  -7.137  1.00  0.00     0.153 A 
HETATM    2  N1  UNL     1      30.656  13.144  -7.576  1.00  0.00    -0.173 N 
ATOM      3  H1  UNL     1      29.887  12.545  -7.277  1.00  0.00     0.186 HD
HETATM    4  C5  UNL     1      30.544  14.148  -8.464  1.00  0.00     0.694 A 
HETATM    5  N3  UNL     1      31.775  14.678  -8.577  1.00  0.00    -0.131 N 
ATOM      6  H3  UNL     1      32.032  15.463  -9.176  1.00  0.00     0.205 HD
HETATM    7  N4  UNL     1      32.608  14.001  -7.769  1.00  0.00    -0.270 N 
ATOM      8  H4  UNL     1      33.604  14.189  -7.655  1.00  0.00     0.189 HD
ENDROOT
BRANCH   4   9
HETATM    9  N2  UNL     1      29.345  14.566  -9.153  1.00  0.00    -0.220 N 
ATOM     10  H2  UNL     1      28.827  15.382  -8.827  1.00  0.00     0.178 HD
BRANCH   9  11
HETATM   11  C6  UNL     1      28.878  13.828 -10.307  1.00  0.00     0.099 C 
HETATM   12  C7  UNL     1      30.051  13.173 -11.003  1.00  0.00     0.026 C 
HETATM   13  C8  UNL     1      29.963  11.675 -10.776  1.00  0.00     0.002 C 
HETATM   14  C9  UNL     1      28.744  11.160 -11.489  1.00  0.00     0.000 C 
HETATM   15  C10 UNL     1      27.502  11.842 -10.960  1.00  0.00     0.002 C 
HETATM   16  C11 UNL     1      27.839  12.839  -9.875  1.00  0.00     0.026 C 
ENDBRANCH   9  11
ENDBRANCH   4   9
BRANCH   1  17
HETATM   17  C3  UNL     1      32.442  12.079  -6.172  1.00  0.00     0.050 A 
HETATM   18  S1  UNL     1      34.030  11.910  -5.587  1.00  0.00    -0.098 SA
HETATM   19  C2  UNL     1      33.796  10.591  -4.526  1.00  0.00     0.050 A 
HETATM   20  C1  UNL     1      32.459  10.322  -4.667  1.00  0.00     0.009 A 
HETATM   21  C12 UNL     1      31.766  11.091  -5.517  1.00  0.00     0.023 A 
ENDBRANCH   1  17
TORSDOF 3
ENDMDL
