MODEL 1
REMARK VINA RESULT: -5.645871091      0.000      0.000
REMARK  2 active torsions:
REMARK  status: ('A' for Active; 'I' for Inactive)
REMARK    1  A    between atoms: N1_1  and  C1_5 
REMARK    2  A    between atoms: C1_5  and  C2_6 
ROOT
HETATM    1  C2  UNL     1      50.932  34.474   4.488  1.00  0.00     0.016 C 
HETATM    2  C3  UNL     1      51.382  33.779   3.222  1.00  0.00     0.038 C 
HETATM    3  C4  UNL     1      51.145  32.288   3.161  1.00  0.00     0.122 C 
HETATM    4  C5  UNL     1      50.152  31.807   2.127  1.00  0.00     0.032 C 
HETATM    5  C6  UNL     1      48.911  31.109   2.706  1.00  0.00     0.005 C 
HETATM    6  C7  UNL     1      48.323  31.879   3.922  1.00  0.00     0.032 C 
HETATM    7  C8  UNL     1      49.306  32.877   4.132  1.00  0.00     0.122 C 
HETATM    8  C9  UNL     1      49.598  33.924   5.059  1.00  0.00     0.038 C 
HETATM    9  O1  UNL     1      50.461  32.062   4.326  1.00  0.00    -0.381 OA
ENDROOT
BRANCH   1  10
HETATM   10  C1  UNL     1      51.976  34.615   5.527  1.00  0.00     0.234 C 
BRANCH  10  11
HETATM   11  N1  UNL     1      53.319  34.361   5.119  1.00  0.00    -0.079 N 
ATOM     12  H13 UNL     1      53.796  33.809   5.832  1.00  0.00     0.274 HD
ATOM     13  H12 UNL     1      53.323  33.703   4.340  1.00  0.00     0.274 HD
ATOM     14  H11 UNL     1      53.884  35.177   4.881  1.00  0.00     0.274 HD
ENDBRANCH  10  11
ENDBRANCH   1  10
TORSDOF 2
ENDMDL
MODEL 2
REMARK VINA RESULT: -5.223652679      2.363      4.164
REMARK  2 active torsions:
REMARK  status: ('A' for Active; 'I' for Inactive)
REMARK    1  A    between atoms: N1_1  and  C1_5 
REMARK    2  A    between atoms: C1_5  and  C2_6 
ROOT
HETATM    1  C2  UNL     1      48.486  31.383   3.176  1.00  0.00     0.016 C 
HETATM    2  C3  UNL     1      48.345  32.461   4.228  1.00  0.00     0.038 C 
HETATM    3  C4  UNL     1      49.610  32.839   4.966  1.00  0.00     0.122 C 
HETATM    4  C5  UNL     1      50.128  34.242   4.735  1.00  0.00     0.032 C 
HETATM    5  C6  UNL     1      51.518  34.312   4.081  1.00  0.00     0.005 C 
HETATM    6  C7  UNL     1      51.652  33.321   2.890  1.00  0.00     0.032 C 
HETATM    7  C8  UNL     1      50.442  32.591   2.986  1.00  0.00     0.122 C 
HETATM    8  C9  UNL     1      49.804  31.474   2.363  1.00  0.00     0.038 C 
HETATM    9  O1  UNL     1      50.552  32.087   4.317  1.00  0.00    -0.381 OA
ENDROOT
BRANCH   1  10
HETATM   10  C1  UNL     1      48.209  30.009   3.650  1.00  0.00     0.234 C 
BRANCH  10  11
HETATM   11  N1  UNL     1      47.426  29.891   4.837  1.00  0.00    -0.079 N 
ATOM     12  H13 UNL     1      47.873  30.407   5.595  1.00  0.00     0.274 HD
ATOM     13  H12 UNL     1      46.563  30.424   4.734  1.00  0.00     0.274 HD
ATOM     14  H11 UNL     1      47.210  28.944   5.147  1.00  0.00     0.274 HD
ENDBRANCH  10  11
ENDBRANCH   1  10
TORSDOF 2
ENDMDL
MODEL 3
REMARK VINA RESULT: -5.220804738      2.457      3.911
REMARK  2 active torsions:
REMARK  status: ('A' for Active; 'I' for Inactive)
REMARK    1  A    between atoms: N1_1  and  C1_5 
REMARK    2  A    between atoms: C1_5  and  C2_6 
ROOT
HETATM    1  C2  UNL     1      48.808  32.023   3.424  1.00  0.00     0.016 C 
HETATM    2  C3  UNL     1      47.565  31.171   3.557  1.00  0.00     0.038 C 
HETATM    3  C4  UNL     1      47.588  30.126   4.650  1.00  0.00     0.122 C 
HETATM    4  C5  UNL     1      46.614  30.324   5.789  1.00  0.00     0.032 C 
HETATM    5  C6  UNL     1      47.269  30.531   7.165  1.00  0.00     0.005 C 
HETATM    6  C7  UNL     1      48.464  31.525   7.097  1.00  0.00     0.032 C 
HETATM    7  C8  UNL     1      48.589  31.728   5.701  1.00  0.00     0.122 C 
HETATM    8  C9  UNL     1      49.451  32.404   4.783  1.00  0.00     0.038 C 
HETATM    9  O1  UNL     1      48.786  30.384   5.263  1.00  0.00    -0.381 OA
ENDROOT
BRANCH   1  10
HETATM   10  C1  UNL     1      49.803  31.524   2.449  1.00  0.00     0.234 C 
BRANCH  10  11
HETATM   11  N1  UNL     1      51.174  31.627   2.829  1.00  0.00    -0.079 N 
ATOM     12  H13 UNL     1      51.563  30.694   2.968  1.00  0.00     0.274 HD
ATOM     13  H12 UNL     1      51.729  31.942   2.033  1.00  0.00     0.274 HD
ATOM     14  H11 UNL     1      51.379  32.209   3.642  1.00  0.00     0.274 HD
ENDBRANCH  10  11
ENDBRANCH   1  10
TORSDOF 2
ENDMDL
MODEL 4
REMARK VINA RESULT: -5.129641372      2.551      4.432
REMARK  2 active torsions:
REMARK  status: ('A' for Active; 'I' for Inactive)
REMARK    1  A    between atoms: N1_1  and  C1_5 
REMARK    2  A    between atoms: C1_5  and  C2_6 
ROOT
HETATM    1  C2  UNL     1      51.191  34.091   5.072  1.00  0.00     0.016 C 
HETATM    2  C3  UNL     1      51.883  34.729   6.256  1.00  0.00     0.038 C 
HETATM    3  C4  UNL     1      51.596  36.196   6.483  1.00  0.00     0.122 C 
HETATM    4  C5  UNL     1      50.841  36.545   7.746  1.00  0.00     0.032 C 
HETATM    5  C6  UNL     1      49.469  37.199   7.513  1.00  0.00     0.005 C 
HETATM    6  C7  UNL     1      48.658  36.474   6.401  1.00  0.00     0.032 C 
HETATM    7  C8  UNL     1      49.615  35.555   5.902  1.00  0.00     0.122 C 
HETATM    8  C9  UNL     1      49.739  34.591   4.855  1.00  0.00     0.038 C 
HETATM    9  O1  UNL     1      50.656  36.453   5.520  1.00  0.00    -0.381 OA
ENDROOT
BRANCH   1  10
HETATM   10  C1  UNL     1      51.979  34.084   3.820  1.00  0.00     0.234 C 
BRANCH  10  11
HETATM   11  N1  UNL     1      53.388  34.257   3.953  1.00  0.00    -0.079 N 
ATOM     12  H13 UNL     1      53.598  35.240   4.132  1.00  0.00     0.274 HD
ATOM     13  H12 UNL     1      53.705  33.837   4.826  1.00  0.00     0.274 HD
ATOM     14  H11 UNL     1      53.963  33.919   3.180  1.00  0.00     0.274 HD
ENDBRANCH  10  11
ENDBRANCH   1  10
TORSDOF 2
ENDMDL
MODEL 5
REMARK VINA RESULT: -5.050888241      9.946     10.740
REMARK  2 active torsions:
REMARK  status: ('A' for Active; 'I' for Inactive)
REMARK    1  A    between atoms: N1_1  and  C1_5 
REMARK    2  A    between atoms: C1_5  and  C2_6 
ROOT
HETATM    1  C2  UNL     1      57.349  28.059   9.487  1.00  0.00     0.016 C 
HETATM    2  C3  UNL     1      56.942  28.358  10.913  1.00  0.00     0.038 C 
HETATM    3  C4  UNL     1      55.647  27.734  11.380  1.00  0.00     0.122 C 
HETATM    4  C5  UNL     1      55.759  26.690  12.469  1.00  0.00     0.032 C 
HETATM    5  C6  UNL     1      55.285  25.285  12.062  1.00  0.00     0.005 C 
HETATM    6  C7  UNL     1      55.812  24.876  10.657  1.00  0.00     0.032 C 
HETATM    7  C8  UNL     1      56.411  26.082  10.214  1.00  0.00     0.122 C 
HETATM    8  C9  UNL     1      57.039  26.606   9.042  1.00  0.00     0.038 C 
HETATM    9  O1  UNL     1      55.296  26.968  10.300  1.00  0.00    -0.381 OA
ENDROOT
BRANCH   1  10
HETATM   10  C1  UNL     1      56.908  29.060   8.490  1.00  0.00     0.234 C 
BRANCH  10  11
HETATM   11  N1  UNL     1      56.697  28.586   7.161  1.00  0.00    -0.079 N 
ATOM     12  H13 UNL     1      56.711  29.372   6.510  1.00  0.00     0.274 HD
ATOM     13  H12 UNL     1      57.518  28.069   6.847  1.00  0.00     0.274 HD
ATOM     14  H11 UNL     1      55.858  28.026   7.006  1.00  0.00     0.274 HD
ENDBRANCH  10  11
ENDBRANCH   1  10
TORSDOF 2
ENDMDL
