MODEL 1
REMARK VINA RESULT: -5.239170410      0.000      0.000
REMARK  3 active torsions:
REMARK  status: ('A' for Active; 'I' for Inactive)
REMARK    1  A    between atoms: N1_1  and  C1_5 
REMARK    2  A    between atoms: C3_7  and  C4_8 
REMARK    3  A    between atoms: C4_8  and  C5_9 
ROOT
HETATM    1  C1  UNL     1      48.118  30.235   3.470  1.00  0.00     0.188 A 
HETATM    2  C2  UNL     1      47.352  31.539   3.181  1.00  0.00     0.039 A 
HETATM    3  C3  UNL     1      48.818  31.539   3.432  1.00  0.00     0.018 A 
ENDROOT
BRANCH   3   4
HETATM    4  C4  UNL     1      49.266  32.211   4.713  1.00  0.00     0.011 C 
BRANCH   4   5
HETATM    5  C5  UNL     1      50.044  33.441   4.318  1.00  0.00    -0.010 C 
HETATM    6  C6  UNL     1      51.103  33.151   3.286  1.00  0.00     0.031 C 
HETATM    7  C7  UNL     1      52.402  33.838   3.573  1.00  0.00     0.168 C 
HETATM    8  O1  UNL     1      52.279  35.125   4.028  1.00  0.00    -0.391 OA
HETATM    9  C8  UNL     1      51.400  35.310   5.056  1.00  0.00     0.168 C 
HETATM   10  C9  UNL     1      50.743  34.026   5.525  1.00  0.00     0.031 C 
ENDBRANCH   4   5
ENDBRANCH   3   4
BRANCH   1  11
HETATM   11  N1  UNL     1      47.743  29.627   4.718  1.00  0.00    -0.075 N 
ATOM     12  H13 UNL     1      48.534  29.598   5.362  1.00  0.00     0.274 HD
ATOM     13  H12 UNL     1      47.121  30.237   5.249  1.00  0.00     0.274 HD
ATOM     14  H11 UNL     1      47.333  28.700   4.603  1.00  0.00     0.274 HD
ENDBRANCH   1  11
TORSDOF 3
ENDMDL
MODEL 2
REMARK VINA RESULT: -5.188251087      0.946      1.674
REMARK  3 active torsions:
REMARK  status: ('A' for Active; 'I' for Inactive)
REMARK    1  A    between atoms: N1_1  and  C1_5 
REMARK    2  A    between atoms: C3_7  and  C4_8 
REMARK    3  A    between atoms: C4_8  and  C5_9 
ROOT
HETATM    1  C1  UNL     1      48.314  30.678   3.292  1.00  0.00     0.188 A 
HETATM    2  C2  UNL     1      47.243  31.768   3.474  1.00  0.00     0.039 A 
HETATM    3  C3  UNL     1      48.668  32.014   3.822  1.00  0.00     0.018 A 
ENDROOT
BRANCH   3   4
HETATM    4  C4  UNL     1      48.961  32.207   5.295  1.00  0.00     0.011 C 
BRANCH   4   5
HETATM    5  C5  UNL     1      50.044  33.252   5.398  1.00  0.00    -0.010 C 
HETATM    6  C6  UNL     1      49.516  34.592   5.842  1.00  0.00     0.031 C 
HETATM    7  C7  UNL     1      50.096  35.734   5.068  1.00  0.00     0.168 C 
HETATM    8  O1  UNL     1      51.436  35.623   4.804  1.00  0.00    -0.391 OA
HETATM    9  C8  UNL     1      51.841  34.430   4.277  1.00  0.00     0.168 C 
HETATM   10  C9  UNL     1      50.703  33.455   4.052  1.00  0.00     0.031 C 
ENDBRANCH   4   5
ENDBRANCH   3   4
BRANCH   1  11
HETATM   11  N1  UNL     1      48.128  29.554   4.170  1.00  0.00    -0.075 N 
ATOM     12  H13 UNL     1      48.892  29.487   4.843  1.00  0.00     0.274 HD
ATOM     13  H12 UNL     1      47.354  29.718   4.814  1.00  0.00     0.274 HD
ATOM     14  H11 UNL     1      48.006  28.673   3.670  1.00  0.00     0.274 HD
ENDBRANCH   1  11
TORSDOF 3
ENDMDL
MODEL 3
REMARK VINA RESULT: -5.146065316      3.053      4.810
REMARK  3 active torsions:
REMARK  status: ('A' for Active; 'I' for Inactive)
REMARK    1  A    between atoms: N1_1  and  C1_5 
REMARK    2  A    between atoms: C3_7  and  C4_8 
REMARK    3  A    between atoms: C4_8  and  C5_9 
ROOT
HETATM    1  C1  UNL     1      51.816  34.606   5.968  1.00  0.00     0.188 A 
HETATM    2  C2  UNL     1      50.977  35.686   5.260  1.00  0.00     0.039 A 
HETATM    3  C3  UNL     1      50.578  34.253   5.236  1.00  0.00     0.018 A 
ENDROOT
BRANCH   3   4
HETATM    4  C4  UNL     1      50.648  33.574   3.885  1.00  0.00     0.011 C 
BRANCH   4   5
HETATM    5  C5  UNL     1      50.111  32.176   4.065  1.00  0.00    -0.010 C 
HETATM    6  C6  UNL     1      49.556  31.599   2.788  1.00  0.00     0.031 C 
HETATM    7  C7  UNL     1      48.261  30.875   2.990  1.00  0.00     0.168 C 
HETATM    8  O1  UNL     1      48.206  30.107   4.123  1.00  0.00    -0.391 OA
HETATM    9  C8  UNL     1      48.597  30.723   5.277  1.00  0.00     0.168 C 
HETATM   10  C9  UNL     1      48.992  32.173   5.082  1.00  0.00     0.031 C 
ENDBRANCH   4   5
ENDBRANCH   3   4
BRANCH   1  11
HETATM   11  N1  UNL     1      53.112  34.419   5.371  1.00  0.00    -0.075 N 
ATOM     12  H13 UNL     1      53.033  34.289   4.363  1.00  0.00     0.274 HD
ATOM     13  H12 UNL     1      53.648  35.287   5.386  1.00  0.00     0.274 HD
ATOM     14  H11 UNL     1      53.641  33.658   5.797  1.00  0.00     0.274 HD
ENDBRANCH   1  11
TORSDOF 3
ENDMDL
MODEL 4
REMARK VINA RESULT: -5.106742228      1.181      1.979
REMARK  3 active torsions:
REMARK  status: ('A' for Active; 'I' for Inactive)
REMARK    1  A    between atoms: N1_1  and  C1_5 
REMARK    2  A    between atoms: C3_7  and  C4_8 
REMARK    3  A    between atoms: C4_8  and  C5_9 
ROOT
HETATM    1  C1  UNL     1      47.234  31.221   4.377  1.00  0.00     0.188 A 
HETATM    2  C2  UNL     1      47.945  29.892   4.065  1.00  0.00     0.039 A 
HETATM    3  C3  UNL     1      48.711  31.136   4.343  1.00  0.00     0.018 A 
ENDROOT
BRANCH   3   4
HETATM    4  C4  UNL     1      49.490  31.704   3.175  1.00  0.00     0.011 C 
BRANCH   4   5
HETATM    5  C5  UNL     1      50.610  32.534   3.752  1.00  0.00    -0.010 C 
HETATM    6  C6  UNL     1      50.118  33.574   4.726  1.00  0.00     0.031 C 
HETATM    7  C7  UNL     1      50.784  34.903   4.545  1.00  0.00     0.168 C 
HETATM    8  O1  UNL     1      52.129  34.839   4.293  1.00  0.00    -0.391 OA
HETATM    9  C8  UNL     1      52.507  33.974   3.307  1.00  0.00     0.168 C 
HETATM   10  C9  UNL     1      51.341  33.264   2.648  1.00  0.00     0.031 C 
ENDBRANCH   4   5
ENDBRANCH   3   4
BRANCH   1  11
HETATM   11  N1  UNL     1      46.492  31.739   3.258  1.00  0.00    -0.075 N 
ATOM     12  H13 UNL     1      45.838  31.042   2.901  1.00  0.00     0.274 HD
ATOM     13  H12 UNL     1      45.827  32.451   3.560  1.00  0.00     0.274 HD
ATOM     14  H11 UNL     1      47.091  32.091   2.511  1.00  0.00     0.274 HD
ENDBRANCH   1  11
TORSDOF 3
ENDMDL
MODEL 5
REMARK VINA RESULT: -5.082295670      3.058      4.970
REMARK  3 active torsions:
REMARK  status: ('A' for Active; 'I' for Inactive)
REMARK    1  A    between atoms: N1_1  and  C1_5 
REMARK    2  A    between atoms: C3_7  and  C4_8 
REMARK    3  A    between atoms: C4_8  and  C5_9 
ROOT
HETATM    1  C1  UNL     1      52.151  34.928   6.678  1.00  0.00     0.188 A 
HETATM    2  C2  UNL     1      51.585  36.130   5.902  1.00  0.00     0.039 A 
HETATM    3  C3  UNL     1      51.254  34.732   5.518  1.00  0.00     0.018 A 
ENDROOT
BRANCH   3   4
HETATM    4  C4  UNL     1      51.806  34.267   4.186  1.00  0.00     0.011 C 
BRANCH   4   5
HETATM    5  C5  UNL     1      50.707  33.496   3.498  1.00  0.00    -0.010 C 
HETATM    6  C6  UNL     1      49.662  32.991   4.459  1.00  0.00     0.031 C 
HETATM    7  C7  UNL     1      49.241  31.583   4.176  1.00  0.00     0.168 C 
HETATM    8  O1  UNL     1      49.092  31.287   2.847  1.00  0.00    -0.391 OA
HETATM    9  C8  UNL     1      50.130  31.650   2.038  1.00  0.00     0.168 C 
HETATM   10  C9  UNL     1      51.281  32.291   2.787  1.00  0.00     0.031 C 
ENDBRANCH   4   5
ENDBRANCH   3   4
BRANCH   1  11
HETATM   11  N1  UNL     1      53.578  34.794   6.548  1.00  0.00    -0.075 N 
ATOM     12  H13 UNL     1      54.028  35.709   6.510  1.00  0.00     0.274 HD
ATOM     13  H12 UNL     1      53.992  34.442   7.411  1.00  0.00     0.274 HD
ATOM     14  H11 UNL     1      53.854  34.220   5.751  1.00  0.00     0.274 HD
ENDBRANCH   1  11
TORSDOF 3
ENDMDL
