MODEL 1
REMARK VINA RESULT: -7.955016470      0.000      0.000
REMARK  1 active torsions:
REMARK  status: ('A' for Active; 'I' for Inactive)
REMARK    1  A    between atoms: O1_1  and  N1_3 
ROOT
HETATM    1  N1  UNL     1      15.167   5.382  14.633  1.00  0.00    -0.218 N 
HETATM    2  C1  UNL     1      14.541   6.286  15.405  1.00  0.00     0.214 A 
HETATM    3  N2  UNL     1      13.567   5.634  16.060  1.00  0.00    -0.349 N 
ATOM      4  H2  UNL     1      12.926   6.072  16.721  1.00  0.00     0.167 HD
HETATM    5  C2  UNL     1      13.546   4.331  15.732  1.00  0.00     0.062 A 
HETATM    6  C3  UNL     1      12.753   3.255  16.123  1.00  0.00     0.032 A 
HETATM    7  C4  UNL     1      12.986   1.987  15.590  1.00  0.00     0.002 A 
HETATM    8  C5  UNL     1      14.002   1.841  14.686  1.00  0.00     0.002 A 
HETATM    9  C6  UNL     1      14.784   2.905  14.304  1.00  0.00     0.034 A 
HETATM   10  C7  UNL     1      14.578   4.188  14.818  1.00  0.00     0.090 A 
ENDROOT
BRANCH   1  11
HETATM   11  O1  UNL     1      16.223   5.627  13.801  1.00  0.00    -0.282 OA
ATOM     12  H1  UNL     1      17.077   5.951  14.060  1.00  0.00     0.245 HD
ENDBRANCH   1  11
TORSDOF 1
ENDMDL
MODEL 2
REMARK VINA RESULT: -7.762825633      1.208      1.387
REMARK  1 active torsions:
REMARK  status: ('A' for Active; 'I' for Inactive)
REMARK    1  A    between atoms: O1_1  and  N1_3 
ROOT
HETATM    1  N1  UNL     1      15.142   3.857  14.400  1.00  0.00    -0.218 N 
HETATM    2  C1  UNL     1      15.194   4.890  15.257  1.00  0.00     0.214 A 
HETATM    3  N2  UNL     1      14.167   4.746  16.107  1.00  0.00    -0.349 N 
ATOM      4  H2  UNL     1      13.957   5.390  16.871  1.00  0.00     0.167 HD
HETATM    5  C2  UNL     1      13.449   3.645  15.826  1.00  0.00     0.062 A 
HETATM    6  C3  UNL     1      12.319   3.064  16.394  1.00  0.00     0.032 A 
HETATM    7  C4  UNL     1      11.797   1.886  15.859  1.00  0.00     0.002 A 
HETATM    8  C5  UNL     1      12.423   1.332  14.776  1.00  0.00     0.002 A 
HETATM    9  C6  UNL     1      13.540   1.908  14.219  1.00  0.00     0.034 A 
HETATM   10  C7  UNL     1      14.089   3.088  14.730  1.00  0.00     0.090 A 
ENDROOT
BRANCH   1  11
HETATM   11  O1  UNL     1      16.007   3.619  13.369  1.00  0.00    -0.282 OA
ATOM     12  H1  UNL     1      15.803   3.670  12.443  1.00  0.00     0.245 HD
ENDBRANCH   1  11
TORSDOF 1
ENDMDL
MODEL 3
REMARK VINA RESULT: -6.925127104      1.464      2.367
REMARK  1 active torsions:
REMARK  status: ('A' for Active; 'I' for Inactive)
REMARK    1  A    between atoms: O1_1  and  N1_3 
ROOT
HETATM    1  N1  UNL     1      14.418   4.820  15.517  1.00  0.00    -0.218 N 
HETATM    2  C1  UNL     1      15.412   4.678  14.625  1.00  0.00     0.214 A 
HETATM    3  N2  UNL     1      15.242   3.486  14.034  1.00  0.00    -0.349 N 
ATOM      4  H2  UNL     1      15.853   3.110  13.310  1.00  0.00     0.167 HD
HETATM    5  C2  UNL     1      14.162   2.850  14.520  1.00  0.00     0.062 A 
HETATM    6  C3  UNL     1      13.568   1.620  14.247  1.00  0.00     0.032 A 
HETATM    7  C4  UNL     1      12.420   1.232  14.938  1.00  0.00     0.002 A 
HETATM    8  C5  UNL     1      11.908   2.086  15.876  1.00  0.00     0.002 A 
HETATM    9  C6  UNL     1      12.496   3.300  16.141  1.00  0.00     0.034 A 
HETATM   10  C7  UNL     1      13.646   3.720  15.468  1.00  0.00     0.090 A 
ENDROOT
BRANCH   1  11
HETATM   11  O1  UNL     1      14.217   5.895  16.336  1.00  0.00    -0.282 OA
ATOM     12  H1  UNL     1      14.683   6.721  16.301  1.00  0.00     0.245 HD
ENDBRANCH   1  11
TORSDOF 1
ENDMDL
MODEL 4
REMARK VINA RESULT: -6.678865187      1.900      2.689
REMARK  1 active torsions:
REMARK  status: ('A' for Active; 'I' for Inactive)
REMARK    1  A    between atoms: O1_1  and  N1_3 
ROOT
HETATM    1  N1  UNL     1      15.324   3.508  15.094  1.00  0.00    -0.218 N 
HETATM    2  C1  UNL     1      15.480   3.053  13.840  1.00  0.00     0.214 A 
HETATM    3  N2  UNL     1      14.413   2.287  13.566  1.00  0.00    -0.349 N 
ATOM      4  H2  UNL     1      14.262   1.807  12.679  1.00  0.00     0.167 HD
HETATM    5  C2  UNL     1      13.568   2.234  14.610  1.00  0.00     0.062 A 
HETATM    6  C3  UNL     1      12.350   1.595  14.828  1.00  0.00     0.032 A 
HETATM    7  C4  UNL     1      11.698   1.738  16.053  1.00  0.00     0.002 A 
HETATM    8  C5  UNL     1      12.286   2.514  17.014  1.00  0.00     0.002 A 
HETATM    9  C6  UNL     1      13.488   3.144  16.794  1.00  0.00     0.034 A 
HETATM   10  C7  UNL     1      14.168   3.023  15.579  1.00  0.00     0.090 A 
ENDROOT
BRANCH   1  11
HETATM   11  O1  UNL     1      16.187   4.326  15.768  1.00  0.00    -0.282 OA
ATOM     12  H1  UNL     1      16.755   4.072  16.486  1.00  0.00     0.245 HD
ENDBRANCH   1  11
TORSDOF 1
ENDMDL
MODEL 5
REMARK VINA RESULT: -6.594687761      2.902      4.108
REMARK  1 active torsions:
REMARK  status: ('A' for Active; 'I' for Inactive)
REMARK    1  A    between atoms: O1_1  and  N1_3 
ROOT
HETATM    1  N1  UNL     1      12.156   2.081  15.516  1.00  0.00    -0.218 N 
HETATM    2  C1  UNL     1      12.465   1.187  14.563  1.00  0.00     0.214 A 
HETATM    3  N2  UNL     1      13.572   1.634  13.951  1.00  0.00    -0.349 N 
ATOM      4  H2  UNL     1      14.038   1.154  13.181  1.00  0.00     0.167 HD
HETATM    5  C2  UNL     1      13.989   2.796  14.482  1.00  0.00     0.062 A 
HETATM    6  C3  UNL     1      15.059   3.646  14.213  1.00  0.00     0.032 A 
HETATM    7  C4  UNL     1      15.228   4.811  14.961  1.00  0.00     0.002 A 
HETATM    8  C5  UNL     1      14.323   5.085  15.950  1.00  0.00     0.002 A 
HETATM    9  C6  UNL     1      13.269   4.242  16.213  1.00  0.00     0.034 A 
HETATM   10  C7  UNL     1      13.070   3.067  15.484  1.00  0.00     0.090 A 
ENDROOT
BRANCH   1  11
HETATM   11  O1  UNL     1      11.095   2.009  16.376  1.00  0.00    -0.282 OA
ATOM     12  H1  UNL     1      10.372   1.397  16.323  1.00  0.00     0.245 HD
ENDBRANCH   1  11
TORSDOF 1
ENDMDL
