MODEL 1
REMARK VINA RESULT: -6.007745234      0.000      0.000
REMARK  1 active torsions:
REMARK  status: ('A' for Active; 'I' for Inactive)
REMARK    1  A    between atoms: N3_6  and  C3_7 
ROOT
HETATM    1  C1  UNL     1      16.481   4.597  15.690  1.00  0.00     0.181 C 
HETATM    2  N1  UNL     1      15.221   5.302  15.633  1.00  0.00    -0.270 N 
HETATM    3  C2  UNL     1      14.850   6.593  15.695  1.00  0.00     0.220 A 
HETATM    4  N2  UNL     1      13.603   6.171  15.560  1.00  0.00    -0.273 N 
ATOM      5  H2  UNL     1      12.704   6.651  15.519  1.00  0.00     0.190 HD
HETATM    6  N3  UNL     1      13.952   4.899  15.498  1.00  0.00    -0.193 N 
ENDROOT
BRANCH   6   7
HETATM    7  C3  UNL     1      13.350   3.619  15.354  1.00  0.00     0.075 A 
HETATM    8  C4  UNL     1      12.418   3.224  16.252  1.00  0.00     0.033 A 
HETATM    9  C5  UNL     1      11.845   1.973  16.095  1.00  0.00     0.002 A 
HETATM   10  C6  UNL     1      12.185   1.120  15.064  1.00  0.00     0.000 A 
HETATM   11  C7  UNL     1      13.136   1.545  14.164  1.00  0.00     0.002 A 
HETATM   12  C8  UNL     1      13.707   2.781  14.315  1.00  0.00     0.033 A 
ENDBRANCH   6   7
TORSDOF 1
ENDMDL
MODEL 2
REMARK VINA RESULT: -6.001882915      0.033      1.426
REMARK  1 active torsions:
REMARK  status: ('A' for Active; 'I' for Inactive)
REMARK    1  A    between atoms: N3_6  and  C3_7 
ROOT
HETATM    1  C1  UNL     1      16.484   4.585  15.710  1.00  0.00     0.181 C 
HETATM    2  N1  UNL     1      15.227   5.294  15.642  1.00  0.00    -0.270 N 
HETATM    3  C2  UNL     1      14.860   6.587  15.698  1.00  0.00     0.220 A 
HETATM    4  N2  UNL     1      13.613   6.169  15.552  1.00  0.00    -0.273 N 
ATOM      5  H2  UNL     1      12.716   6.652  15.503  1.00  0.00     0.190 HD
HETATM    6  N3  UNL     1      13.958   4.896  15.496  1.00  0.00    -0.193 N 
ENDROOT
BRANCH   6   7
HETATM    7  C3  UNL     1      13.353   3.617  15.351  1.00  0.00     0.075 A 
HETATM    8  C4  UNL     1      13.727   2.824  14.321  1.00  0.00     0.033 A 
HETATM    9  C5  UNL     1      13.125   1.583  14.197  1.00  0.00     0.002 A 
HETATM   10  C6  UNL     1      12.164   1.127  15.079  1.00  0.00     0.000 A 
HETATM   11  C7  UNL     1      11.801   1.954  16.118  1.00  0.00     0.002 A 
HETATM   12  C8  UNL     1      12.393   3.183  16.245  1.00  0.00     0.033 A 
ENDBRANCH   6   7
TORSDOF 1
ENDMDL
MODEL 3
REMARK VINA RESULT: -5.442026882      1.310      1.310
REMARK  1 active torsions:
REMARK  status: ('A' for Active; 'I' for Inactive)
REMARK    1  A    between atoms: N3_6  and  C3_7 
ROOT
HETATM    1  C1  UNL     1      16.610   6.010  15.199  1.00  0.00     0.181 C 
HETATM    2  N1  UNL     1      15.187   6.125  15.420  1.00  0.00    -0.270 N 
HETATM    3  C2  UNL     1      14.330   7.149  15.586  1.00  0.00     0.220 A 
HETATM    4  N2  UNL     1      13.374   6.241  15.700  1.00  0.00    -0.273 N 
ATOM      5  H2  UNL     1      12.368   6.303  15.856  1.00  0.00     0.190 HD
HETATM    6  N3  UNL     1      14.203   5.226  15.539  1.00  0.00    -0.193 N 
ENDROOT
BRANCH   6   7
HETATM    7  C3  UNL     1      14.176   3.805  15.493  1.00  0.00     0.075 A 
HETATM    8  C4  UNL     1      14.214   3.107  16.651  1.00  0.00     0.033 A 
HETATM    9  C5  UNL     1      14.187   1.724  16.584  1.00  0.00     0.002 A 
HETATM   10  C6  UNL     1      14.124   1.036  15.389  1.00  0.00     0.000 A 
HETATM   11  C7  UNL     1      14.087   1.769  14.224  1.00  0.00     0.002 A 
HETATM   12  C8  UNL     1      14.114   3.137  14.285  1.00  0.00     0.033 A 
ENDBRANCH   6   7
TORSDOF 1
ENDMDL
MODEL 4
REMARK VINA RESULT: -5.416779714      1.326      1.831
REMARK  1 active torsions:
REMARK  status: ('A' for Active; 'I' for Inactive)
REMARK    1  A    between atoms: N3_6  and  C3_7 
ROOT
HETATM    1  C1  UNL     1      16.619   6.045  15.237  1.00  0.00     0.181 C 
HETATM    2  N1  UNL     1      15.191   6.157  15.429  1.00  0.00    -0.270 N 
HETATM    3  C2  UNL     1      14.329   7.179  15.580  1.00  0.00     0.220 A 
HETATM    4  N2  UNL     1      13.373   6.269  15.674  1.00  0.00    -0.273 N 
ATOM      5  H2  UNL     1      12.364   6.329  15.810  1.00  0.00     0.190 HD
HETATM    6  N3  UNL     1      14.207   5.256  15.527  1.00  0.00    -0.193 N 
ENDROOT
BRANCH   6   7
HETATM    7  C3  UNL     1      14.183   3.835  15.479  1.00  0.00     0.075 A 
HETATM    8  C4  UNL     1      14.124   3.218  14.276  1.00  0.00     0.033 A 
HETATM    9  C5  UNL     1      14.101   1.833  14.251  1.00  0.00     0.002 A 
HETATM   10  C6  UNL     1      14.138   1.065  15.398  1.00  0.00     0.000 A 
HETATM   11  C7  UNL     1      14.198   1.717  16.608  1.00  0.00     0.002 A 
HETATM   12  C8  UNL     1      14.219   3.087  16.639  1.00  0.00     0.033 A 
ENDBRANCH   6   7
TORSDOF 1
ENDMDL
MODEL 5
REMARK VINA RESULT: -5.308593766      0.906      2.109
REMARK  1 active torsions:
REMARK  status: ('A' for Active; 'I' for Inactive)
REMARK    1  A    between atoms: N3_6  and  C3_7 
ROOT
HETATM    1  C1  UNL     1      13.781   6.856  14.880  1.00  0.00     0.181 C 
HETATM    2  N1  UNL     1      14.856   5.959  15.235  1.00  0.00    -0.270 N 
HETATM    3  C2  UNL     1      16.166   6.103  15.503  1.00  0.00     0.220 A 
HETATM    4  N2  UNL     1      16.204   4.793  15.685  1.00  0.00    -0.273 N 
ATOM      5  H2  UNL     1      16.950   4.144  15.934  1.00  0.00     0.190 HD
HETATM    6  N3  UNL     1      14.919   4.636  15.424  1.00  0.00    -0.193 N 
ENDROOT
BRANCH   6   7
HETATM    7  C3  UNL     1      13.950   3.597  15.350  1.00  0.00     0.075 A 
HETATM    8  C4  UNL     1      14.022   2.699  14.341  1.00  0.00     0.033 A 
HETATM    9  C5  UNL     1      13.067   1.697  14.287  1.00  0.00     0.002 A 
HETATM   10  C6  UNL     1      12.054   1.579  15.218  1.00  0.00     0.000 A 
HETATM   11  C7  UNL     1      12.004   2.506  16.234  1.00  0.00     0.002 A 
HETATM   12  C8  UNL     1      12.944   3.500  16.292  1.00  0.00     0.033 A 
ENDBRANCH   6   7
TORSDOF 1
ENDMDL
