MODEL 1
REMARK VINA RESULT: -7.093593895      0.000      0.000
REMARK  2 active torsions:
REMARK  status: ('A' for Active; 'I' for Inactive)
REMARK    1  A    between atoms: O1_1  and  C1_3 
REMARK    2  A    between atoms: C1_3  and  N1_4 
ROOT
HETATM    1  N1  UNL     1      14.696   4.637  15.217  1.00  0.00    -0.319 N 
HETATM    2  C2  UNL     1      15.582   4.270  14.261  1.00  0.00     0.185 A 
HETATM    3  N2  UNL     1      15.231   3.055  13.803  1.00  0.00    -0.350 N 
ATOM      4  H2  UNL     1      15.715   2.524  13.078  1.00  0.00     0.166 HD
HETATM    5  C3  UNL     1      14.112   2.655  14.479  1.00  0.00     0.060 A 
HETATM    6  C4  UNL     1      13.317   1.528  14.440  1.00  0.00     0.032 A 
HETATM    7  C5  UNL     1      12.215   1.375  15.254  1.00  0.00     0.002 A 
HETATM    8  C6  UNL     1      11.915   2.386  16.122  1.00  0.00     0.002 A 
HETATM    9  C7  UNL     1      12.685   3.527  16.189  1.00  0.00     0.032 A 
HETATM   10  C8  UNL     1      13.784   3.661  15.366  1.00  0.00     0.064 A 
ENDROOT
BRANCH   1  11
HETATM   11  C1  UNL     1      14.730   5.891  15.958  1.00  0.00     0.296 C 
BRANCH  11  12
HETATM   12  O1  UNL     1      13.822   6.760  15.321  1.00  0.00    -0.382 OA
ATOM     13  H1  UNL     1      13.237   7.083  15.996  1.00  0.00     0.211 HD
ENDBRANCH  11  12
ENDBRANCH   1  11
TORSDOF 2
ENDMDL
MODEL 2
REMARK VINA RESULT: -6.831176565      2.101      3.572
REMARK  2 active torsions:
REMARK  status: ('A' for Active; 'I' for Inactive)
REMARK    1  A    between atoms: O1_1  and  C1_3 
REMARK    2  A    between atoms: C1_3  and  N1_4 
ROOT
HETATM    1  N1  UNL     1      12.864   2.280  15.321  1.00  0.00    -0.319 N 
HETATM    2  C2  UNL     1      13.462   1.378  14.507  1.00  0.00     0.185 A 
HETATM    3  N2  UNL     1      14.585   1.933  14.014  1.00  0.00    -0.350 N 
ATOM      4  H2  UNL     1      15.241   1.489  13.372  1.00  0.00     0.166 HD
HETATM    5  C3  UNL     1      14.692   3.196  14.526  1.00  0.00     0.060 A 
HETATM    6  C4  UNL     1      15.611   4.215  14.384  1.00  0.00     0.032 A 
HETATM    7  C5  UNL     1      15.476   5.425  15.032  1.00  0.00     0.002 A 
HETATM    8  C6  UNL     1      14.388   5.601  15.839  1.00  0.00     0.002 A 
HETATM    9  C7  UNL     1      13.449   4.605  16.005  1.00  0.00     0.032 A 
HETATM   10  C8  UNL     1      13.602   3.403  15.348  1.00  0.00     0.064 A 
ENDROOT
BRANCH   1  11
HETATM   11  C1  UNL     1      11.621   2.060  16.049  1.00  0.00     0.296 C 
BRANCH  11  12
HETATM   12  O1  UNL     1      11.982   1.625  17.340  1.00  0.00    -0.382 OA
ATOM     13  H1  UNL     1      12.835   1.216  17.260  1.00  0.00     0.211 HD
ENDBRANCH  11  12
ENDBRANCH   1  11
TORSDOF 2
ENDMDL
MODEL 3
REMARK VINA RESULT: -6.436332131      1.165      2.282
REMARK  2 active torsions:
REMARK  status: ('A' for Active; 'I' for Inactive)
REMARK    1  A    between atoms: O1_1  and  C1_3 
REMARK    2  A    between atoms: C1_3  and  N1_4 
ROOT
HETATM    1  N1  UNL     1      14.750   4.336  14.828  1.00  0.00    -0.319 N 
HETATM    2  C2  UNL     1      14.512   5.217  15.828  1.00  0.00     0.185 A 
HETATM    3  N2  UNL     1      13.475   4.762  16.554  1.00  0.00    -0.350 N 
ATOM      4  H2  UNL     1      13.070   5.217  17.373  1.00  0.00     0.166 HD
HETATM    5  C3  UNL     1      13.058   3.581  16.004  1.00  0.00     0.060 A 
HETATM    6  C4  UNL     1      12.062   2.678  16.309  1.00  0.00     0.032 A 
HETATM    7  C5  UNL     1      11.851   1.534  15.568  1.00  0.00     0.002 A 
HETATM    8  C6  UNL     1      12.670   1.305  14.498  1.00  0.00     0.002 A 
HETATM    9  C7  UNL     1      13.676   2.185  14.163  1.00  0.00     0.032 A 
HETATM   10  C8  UNL     1      13.870   3.324  14.917  1.00  0.00     0.064 A 
ENDROOT
BRANCH   1  11
HETATM   11  C1  UNL     1      15.795   4.469  13.821  1.00  0.00     0.296 C 
BRANCH  11  12
HETATM   12  O1  UNL     1      16.190   5.822  13.828  1.00  0.00    -0.382 OA
ATOM     13  H1  UNL     1      15.393   6.337  13.833  1.00  0.00     0.211 HD
ENDBRANCH  11  12
ENDBRANCH   1  11
TORSDOF 2
ENDMDL
MODEL 4
REMARK VINA RESULT: -6.404203865      2.164      3.678
REMARK  2 active torsions:
REMARK  status: ('A' for Active; 'I' for Inactive)
REMARK    1  A    between atoms: O1_1  and  C1_3 
REMARK    2  A    between atoms: C1_3  and  N1_4 
ROOT
HETATM    1  N1  UNL     1      13.440   2.497  15.020  1.00  0.00    -0.319 N 
HETATM    2  C2  UNL     1      14.300   1.793  14.247  1.00  0.00     0.185 A 
HETATM    3  N2  UNL     1      15.346   2.586  13.948  1.00  0.00    -0.350 N 
ATOM      4  H2  UNL     1      16.152   2.326  13.379  1.00  0.00     0.166 HD
HETATM    5  C3  UNL     1      15.139   3.801  14.540  1.00  0.00     0.060 A 
HETATM    6  C4  UNL     1      15.851   4.981  14.586  1.00  0.00     0.032 A 
HETATM    7  C5  UNL     1      15.402   6.087  15.276  1.00  0.00     0.002 A 
HETATM    8  C6  UNL     1      14.207   5.990  15.932  1.00  0.00     0.002 A 
HETATM    9  C7  UNL     1      13.468   4.827  15.909  1.00  0.00     0.032 A 
HETATM   10  C8  UNL     1      13.935   3.732  15.213  1.00  0.00     0.064 A 
ENDROOT
BRANCH   1  11
HETATM   11  C1  UNL     1      12.182   1.991  15.554  1.00  0.00     0.296 C 
BRANCH  11  12
HETATM   12  O1  UNL     1      11.834   0.872  14.771  1.00  0.00    -0.382 OA
ATOM     13  H1  UNL     1      11.029   1.095  14.320  1.00  0.00     0.211 HD
ENDBRANCH  11  12
ENDBRANCH   1  11
TORSDOF 2
ENDMDL
MODEL 5
REMARK VINA RESULT: -5.830640588      1.379      2.318
REMARK  2 active torsions:
REMARK  status: ('A' for Active; 'I' for Inactive)
REMARK    1  A    between atoms: O1_1  and  C1_3 
REMARK    2  A    between atoms: C1_3  and  N1_4 
ROOT
HETATM    1  N1  UNL     1      14.809   4.770  15.346  1.00  0.00    -0.319 N 
HETATM    2  C2  UNL     1      13.830   5.451  15.988  1.00  0.00     0.185 A 
HETATM    3  N2  UNL     1      12.771   4.633  16.131  1.00  0.00    -0.350 N 
ATOM      4  H2  UNL     1      11.885   4.872  16.578  1.00  0.00     0.166 HD
HETATM    5  C3  UNL     1      13.089   3.426  15.573  1.00  0.00     0.060 A 
HETATM    6  C4  UNL     1      12.419   2.230  15.424  1.00  0.00     0.032 A 
HETATM    7  C5  UNL     1      12.988   1.138  14.804  1.00  0.00     0.002 A 
HETATM    8  C6  UNL     1      14.263   1.264  14.329  1.00  0.00     0.002 A 
HETATM    9  C7  UNL     1      14.964   2.444  14.460  1.00  0.00     0.032 A 
HETATM   10  C8  UNL     1      14.376   3.525  15.083  1.00  0.00     0.064 A 
ENDROOT
BRANCH   1  11
HETATM   11  C1  UNL     1      16.119   5.307  15.002  1.00  0.00     0.296 C 
BRANCH  11  12
HETATM   12  O1  UNL     1      16.038   5.736  13.661  1.00  0.00    -0.382 OA
ATOM     13  H1  UNL     1      16.638   5.192  13.166  1.00  0.00     0.211 HD
ENDBRANCH  11  12
ENDBRANCH   1  11
TORSDOF 2
ENDMDL
