MODEL 1
REMARK VINA RESULT: -7.760054194      0.000      0.000
REMARK  4 active torsions:
REMARK  status: ('A' for Active; 'I' for Inactive)
REMARK    1  A    between atoms: O1_1  and  C1_3 
REMARK    2  A    between atoms: C1_3  and  C2_4 
REMARK    3  A    between atoms: C3_5  and  C4_6 
REMARK    4  A    between atoms: C4_6  and  C5_7 
ROOT
HETATM    1  C5  UNL     1      14.212   3.566  15.107  1.00  0.00    -0.047 A 
HETATM    2  C6  UNL     1      13.952   2.486  14.282  1.00  0.00     0.008 A 
HETATM    3  C7  UNL     1      12.900   1.637  14.500  1.00  0.00     0.001 A 
HETATM    4  C8  UNL     1      12.053   1.843  15.574  1.00  0.00     0.000 A 
HETATM    5  C9  UNL     1      12.292   2.905  16.401  1.00  0.00     0.001 A 
HETATM    6  C10 UNL     1      13.352   3.748  16.169  1.00  0.00     0.008 A 
ENDROOT
BRANCH   1   7
HETATM    7  C4  UNL     1      15.362   4.443  14.815  1.00  0.00     0.132 C 
BRANCH   7   8
HETATM    8  C3  UNL     1      15.138   5.813  15.332  1.00  0.00    -0.100 C 
HETATM    9  C2  UNL     1      14.974   6.929  15.762  1.00  0.00    -0.080 C 
BRANCH   9  10
HETATM   10  C1  UNL     1      14.796   8.290  16.294  1.00  0.00     0.257 C 
BRANCH  10  11
HETATM   11  O1  UNL     1      14.038   9.083  15.421  1.00  0.00    -0.389 OA
ATOM     12  H1  UNL     1      14.538   9.321  14.649  1.00  0.00     0.210 HD
ENDBRANCH  10  11
ENDBRANCH   9  10
ENDBRANCH   7   8
ENDBRANCH   1   7
TORSDOF 4
ENDMDL
MODEL 2
REMARK VINA RESULT: -7.682514428      0.145      1.427
REMARK  4 active torsions:
REMARK  status: ('A' for Active; 'I' for Inactive)
REMARK    1  A    between atoms: O1_1  and  C1_3 
REMARK    2  A    between atoms: C1_3  and  C2_4 
REMARK    3  A    between atoms: C3_5  and  C4_6 
REMARK    4  A    between atoms: C4_6  and  C5_7 
ROOT
HETATM    1  C5  UNL     1      14.191   3.439  14.980  1.00  0.00    -0.047 A 
HETATM    2  C6  UNL     1      13.378   3.698  16.070  1.00  0.00     0.008 A 
HETATM    3  C7  UNL     1      12.293   2.921  16.372  1.00  0.00     0.001 A 
HETATM    4  C8  UNL     1      11.975   1.833  15.578  1.00  0.00     0.000 A 
HETATM    5  C9  UNL     1      12.766   1.560  14.497  1.00  0.00     0.001 A 
HETATM    6  C10 UNL     1      13.851   2.350  14.206  1.00  0.00     0.008 A 
ENDROOT
BRANCH   1   7
HETATM    7  C4  UNL     1      15.346   4.318  14.711  1.00  0.00     0.132 C 
BRANCH   7   8
HETATM    8  C3  UNL     1      15.123   5.678  15.254  1.00  0.00    -0.100 C 
HETATM    9  C2  UNL     1      14.961   6.789  15.698  1.00  0.00    -0.080 C 
BRANCH   9  10
HETATM   10  C1  UNL     1      14.788   8.147  16.239  1.00  0.00     0.257 C 
BRANCH  10  11
HETATM   11  O1  UNL     1      14.030   8.948  15.372  1.00  0.00    -0.389 OA
ATOM     12  H1  UNL     1      13.753   9.751  15.798  1.00  0.00     0.210 HD
ENDBRANCH  10  11
ENDBRANCH   9  10
ENDBRANCH   7   8
ENDBRANCH   1   7
TORSDOF 4
ENDMDL
MODEL 3
REMARK VINA RESULT: -6.831199520      1.301      1.671
REMARK  4 active torsions:
REMARK  status: ('A' for Active; 'I' for Inactive)
REMARK    1  A    between atoms: O1_1  and  C1_3 
REMARK    2  A    between atoms: C1_3  and  C2_4 
REMARK    3  A    between atoms: C3_5  and  C4_6 
REMARK    4  A    between atoms: C4_6  and  C5_7 
ROOT
HETATM    1  C5  UNL     1      14.626   4.139  15.514  1.00  0.00    -0.047 A 
HETATM    2  C6  UNL     1      13.284   4.338  15.786  1.00  0.00     0.008 A 
HETATM    3  C7  UNL     1      12.512   3.385  16.393  1.00  0.00     0.001 A 
HETATM    4  C8  UNL     1      13.067   2.171  16.758  1.00  0.00     0.000 A 
HETATM    5  C9  UNL     1      14.392   1.954  16.499  1.00  0.00     0.001 A 
HETATM    6  C10 UNL     1      15.154   2.921  15.888  1.00  0.00     0.008 A 
ENDROOT
BRANCH   1   7
HETATM    7  C4  UNL     1      15.401   5.209  14.857  1.00  0.00     0.132 C 
BRANCH   7   8
HETATM    8  C3  UNL     1      15.144   6.524  15.490  1.00  0.00    -0.100 C 
HETATM    9  C2  UNL     1      14.950   7.603  15.995  1.00  0.00    -0.080 C 
BRANCH   9  10
HETATM   10  C1  UNL     1      14.729   8.928  16.596  1.00  0.00     0.257 C 
BRANCH  10  11
HETATM   11  O1  UNL     1      15.505   9.910  15.962  1.00  0.00    -0.389 OA
ATOM     12  H1  UNL     1      15.948  10.462  16.597  1.00  0.00     0.210 HD
ENDBRANCH  10  11
ENDBRANCH   9  10
ENDBRANCH   7   8
ENDBRANCH   1   7
TORSDOF 4
ENDMDL
MODEL 4
REMARK VINA RESULT: -5.404173213      1.033      1.278
REMARK  4 active torsions:
REMARK  status: ('A' for Active; 'I' for Inactive)
REMARK    1  A    between atoms: O1_1  and  C1_3 
REMARK    2  A    between atoms: C1_3  and  C2_4 
REMARK    3  A    between atoms: C3_5  and  C4_6 
REMARK    4  A    between atoms: C4_6  and  C5_7 
ROOT
HETATM    1  C5  UNL     1      14.028   2.694  15.884  1.00  0.00    -0.047 A 
HETATM    2  C6  UNL     1      14.270   2.212  14.609  1.00  0.00     0.008 A 
HETATM    3  C7  UNL     1      13.342   1.484  13.915  1.00  0.00     0.001 A 
HETATM    4  C8  UNL     1      12.112   1.205  14.484  1.00  0.00     0.000 A 
HETATM    5  C9  UNL     1      11.853   1.672  15.743  1.00  0.00     0.001 A 
HETATM    6  C10 UNL     1      12.795   2.401  16.426  1.00  0.00     0.008 A 
ENDROOT
BRANCH   1   7
HETATM    7  C4  UNL     1      15.073   3.473  16.576  1.00  0.00     0.132 C 
BRANCH   7   8
HETATM    8  C3  UNL     1      14.953   4.919  16.274  1.00  0.00    -0.100 C 
HETATM    9  C2  UNL     1      14.841   6.098  16.042  1.00  0.00    -0.080 C 
BRANCH   9  10
HETATM   10  C1  UNL     1      14.690   7.538  15.779  1.00  0.00     0.257 C 
BRANCH  10  11
HETATM   11  O1  UNL     1      13.868   7.768  14.666  1.00  0.00    -0.389 OA
ATOM     12  H1  UNL     1      13.279   8.498  14.818  1.00  0.00     0.210 HD
ENDBRANCH  10  11
ENDBRANCH   9  10
ENDBRANCH   7   8
ENDBRANCH   1   7
TORSDOF 4
ENDMDL
MODEL 5
REMARK VINA RESULT: -5.228502688      2.608      5.596
REMARK  4 active torsions:
REMARK  status: ('A' for Active; 'I' for Inactive)
REMARK    1  A    between atoms: O1_1  and  C1_3 
REMARK    2  A    between atoms: C1_3  and  C2_4 
REMARK    3  A    between atoms: C3_5  and  C4_6 
REMARK    4  A    between atoms: C4_6  and  C5_7 
ROOT
HETATM    1  C5  UNL     1      15.229   6.894  15.630  1.00  0.00    -0.047 A 
HETATM    2  C6  UNL     1      16.138   7.515  16.469  1.00  0.00     0.008 A 
HETATM    3  C7  UNL     1      15.978   8.807  16.892  1.00  0.00     0.001 A 
HETATM    4  C8  UNL     1      14.879   9.541  16.481  1.00  0.00     0.000 A 
HETATM    5  C9  UNL     1      13.969   8.946  15.652  1.00  0.00     0.001 A 
HETATM    6  C10 UNL     1      14.144   7.648  15.236  1.00  0.00     0.008 A 
ENDROOT
BRANCH   1   7
HETATM    7  C4  UNL     1      15.462   5.499  15.213  1.00  0.00     0.132 C 
BRANCH   7   8
HETATM    8  C3  UNL     1      14.354   4.616  15.647  1.00  0.00    -0.100 C 
HETATM    9  C2  UNL     1      13.464   3.884  16.008  1.00  0.00    -0.080 C 
BRANCH   9  10
HETATM   10  C1  UNL     1      12.396   2.977  16.457  1.00  0.00     0.257 C 
BRANCH  10  11
HETATM   11  O1  UNL     1      12.925   1.779  16.960  1.00  0.00    -0.389 OA
ATOM     12  H1  UNL     1      12.449   1.026  16.627  1.00  0.00     0.210 HD
ENDBRANCH  10  11
ENDBRANCH   9  10
ENDBRANCH   7   8
ENDBRANCH   1   7
TORSDOF 4
ENDMDL
