MODEL 1
REMARK VINA RESULT: -7.199135942      0.000      0.000
REMARK  1 active torsions:
REMARK  status: ('A' for Active; 'I' for Inactive)
REMARK    1  A    between atoms: C1_4  and  C2_5 
ROOT
HETATM    1  C2  UNL     1      14.753   4.696  15.133  1.00  0.00     0.143 A 
HETATM    2  N2  UNL     1      15.602   4.215  14.200  1.00  0.00    -0.282 N 
ATOM      3  H2  UNL     1      16.410   4.718  13.835  1.00  0.00     0.188 HD
HETATM    4  N3  UNL     1      15.238   3.007  13.828  1.00  0.00    -0.283 N 
ATOM      5  H3  UNL     1      15.716   2.430  13.136  1.00  0.00     0.188 HD
HETATM    6  C3  UNL     1      14.120   2.652  14.518  1.00  0.00     0.127 A 
HETATM    7  C4  UNL     1      13.351   1.505  14.498  1.00  0.00     0.050 A 
HETATM    8  C5  UNL     1      12.254   1.419  15.318  1.00  0.00     0.005 A 
HETATM    9  C6  UNL     1      11.974   2.502  16.130  1.00  0.00     0.018 A 
HETATM   10  C7  UNL     1      12.763   3.625  16.121  1.00  0.00     0.100 A 
HETATM   11  N4  UNL     1      13.849   3.701  15.305  1.00  0.00    -0.291 N 
ENDROOT
BRANCH   1  12
HETATM   12  C1  UNL     1      14.773   5.973  15.815  1.00  0.00     0.131 C 
HETATM   13  N1  UNL     1      14.020   6.914  15.399  1.00  0.00    -0.405 N 
ATOM     14  H12 UNL     1      13.416   6.752  14.594  1.00  0.00     0.155 HD
ATOM     15  H11 UNL     1      14.034   7.814  15.879  1.00  0.00     0.155 HD
ENDBRANCH   1  12
TORSDOF 1
ENDMDL
MODEL 2
REMARK VINA RESULT: -7.100925055      0.965      1.027
REMARK  1 active torsions:
REMARK  status: ('A' for Active; 'I' for Inactive)
REMARK    1  A    between atoms: C1_4  and  C2_5 
ROOT
HETATM    1  C2  UNL     1      15.003   3.953  14.767  1.00  0.00     0.143 A 
HETATM    2  N2  UNL     1      15.429   3.190  13.738  1.00  0.00    -0.282 N 
ATOM      3  H2  UNL     1      16.249   3.390  13.166  1.00  0.00     0.188 HD
HETATM    4  N3  UNL     1      14.637   2.151  13.578  1.00  0.00    -0.283 N 
ATOM      5  H3  UNL     1      14.746   1.425  12.870  1.00  0.00     0.188 HD
HETATM    6  C3  UNL     1      13.650   2.204  14.513  1.00  0.00     0.127 A 
HETATM    7  C4  UNL     1      12.582   1.367  14.771  1.00  0.00     0.050 A 
HETATM    8  C5  UNL     1      11.725   1.671  15.800  1.00  0.00     0.005 A 
HETATM    9  C6  UNL     1      11.982   2.815  16.531  1.00  0.00     0.018 A 
HETATM   10  C7  UNL     1      13.055   3.621  16.244  1.00  0.00     0.100 A 
HETATM   11  N4  UNL     1      13.899   3.311  15.222  1.00  0.00    -0.291 N 
ENDROOT
BRANCH   1  12
HETATM   12  C1  UNL     1      15.568   5.179  15.290  1.00  0.00     0.131 C 
HETATM   13  N1  UNL     1      15.820   6.141  14.491  1.00  0.00    -0.405 N 
ATOM     14  H12 UNL     1      15.619   6.031  13.497  1.00  0.00     0.155 HD
ATOM     15  H11 UNL     1      16.217   7.005  14.860  1.00  0.00     0.155 HD
ENDBRANCH   1  12
TORSDOF 1
ENDMDL
MODEL 3
REMARK VINA RESULT: -7.002519935      1.635      3.635
REMARK  1 active torsions:
REMARK  status: ('A' for Active; 'I' for Inactive)
REMARK    1  A    between atoms: C1_4  and  C2_5 
ROOT
HETATM    1  C2  UNL     1      12.743   2.207  15.414  1.00  0.00     0.143 A 
HETATM    2  N2  UNL     1      13.361   1.292  14.636  1.00  0.00    -0.282 N 
ATOM      3  H2  UNL     1      13.012   0.351  14.456  1.00  0.00     0.188 HD
HETATM    4  N3  UNL     1      14.477   1.786  14.145  1.00  0.00    -0.283 N 
ATOM      5  H3  UNL     1      15.123   1.293  13.528  1.00  0.00     0.188 HD
HETATM    6  C3  UNL     1      14.628   3.062  14.594  1.00  0.00     0.127 A 
HETATM    7  C4  UNL     1      15.615   4.003  14.375  1.00  0.00     0.050 A 
HETATM    8  C5  UNL     1      15.507   5.237  14.969  1.00  0.00     0.005 A 
HETATM    9  C6  UNL     1      14.402   5.472  15.764  1.00  0.00     0.018 A 
HETATM   10  C7  UNL     1      13.442   4.509  15.956  1.00  0.00     0.100 A 
HETATM   11  N4  UNL     1      13.557   3.290  15.364  1.00  0.00    -0.291 N 
ENDROOT
BRANCH   1  12
HETATM   12  C1  UNL     1      11.500   2.092  16.147  1.00  0.00     0.131 C 
HETATM   13  N1  UNL     1      11.480   1.444  17.244  1.00  0.00    -0.405 N 
ATOM     14  H12 UNL     1      12.339   1.015  17.588  1.00  0.00     0.155 HD
ATOM     15  H11 UNL     1      10.604   1.363  17.761  1.00  0.00     0.155 HD
ENDBRANCH   1  12
TORSDOF 1
ENDMDL
MODEL 4
REMARK VINA RESULT: -6.406440032      1.055      1.371
REMARK  1 active torsions:
REMARK  status: ('A' for Active; 'I' for Inactive)
REMARK    1  A    between atoms: C1_4  and  C2_5 
ROOT
HETATM    1  C2  UNL     1      14.996   6.003  15.247  1.00  0.00     0.143 A 
HETATM    2  N2  UNL     1      15.923   5.825  14.282  1.00  0.00    -0.282 N 
ATOM      3  H2  UNL     1      16.576   6.540  13.964  1.00  0.00     0.188 HD
HETATM    4  N3  UNL     1      15.864   4.598  13.810  1.00  0.00    -0.283 N 
ATOM      5  H3  UNL     1      16.460   4.216  13.076  1.00  0.00     0.188 HD
HETATM    6  C3  UNL     1      14.878   3.923  14.462  1.00  0.00     0.127 A 
HETATM    7  C4  UNL     1      14.418   2.627  14.344  1.00  0.00     0.050 A 
HETATM    8  C5  UNL     1      13.387   2.206  15.147  1.00  0.00     0.005 A 
HETATM    9  C6  UNL     1      12.860   3.116  16.044  1.00  0.00     0.018 A 
HETATM   10  C7  UNL     1      13.347   4.396  16.132  1.00  0.00     0.100 A 
HETATM   11  N4  UNL     1      14.368   4.805  15.331  1.00  0.00    -0.291 N 
ENDROOT
BRANCH   1  12
HETATM   12  C1  UNL     1      14.709   7.186  16.031  1.00  0.00     0.131 C 
HETATM   13  N1  UNL     1      14.131   8.178  15.476  1.00  0.00    -0.405 N 
ATOM     14  H12 UNL     1      13.881   8.122  14.489  1.00  0.00     0.155 HD
ATOM     15  H11 UNL     1      13.929   9.011  16.028  1.00  0.00     0.155 HD
ENDBRANCH   1  12
TORSDOF 1
ENDMDL
MODEL 5
REMARK VINA RESULT: -6.210243718      1.183      2.273
REMARK  1 active torsions:
REMARK  status: ('A' for Active; 'I' for Inactive)
REMARK    1  A    between atoms: C1_4  and  C2_5 
ROOT
HETATM    1  C2  UNL     1      14.569   5.155  15.316  1.00  0.00     0.143 A 
HETATM    2  N2  UNL     1      13.463   5.537  15.989  1.00  0.00    -0.282 N 
ATOM      3  H2  UNL     1      13.300   6.474  16.355  1.00  0.00     0.188 HD
HETATM    4  N3  UNL     1      12.625   4.529  16.106  1.00  0.00    -0.283 N 
ATOM      5  H3  UNL     1      11.718   4.562  16.572  1.00  0.00     0.188 HD
HETATM    6  C3  UNL     1      13.167   3.435  15.503  1.00  0.00     0.127 A 
HETATM    7  C4  UNL     1      12.701   2.145  15.348  1.00  0.00     0.050 A 
HETATM    8  C5  UNL     1      13.475   1.228  14.681  1.00  0.00     0.005 A 
HETATM    9  C6  UNL     1      14.696   1.653  14.195  1.00  0.00     0.018 A 
HETATM   10  C7  UNL     1      15.124   2.946  14.369  1.00  0.00     0.100 A 
HETATM   11  N4  UNL     1      14.350   3.847  15.031  1.00  0.00    -0.291 N 
ENDROOT
BRANCH   1  12
HETATM   12  C1  UNL     1      15.737   5.932  14.962  1.00  0.00     0.131 C 
HETATM   13  N1  UNL     1      15.942   7.050  15.540  1.00  0.00    -0.405 N 
ATOM     14  H12 UNL     1      15.279   7.379  16.243  1.00  0.00     0.155 HD
ATOM     15  H11 UNL     1      16.765   7.598  15.292  1.00  0.00     0.155 HD
ENDBRANCH   1  12
TORSDOF 1
ENDMDL
