MODEL 1
REMARK VINA RESULT: -6.542822604      0.000      0.000
REMARK  3 active torsions:
REMARK  status: ('A' for Active; 'I' for Inactive)
REMARK    1  A    between atoms: C2_2  and  N1_3 
REMARK    2  A    between atoms: C2_2  and  C3_7 
REMARK    3  A    between atoms: C3_7  and  N2_8 
ROOT
HETATM    1  C3  UNL     1      13.981   4.939  16.115  1.00  0.00     0.160 C 
ENDROOT
BRANCH   1   2
HETATM    2  C2  UNL     1      14.591   5.862  15.089  1.00  0.00     0.197 C 
HETATM    3  C1  UNL     1      16.054   6.093  15.312  1.00  0.00     0.041 C 
BRANCH   2   4
HETATM    4  N1  UNL     1      13.896   7.132  15.196  1.00  0.00    -0.074 N 
ATOM      5  H13 UNL     1      13.228   7.147  15.966  1.00  0.00     0.274 HD
ATOM      6  H12 UNL     1      14.504   7.882  15.523  1.00  0.00     0.274 HD
ATOM      7  H11 UNL     1      13.462   7.344  14.298  1.00  0.00     0.274 HD
ENDBRANCH   2   4
ENDBRANCH   1   2
BRANCH   1   8
HETATM    8  N2  UNL     1      13.503   3.707  15.576  1.00  0.00    -0.364 N 
HETATM    9  C4  UNL     1      14.080   3.206  14.472  1.00  0.00     0.090 A 
HETATM   10  C5  UNL     1      13.612   2.021  13.961  1.00  0.00     0.017 A 
HETATM   11  C6  UNL     1      12.571   1.363  14.574  1.00  0.00     0.003 A 
HETATM   12  C7  UNL     1      12.005   1.898  15.692  1.00  0.00     0.017 A 
HETATM   13  C8  UNL     1      12.484   3.087  16.196  1.00  0.00     0.090 A 
ENDBRANCH   1   8
TORSDOF 3
ENDMDL
MODEL 2
REMARK VINA RESULT: -6.521490815      0.024      1.492
REMARK  3 active torsions:
REMARK  status: ('A' for Active; 'I' for Inactive)
REMARK    1  A    between atoms: C2_2  and  N1_3 
REMARK    2  A    between atoms: C2_2  and  C3_7 
REMARK    3  A    between atoms: C3_7  and  N2_8 
ROOT
HETATM    1  C3  UNL     1      13.976   4.951  16.133  1.00  0.00     0.160 C 
ENDROOT
BRANCH   1   2
HETATM    2  C2  UNL     1      14.593   5.865  15.104  1.00  0.00     0.197 C 
HETATM    3  C1  UNL     1      16.055   6.099  15.335  1.00  0.00     0.041 C 
BRANCH   2   4
HETATM    4  N1  UNL     1      13.897   7.136  15.194  1.00  0.00    -0.074 N 
ATOM      5  H13 UNL     1      13.624   7.496  14.281  1.00  0.00     0.274 HD
ATOM      6  H12 UNL     1      12.964   7.042  15.594  1.00  0.00     0.274 HD
ATOM      7  H11 UNL     1      14.480   7.792  15.715  1.00  0.00     0.274 HD
ENDBRANCH   2   4
ENDBRANCH   1   2
BRANCH   1   8
HETATM    8  N2  UNL     1      13.496   3.718  15.601  1.00  0.00    -0.364 N 
HETATM    9  C4  UNL     1      12.476   3.093  16.212  1.00  0.00     0.090 A 
HETATM   10  C5  UNL     1      12.021   1.907  15.693  1.00  0.00     0.017 A 
HETATM   11  C6  UNL     1      12.603   1.372  14.566  1.00  0.00     0.003 A 
HETATM   12  C7  UNL     1      13.637   2.029  13.969  1.00  0.00     0.017 A 
HETATM   13  C8  UNL     1      14.084   3.220  14.499  1.00  0.00     0.090 A 
ENDBRANCH   1   8
TORSDOF 3
ENDMDL
MODEL 3
REMARK VINA RESULT: -5.939983588      1.097      1.661
REMARK  3 active torsions:
REMARK  status: ('A' for Active; 'I' for Inactive)
REMARK    1  A    between atoms: C2_2  and  N1_3 
REMARK    2  A    between atoms: C2_2  and  C3_7 
REMARK    3  A    between atoms: C3_7  and  N2_8 
ROOT
HETATM    1  C3  UNL     1      13.826   5.152  15.967  1.00  0.00     0.160 C 
ENDROOT
BRANCH   1   2
HETATM    2  C2  UNL     1      14.610   6.068  15.063  1.00  0.00     0.197 C 
HETATM    3  C1  UNL     1      16.060   6.150  15.434  1.00  0.00     0.041 C 
BRANCH   2   4
HETATM    4  N1  UNL     1      14.023   7.390  15.184  1.00  0.00    -0.074 N 
ATOM      5  H13 UNL     1      13.437   7.630  14.385  1.00  0.00     0.274 HD
ATOM      6  H12 UNL     1      13.302   7.431  15.905  1.00  0.00     0.274 HD
ATOM      7  H11 UNL     1      14.769   8.068  15.339  1.00  0.00     0.274 HD
ENDBRANCH   2   4
ENDBRANCH   1   2
BRANCH   1   8
HETATM    8  N2  UNL     1      13.967   3.767  15.655  1.00  0.00    -0.364 N 
HETATM    9  C4  UNL     1      14.078   2.877  16.656  1.00  0.00     0.090 A 
HETATM   10  C5  UNL     1      14.214   1.547  16.345  1.00  0.00     0.017 A 
HETATM   11  C6  UNL     1      14.235   1.138  15.032  1.00  0.00     0.003 A 
HETATM   12  C7  UNL     1      14.120   2.065  14.039  1.00  0.00     0.017 A 
HETATM   13  C8  UNL     1      13.984   3.397  14.363  1.00  0.00     0.090 A 
ENDBRANCH   1   8
TORSDOF 3
ENDMDL
MODEL 4
REMARK VINA RESULT: -5.927684125      1.094      1.094
REMARK  3 active torsions:
REMARK  status: ('A' for Active; 'I' for Inactive)
REMARK    1  A    between atoms: C2_2  and  N1_3 
REMARK    2  A    between atoms: C2_2  and  C3_7 
REMARK    3  A    between atoms: C3_7  and  N2_8 
ROOT
HETATM    1  C3  UNL     1      13.878   5.170  15.965  1.00  0.00     0.160 C 
ENDROOT
BRANCH   1   2
HETATM    2  C2  UNL     1      14.647   6.093  15.053  1.00  0.00     0.197 C 
HETATM    3  C1  UNL     1      16.091   6.218  15.436  1.00  0.00     0.041 C 
BRANCH   2   4
HETATM    4  N1  UNL     1      14.024   7.400  15.148  1.00  0.00    -0.074 N 
ATOM      5  H13 UNL     1      13.035   7.379  14.900  1.00  0.00     0.274 HD
ATOM      6  H12 UNL     1      13.920   7.713  16.113  1.00  0.00     0.274 HD
ATOM      7  H11 UNL     1      14.556   8.059  14.579  1.00  0.00     0.274 HD
ENDBRANCH   2   4
ENDBRANCH   1   2
BRANCH   1   8
HETATM    8  N2  UNL     1      13.996   3.789  15.628  1.00  0.00    -0.364 N 
HETATM    9  C4  UNL     1      14.013   3.429  14.334  1.00  0.00     0.090 A 
HETATM   10  C5  UNL     1      14.127   2.097  14.020  1.00  0.00     0.017 A 
HETATM   11  C6  UNL     1      14.222   1.153  15.016  1.00  0.00     0.003 A 
HETATM   12  C7  UNL     1      14.201   1.550  16.319  1.00  0.00     0.017 A 
HETATM   13  C8  UNL     1      14.087   2.890  16.623  1.00  0.00     0.090 A 
ENDBRANCH   1   8
TORSDOF 3
ENDMDL
MODEL 5
REMARK VINA RESULT: -5.627502205      1.277      2.023
REMARK  3 active torsions:
REMARK  status: ('A' for Active; 'I' for Inactive)
REMARK    1  A    between atoms: C2_2  and  N1_3 
REMARK    2  A    between atoms: C2_2  and  C3_7 
REMARK    3  A    between atoms: C3_7  and  N2_8 
ROOT
HETATM    1  C3  UNL     1      15.618   3.935  15.618  1.00  0.00     0.160 C 
ENDROOT
BRANCH   1   2
HETATM    2  C2  UNL     1      15.443   5.427  15.490  1.00  0.00     0.197 C 
HETATM    3  C1  UNL     1      14.019   5.862  15.663  1.00  0.00     0.041 C 
BRANCH   2   4
HETATM    4  N1  UNL     1      15.884   5.794  14.157  1.00  0.00    -0.074 N 
ATOM      5  H13 UNL     1      15.481   6.676  13.842  1.00  0.00     0.274 HD
ATOM      6  H12 UNL     1      16.865   6.071  14.134  1.00  0.00     0.274 HD
ATOM      7  H11 UNL     1      15.681   5.022  13.521  1.00  0.00     0.274 HD
ENDBRANCH   2   4
ENDBRANCH   1   2
BRANCH   1   8
HETATM    8  N2  UNL     1      14.393   3.204  15.621  1.00  0.00    -0.364 N 
HETATM    9  C4  UNL     1      13.631   3.207  16.727  1.00  0.00     0.090 A 
HETATM   10  C5  UNL     1      12.454   2.500  16.720  1.00  0.00     0.017 A 
HETATM   11  C6  UNL     1      12.067   1.804  15.599  1.00  0.00     0.003 A 
HETATM   12  C7  UNL     1      12.863   1.819  14.493  1.00  0.00     0.017 A 
HETATM   13  C8  UNL     1      14.042   2.533  14.511  1.00  0.00     0.090 A 
ENDBRANCH   1   8
TORSDOF 3
ENDMDL
