MODEL 1
REMARK VINA RESULT: -6.252329603      0.000      0.000
REMARK  2 active torsions:
REMARK  status: ('A' for Active; 'I' for Inactive)
REMARK    1  A    between atoms: N1_1  and  N2_4 
REMARK    2  A    between atoms: N2_4  and  N3_6 
ROOT
HETATM    1  N3  UNL     1      16.107  18.227  10.270  1.00  0.00    -0.275 N 
ATOM      2  H3  UNL     1      15.685  17.674   9.523  1.00  0.00     0.189 HD
HETATM    3  C1  UNL     1      15.426  18.452  11.342  1.00  0.00     0.093 C 
HETATM    4  C2  UNL     1      14.045  17.952  11.562  1.00  0.00     0.079 C 
HETATM    5  C3  UNL     1      13.788  18.102  13.038  1.00  0.00     0.027 C 
HETATM    6  C4  UNL     1      15.019  18.728  13.642  1.00  0.00     0.121 C 
HETATM    7  N4  UNL     1      15.781  19.184  12.510  1.00  0.00    -0.379 N 
ATOM      8  H4  UNL     1      16.479  19.927  12.541  1.00  0.00     0.160 HD
ENDROOT
BRANCH   1   9
HETATM    9  N2  UNL     1      17.408  18.717  10.100  1.00  0.00    -0.248 N 
ATOM     10  H2  UNL     1      17.951  19.043  10.900  1.00  0.00     0.207 HD
BRANCH   9  11
HETATM   11  N1  UNL     1      17.903  18.747   8.910  1.00  0.00    -0.331 N 
ATOM     12  H12 UNL     1      17.525  19.395   8.220  1.00  0.00     0.178 HD
ATOM     13  H11 UNL     1      18.671  18.113   8.687  1.00  0.00     0.178 HD
ENDBRANCH   9  11
ENDBRANCH   1   9
TORSDOF 2
ENDMDL
MODEL 2
REMARK VINA RESULT: -6.078617267      1.120      1.564
REMARK  2 active torsions:
REMARK  status: ('A' for Active; 'I' for Inactive)
REMARK    1  A    between atoms: N1_1  and  N2_4 
REMARK    2  A    between atoms: N2_4  and  N3_6 
ROOT
HETATM    1  N3  UNL     1      16.878  19.011  10.396  1.00  0.00    -0.275 N 
ATOM      2  H3  UNL     1      17.357  19.880  10.633  1.00  0.00     0.189 HD
HETATM    3  C1  UNL     1      15.946  18.579  11.177  1.00  0.00     0.093 C 
HETATM    4  C2  UNL     1      15.520  19.276  12.416  1.00  0.00     0.079 C 
HETATM    5  C3  UNL     1      14.195  18.665  12.792  1.00  0.00     0.027 C 
HETATM    6  C4  UNL     1      13.898  17.590  11.778  1.00  0.00     0.121 C 
HETATM    7  N4  UNL     1      15.139  17.411  11.072  1.00  0.00    -0.379 N 
ATOM      8  H4  UNL     1      15.403  16.565  10.567  1.00  0.00     0.160 HD
ENDROOT
BRANCH   1   9
HETATM    9  N2  UNL     1      17.252  18.323   9.235  1.00  0.00    -0.248 N 
ATOM     10  H2  UNL     1      16.689  17.548   8.883  1.00  0.00     0.207 HD
BRANCH   9  11
HETATM   11  N1  UNL     1      18.324  18.691   8.621  1.00  0.00    -0.331 N 
ATOM     12  H12 UNL     1      18.819  19.530   8.924  1.00  0.00     0.178 HD
ATOM     13  H11 UNL     1      18.654  18.127   7.838  1.00  0.00     0.178 HD
ENDBRANCH   9  11
ENDBRANCH   1   9
TORSDOF 2
ENDMDL
MODEL 3
REMARK VINA RESULT: -5.849604276      1.218      1.383
REMARK  2 active torsions:
REMARK  status: ('A' for Active; 'I' for Inactive)
REMARK    1  A    between atoms: N1_1  and  N2_4 
REMARK    2  A    between atoms: N2_4  and  N3_6 
ROOT
HETATM    1  N3  UNL     1      17.294  17.864  10.162  1.00  0.00    -0.275 N 
ATOM      2  H3  UNL     1      17.686  16.924  10.225  1.00  0.00     0.189 HD
HETATM    3  C1  UNL     1      16.409  18.231  11.026  1.00  0.00     0.093 C 
HETATM    4  C2  UNL     1      15.916  17.360  12.122  1.00  0.00     0.079 C 
HETATM    5  C3  UNL     1      15.218  18.279  13.090  1.00  0.00     0.027 C 
HETATM    6  C4  UNL     1      15.286  19.668  12.511  1.00  0.00     0.121 C 
HETATM    7  N4  UNL     1      15.719  19.470  11.153  1.00  0.00    -0.379 N 
ATOM      8  H4  UNL     1      15.556  20.125  10.389  1.00  0.00     0.160 HD
ENDROOT
BRANCH   1   9
HETATM    9  N2  UNL     1      17.733  18.716   9.141  1.00  0.00    -0.248 N 
ATOM     10  H2  UNL     1      17.064  19.233   8.570  1.00  0.00     0.207 HD
BRANCH   9  11
HETATM   11  N1  UNL     1      19.001  18.830   8.939  1.00  0.00    -0.331 N 
ATOM     12  H12 UNL     1      19.659  18.435   9.610  1.00  0.00     0.178 HD
ATOM     13  H11 UNL     1      19.317  19.319   8.101  1.00  0.00     0.178 HD
ENDBRANCH   9  11
ENDBRANCH   1   9
TORSDOF 2
ENDMDL
MODEL 4
REMARK VINA RESULT: -5.578201782      1.304      1.636
REMARK  2 active torsions:
REMARK  status: ('A' for Active; 'I' for Inactive)
REMARK    1  A    between atoms: N1_1  and  N2_4 
REMARK    2  A    between atoms: N2_4  and  N3_6 
ROOT
HETATM    1  N3  UNL     1      17.608  17.308   9.702  1.00  0.00    -0.275 N 
ATOM      2  H3  UNL     1      17.543  16.354   9.347  1.00  0.00     0.189 HD
HETATM    3  C1  UNL     1      16.625  17.788  10.386  1.00  0.00     0.093 C 
HETATM    4  C2  UNL     1      15.386  17.031  10.693  1.00  0.00     0.079 C 
HETATM    5  C3  UNL     1      14.705  17.793  11.799  1.00  0.00     0.027 C 
HETATM    6  C4  UNL     1      15.549  19.009  12.085  1.00  0.00     0.121 C 
HETATM    7  N4  UNL     1      16.471  19.072  10.982  1.00  0.00    -0.379 N 
ATOM      8  H4  UNL     1      16.949  19.918  10.671  1.00  0.00     0.160 HD
ENDROOT
BRANCH   1   9
HETATM    9  N2  UNL     1      18.761  18.057   9.433  1.00  0.00    -0.248 N 
ATOM     10  H2  UNL     1      19.580  17.987  10.036  1.00  0.00     0.207 HD
BRANCH   9  11
HETATM   11  N1  UNL     1      18.762  18.835   8.406  1.00  0.00    -0.331 N 
ATOM     12  H12 UNL     1      19.494  18.744   7.701  1.00  0.00     0.178 HD
ATOM     13  H11 UNL     1      18.021  19.531   8.322  1.00  0.00     0.178 HD
ENDBRANCH   9  11
ENDBRANCH   1   9
TORSDOF 2
ENDMDL
MODEL 5
REMARK VINA RESULT: -5.362221145      1.144      1.151
REMARK  2 active torsions:
REMARK  status: ('A' for Active; 'I' for Inactive)
REMARK    1  A    between atoms: N1_1  and  N2_4 
REMARK    2  A    between atoms: N2_4  and  N3_6 
ROOT
HETATM    1  N3  UNL     1      16.064  17.667  11.092  1.00  0.00    -0.275 N 
ATOM      2  H3  UNL     1      15.875  16.665  11.059  1.00  0.00     0.189 HD
HETATM    3  C1  UNL     1      15.125  18.468  11.467  1.00  0.00     0.093 C 
HETATM    4  C2  UNL     1      13.766  18.018  11.860  1.00  0.00     0.079 C 
HETATM    5  C3  UNL     1      13.141  19.187  12.576  1.00  0.00     0.027 C 
HETATM    6  C4  UNL     1      14.143  20.312  12.548  1.00  0.00     0.121 C 
HETATM    7  N4  UNL     1      15.134  19.886  11.596  1.00  0.00    -0.379 N 
ATOM      8  H4  UNL     1      15.757  20.512  11.085  1.00  0.00     0.160 HD
ENDROOT
BRANCH   1   9
HETATM    9  N2  UNL     1      17.335  18.131  10.728  1.00  0.00    -0.248 N 
ATOM     10  H2  UNL     1      18.086  18.187  11.415  1.00  0.00     0.207 HD
BRANCH   9  11
HETATM   11  N1  UNL     1      17.531  18.487   9.505  1.00  0.00    -0.331 N 
ATOM     12  H12 UNL     1      16.736  18.614   8.879  1.00  0.00     0.178 HD
ATOM     13  H11 UNL     1      18.490  18.636   9.190  1.00  0.00     0.178 HD
ENDBRANCH   9  11
ENDBRANCH   1   9
TORSDOF 2
ENDMDL
