MODEL 1
REMARK VINA RESULT: -5.891576425      0.000      0.000
REMARK  1 active torsions:
REMARK  status: ('A' for Active; 'I' for Inactive)
REMARK    1  A    between atoms: C2_2  and  C3_3 
ROOT
HETATM    1  C3  UNL     1      15.098  18.572  11.644  1.00  0.00     0.250 C 
HETATM    2  C4  UNL     1      13.965  18.242  12.555  1.00  0.00     0.052 C 
HETATM    3  C5  UNL     1      13.150  19.506  12.440  1.00  0.00     0.039 C 
HETATM    4  C6  UNL     1      14.317  20.504  12.561  1.00  0.00     0.273 C 
HETATM    5  N1  UNL     1      15.460  19.590  12.647  1.00  0.00     0.097 N 
HETATM    6  C7  UNL     1      14.944  18.621  13.634  1.00  0.00     0.280 C 
ENDROOT
BRANCH   1   7
HETATM    7  C2  UNL     1      16.119  17.541  11.428  1.00  0.00    -0.001 C 
HETATM    8  C1  UNL     1      17.030  17.695  10.475  1.00  0.00     0.009 C 
ENDBRANCH   1   7
TORSDOF 1
ENDMDL
MODEL 2
REMARK VINA RESULT: -5.661998263      1.029      1.780
REMARK  1 active torsions:
REMARK  status: ('A' for Active; 'I' for Inactive)
REMARK    1  A    between atoms: C2_2  and  C3_3 
ROOT
HETATM    1  C3  UNL     1      15.765  18.189  12.023  1.00  0.00     0.250 C 
HETATM    2  C4  UNL     1      15.680  19.207  13.108  1.00  0.00     0.052 C 
HETATM    3  C5  UNL     1      14.653  18.560  14.004  1.00  0.00     0.039 C 
HETATM    4  C6  UNL     1      13.665  18.140  12.899  1.00  0.00     0.273 C 
HETATM    5  N1  UNL     1      14.382  18.581  11.699  1.00  0.00     0.097 N 
HETATM    6  C7  UNL     1      14.798  19.932  12.127  1.00  0.00     0.280 C 
ENDROOT
BRANCH   1   7
HETATM    7  C2  UNL     1      16.733  18.424  10.945  1.00  0.00    -0.001 C 
HETATM    8  C1  UNL     1      16.994  17.466  10.064  1.00  0.00     0.009 C 
ENDBRANCH   1   7
TORSDOF 1
ENDMDL
MODEL 3
REMARK VINA RESULT: -5.647451716      1.069      1.674
REMARK  1 active torsions:
REMARK  status: ('A' for Active; 'I' for Inactive)
REMARK    1  A    between atoms: C2_2  and  C3_3 
ROOT
HETATM    1  C3  UNL     1      16.000  18.573  11.865  1.00  0.00     0.250 C 
HETATM    2  C4  UNL     1      14.919  19.598  11.851  1.00  0.00     0.052 C 
HETATM    3  C5  UNL     1      14.994  20.089  13.276  1.00  0.00     0.039 C 
HETATM    4  C6  UNL     1      15.104  18.709  13.953  1.00  0.00     0.273 C 
HETATM    5  N1  UNL     1      15.126  17.824  12.784  1.00  0.00     0.097 N 
HETATM    6  C7  UNL     1      14.015  18.403  12.000  1.00  0.00     0.280 C 
ENDROOT
BRANCH   1   7
HETATM    7  C2  UNL     1      16.296  17.880  10.606  1.00  0.00    -0.001 C 
HETATM    8  C1  UNL     1      17.520  17.920  10.095  1.00  0.00     0.009 C 
ENDBRANCH   1   7
TORSDOF 1
ENDMDL
MODEL 4
REMARK VINA RESULT: -5.373976387      1.254      3.175
REMARK  1 active torsions:
REMARK  status: ('A' for Active; 'I' for Inactive)
REMARK    1  A    between atoms: C2_2  and  C3_3 
ROOT
HETATM    1  C3  UNL     1      14.743  19.287  12.004  1.00  0.00     0.250 C 
HETATM    2  C4  UNL     1      15.180  18.261  12.993  1.00  0.00     0.052 C 
HETATM    3  C5  UNL     1      16.170  17.487  12.158  1.00  0.00     0.039 C 
HETATM    4  C6  UNL     1      15.317  17.394  10.878  1.00  0.00     0.273 C 
HETATM    5  N1  UNL     1      14.132  18.161  11.274  1.00  0.00     0.097 N 
HETATM    6  C7  UNL     1      13.887  17.588  12.613  1.00  0.00     0.280 C 
ENDROOT
BRANCH   1   7
HETATM    7  C2  UNL     1      13.789  20.305  12.459  1.00  0.00    -0.001 C 
HETATM    8  C1  UNL     1      14.221  21.380  13.107  1.00  0.00     0.009 C 
ENDBRANCH   1   7
TORSDOF 1
ENDMDL
MODEL 5
REMARK VINA RESULT: -5.209938711      0.826      1.122
REMARK  1 active torsions:
REMARK  status: ('A' for Active; 'I' for Inactive)
REMARK    1  A    between atoms: C2_2  and  C3_3 
ROOT
HETATM    1  C3  UNL     1      15.398  18.575  11.219  1.00  0.00     0.250 C 
HETATM    2  C4  UNL     1      15.150  17.702  12.401  1.00  0.00     0.052 C 
HETATM    3  C5  UNL     1      13.665  17.903  12.576  1.00  0.00     0.039 C 
HETATM    4  C6  UNL     1      13.651  19.433  12.399  1.00  0.00     0.273 C 
HETATM    5  N1  UNL     1      15.066  19.696  12.117  1.00  0.00     0.097 N 
HETATM    6  C7  UNL     1      15.697  18.875  13.170  1.00  0.00     0.280 C 
ENDROOT
BRANCH   1   7
HETATM    7  C2  UNL     1      16.762  18.614  10.677  1.00  0.00    -0.001 C 
HETATM    8  C1  UNL     1      17.391  17.486  10.374  1.00  0.00     0.009 C 
ENDBRANCH   1   7
TORSDOF 1
ENDMDL
