MODEL 1
REMARK VINA RESULT: -6.507455399      0.000      0.000
REMARK  1 active torsions:
REMARK  status: ('A' for Active; 'I' for Inactive)
REMARK    1  A    between atoms: C2_2  and  C3_3 
ROOT
HETATM    1  C3  UNL     1      15.303  18.246  11.225  1.00  0.00     0.212 C 
HETATM    2  N1  UNL     1      14.287  17.359  11.831  1.00  0.00    -0.063 N 
ATOM      3  H11 UNL     1      14.612  16.423  12.073  1.00  0.00     0.278 HD
ATOM      4  H12 UNL     1      13.553  17.039  11.200  1.00  0.00     0.278 HD
HETATM    5  C4  UNL     1      13.848  18.158  12.927  1.00  0.00     0.187 C 
HETATM    6  C5  UNL     1      13.759  19.575  12.343  1.00  0.00     0.040 C 
HETATM    7  C6  UNL     1      15.275  19.374  12.205  1.00  0.00     0.024 C 
HETATM    8  C7  UNL     1      15.177  18.640  13.526  1.00  0.00     0.040 C 
ENDROOT
BRANCH   1   9
HETATM    9  C2  UNL     1      16.619  17.565  11.134  1.00  0.00    -0.004 C 
HETATM   10  C1  UNL     1      17.328  17.748  10.028  1.00  0.00     0.009 C 
ENDBRANCH   1   9
TORSDOF 1
ENDMDL
MODEL 2
REMARK VINA RESULT: -5.920852823      1.089      3.038
REMARK  1 active torsions:
REMARK  status: ('A' for Active; 'I' for Inactive)
REMARK    1  A    between atoms: C2_2  and  C3_3 
ROOT
HETATM    1  C3  UNL     1      14.204  18.586  12.550  1.00  0.00     0.212 C 
HETATM    2  N1  UNL     1      14.015  17.764  11.336  1.00  0.00    -0.063 N 
ATOM      3  H11 UNL     1      13.440  18.187  10.607  1.00  0.00     0.278 HD
ATOM      4  H12 UNL     1      13.422  16.942  11.451  1.00  0.00     0.278 HD
HETATM    5  C4  UNL     1      15.367  17.498  10.973  1.00  0.00     0.187 C 
HETATM    6  C5  UNL     1      16.061  17.210  12.311  1.00  0.00     0.040 C 
HETATM    7  C6  UNL     1      15.696  18.679  12.565  1.00  0.00     0.024 C 
HETATM    8  C7  UNL     1      16.012  18.886  11.099  1.00  0.00     0.040 C 
ENDROOT
BRANCH   1   9
HETATM    9  C2  UNL     1      13.524  19.898  12.417  1.00  0.00    -0.004 C 
HETATM   10  C1  UNL     1      14.149  20.964  12.902  1.00  0.00     0.009 C 
ENDBRANCH   1   9
TORSDOF 1
ENDMDL
MODEL 3
REMARK VINA RESULT: -5.919181717      1.237      1.683
REMARK  1 active torsions:
REMARK  status: ('A' for Active; 'I' for Inactive)
REMARK    1  A    between atoms: C2_2  and  C3_3 
ROOT
HETATM    1  C3  UNL     1      16.194  18.378  11.817  1.00  0.00     0.212 C 
HETATM    2  N1  UNL     1      15.712  19.707  11.387  1.00  0.00    -0.063 N 
ATOM      3  H11 UNL     1      15.480  19.789  10.397  1.00  0.00     0.278 HD
ATOM      4  H12 UNL     1      16.416  20.446  11.376  1.00  0.00     0.278 HD
HETATM    5  C4  UNL     1      14.627  19.909  12.290  1.00  0.00     0.187 C 
HETATM    6  C5  UNL     1      15.160  19.394  13.633  1.00  0.00     0.040 C 
HETATM    7  C6  UNL     1      15.176  18.064  12.866  1.00  0.00     0.024 C 
HETATM    8  C7  UNL     1      13.899  18.560  12.222  1.00  0.00     0.040 C 
ENDROOT
BRANCH   1   9
HETATM    9  C2  UNL     1      16.198  17.420  10.684  1.00  0.00    -0.004 C 
HETATM   10  C1  UNL     1      17.230  17.460   9.851  1.00  0.00     0.009 C 
ENDBRANCH   1   9
TORSDOF 1
ENDMDL
MODEL 4
REMARK VINA RESULT: -5.750572460      1.060      1.428
REMARK  1 active torsions:
REMARK  status: ('A' for Active; 'I' for Inactive)
REMARK    1  A    between atoms: C2_2  and  C3_3 
ROOT
HETATM    1  C3  UNL     1      15.642  17.859  11.777  1.00  0.00     0.212 C 
HETATM    2  N1  UNL     1      15.971  18.222  13.172  1.00  0.00    -0.063 N 
ATOM      3  H11 UNL     1      16.848  18.727  13.298  1.00  0.00     0.278 HD
ATOM      4  H12 UNL     1      16.227  17.443  13.778  1.00  0.00     0.278 HD
HETATM    5  C4  UNL     1      14.795  18.932  13.553  1.00  0.00     0.187 C 
HETATM    6  C5  UNL     1      13.650  18.109  12.947  1.00  0.00     0.040 C 
HETATM    7  C6  UNL     1      14.323  18.547  11.638  1.00  0.00     0.024 C 
HETATM    8  C7  UNL     1      14.577  19.860  12.349  1.00  0.00     0.040 C 
ENDROOT
BRANCH   1   9
HETATM    9  C2  UNL     1      16.678  18.358  10.839  1.00  0.00    -0.004 C 
HETATM   10  C1  UNL     1      17.222  17.481  10.004  1.00  0.00     0.009 C 
ENDBRANCH   1   9
TORSDOF 1
ENDMDL
MODEL 5
REMARK VINA RESULT: -5.677757193      1.458      3.160
REMARK  1 active torsions:
REMARK  status: ('A' for Active; 'I' for Inactive)
REMARK    1  A    between atoms: C2_2  and  C3_3 
ROOT
HETATM    1  C3  UNL     1      14.877  19.156  11.695  1.00  0.00     0.212 C 
HETATM    2  N1  UNL     1      16.178  19.201  10.995  1.00  0.00    -0.063 N 
ATOM      3  H11 UNL     1      16.882  19.805  11.418  1.00  0.00     0.278 HD
ATOM      4  H12 UNL     1      16.175  19.683  10.096  1.00  0.00     0.278 HD
HETATM    5  C4  UNL     1      16.509  17.816  10.945  1.00  0.00     0.187 C 
HETATM    6  C5  UNL     1      15.180  17.127  10.603  1.00  0.00     0.040 C 
HETATM    7  C6  UNL     1      14.789  17.691  11.977  1.00  0.00     0.024 C 
HETATM    8  C7  UNL     1      16.211  17.363  12.382  1.00  0.00     0.040 C 
ENDROOT
BRANCH   1   9
HETATM    9  C2  UNL     1      14.899  19.999  12.916  1.00  0.00    -0.004 C 
HETATM   10  C1  UNL     1      14.155  21.098  12.916  1.00  0.00     0.009 C 
ENDBRANCH   1   9
TORSDOF 1
ENDMDL
