MODEL 1
REMARK VINA RESULT: -6.631957086      0.000      0.000
REMARK  2 active torsions:
REMARK  status: ('A' for Active; 'I' for Inactive)
REMARK    1  A    between atoms: N2_4  and  N3_6 
REMARK    2  A    between atoms: C1_8  and  C2_9 
ROOT
HETATM    1  N3  UNL     1      17.200  18.663   9.761  1.00  0.00    -0.297 N 
ATOM      2  H3  UNL     1      16.602  19.286   9.218  1.00  0.00     0.187 HD
HETATM    3  C1  UNL     1      16.808  18.230  10.912  1.00  0.00     0.121 C 
ENDROOT
BRANCH   1   4
HETATM    4  N2  UNL     1      18.443  18.277   9.266  1.00  0.00    -0.250 N 
HETATM    5  N1  UNL     1      19.101  19.033   8.487  1.00  0.00    -0.331 N 
ATOM      6  H12 UNL     1      18.699  19.935   8.230  1.00  0.00     0.178 HD
ATOM      7  H11 UNL     1      20.012  18.751   8.124  1.00  0.00     0.178 HD
ATOM      8  H2  UNL     1      18.831  17.373   9.534  1.00  0.00     0.207 HD
ENDBRANCH   1   4
BRANCH   3   9
HETATM    9  C2  UNL     1      15.505  18.619  11.458  1.00  0.00     0.005 A 
HETATM   10  C3  UNL     1      15.201  19.801  12.098  1.00  0.00     0.039 A 
HETATM   11  C4  UNL     1      13.857  19.754  12.450  1.00  0.00     0.142 A 
HETATM   12  O1  UNL     1      13.405  18.610  12.039  1.00  0.00    -0.334 OA
HETATM   13  C5  UNL     1      14.330  17.896  11.446  1.00  0.00     0.154 A 
ENDBRANCH   3   9
TORSDOF 2
ENDMDL
MODEL 2
REMARK VINA RESULT: -6.555695300      1.009      1.009
REMARK  2 active torsions:
REMARK  status: ('A' for Active; 'I' for Inactive)
REMARK    1  A    between atoms: N2_4  and  N3_6 
REMARK    2  A    between atoms: C1_8  and  C2_9 
ROOT
HETATM    1  N3  UNL     1      17.072  18.846  10.045  1.00  0.00    -0.297 N 
ATOM      2  H3  UNL     1      17.050  19.770  10.478  1.00  0.00     0.187 HD
HETATM    3  C1  UNL     1      16.371  17.882  10.539  1.00  0.00     0.121 C 
ENDROOT
BRANCH   1   4
HETATM    4  N2  UNL     1      17.860  18.619   8.919  1.00  0.00    -0.250 N 
HETATM    5  N1  UNL     1      19.062  19.023   8.869  1.00  0.00    -0.331 N 
ATOM      6  H12 UNL     1      19.443  19.519   9.675  1.00  0.00     0.178 HD
ATOM      7  H11 UNL     1      19.640  18.857   8.044  1.00  0.00     0.178 HD
ATOM      8  H2  UNL     1      17.464  18.121   8.122  1.00  0.00     0.207 HD
ENDBRANCH   1   4
BRANCH   3   9
HETATM    9  C2  UNL     1      15.533  18.092  11.722  1.00  0.00     0.005 A 
HETATM   10  C3  UNL     1      15.861  18.822  12.844  1.00  0.00     0.039 A 
HETATM   11  C4  UNL     1      14.781  18.758  13.718  1.00  0.00     0.142 A 
HETATM   12  O1  UNL     1      13.877  18.033  13.137  1.00  0.00    -0.334 OA
HETATM   13  C5  UNL     1      14.262  17.611  11.958  1.00  0.00     0.154 A 
ENDBRANCH   3   9
TORSDOF 2
ENDMDL
MODEL 3
REMARK VINA RESULT: -6.486057803      0.693      1.242
REMARK  2 active torsions:
REMARK  status: ('A' for Active; 'I' for Inactive)
REMARK    1  A    between atoms: N2_4  and  N3_6 
REMARK    2  A    between atoms: C1_8  and  C2_9 
ROOT
HETATM    1  N3  UNL     1      17.038  18.776   9.971  1.00  0.00    -0.297 N 
ATOM      2  H3  UNL     1      16.467  19.411   9.412  1.00  0.00     0.187 HD
HETATM    3  C1  UNL     1      16.623  18.379  11.126  1.00  0.00     0.121 C 
ENDROOT
BRANCH   1   4
HETATM    4  N2  UNL     1      18.268  18.334   9.490  1.00  0.00    -0.250 N 
HETATM    5  N1  UNL     1      18.883  18.971   8.581  1.00  0.00    -0.331 N 
ATOM      6  H12 UNL     1      18.455  19.819   8.206  1.00  0.00     0.178 HD
ATOM      7  H11 UNL     1      19.784  18.648   8.229  1.00  0.00     0.178 HD
ATOM      8  H2  UNL     1      18.682  17.485   9.876  1.00  0.00     0.207 HD
ENDBRANCH   1   4
BRANCH   3   9
HETATM    9  C2  UNL     1      15.333  18.827  11.657  1.00  0.00     0.005 A 
HETATM   10  C3  UNL     1      14.178  18.079  11.752  1.00  0.00     0.039 A 
HETATM   11  C4  UNL     1      13.198  18.891  12.312  1.00  0.00     0.142 A 
HETATM   12  O1  UNL     1      13.751  20.043  12.530  1.00  0.00    -0.334 OA
HETATM   13  C5  UNL     1      15.009  20.067  12.165  1.00  0.00     0.154 A 
ENDBRANCH   3   9
TORSDOF 2
ENDMDL
MODEL 4
REMARK VINA RESULT: -6.470711325      1.176      1.249
REMARK  2 active torsions:
REMARK  status: ('A' for Active; 'I' for Inactive)
REMARK    1  A    between atoms: N2_4  and  N3_6 
REMARK    2  A    between atoms: C1_8  and  C2_9 
ROOT
HETATM    1  N3  UNL     1      17.124  18.918   9.996  1.00  0.00    -0.297 N 
ATOM      2  H3  UNL     1      17.250  19.909  10.207  1.00  0.00     0.187 HD
HETATM    3  C1  UNL     1      16.396  18.180  10.764  1.00  0.00     0.121 C 
ENDROOT
BRANCH   1   4
HETATM    4  N2  UNL     1      17.736  18.357   8.878  1.00  0.00    -0.250 N 
HETATM    5  N1  UNL     1      18.860  18.779   8.466  1.00  0.00    -0.331 N 
ATOM      6  H12 UNL     1      19.309  19.542   8.973  1.00  0.00     0.178 HD
ATOM      7  H11 UNL     1      19.309  18.367   7.647  1.00  0.00     0.178 HD
ATOM      8  H2  UNL     1      17.274  17.594   8.382  1.00  0.00     0.207 HD
ENDBRANCH   1   4
BRANCH   3   9
HETATM    9  C2  UNL     1      15.739  18.743  11.946  1.00  0.00     0.005 A 
HETATM   10  C3  UNL     1      15.100  19.962  12.030  1.00  0.00     0.039 A 
HETATM   11  C4  UNL     1      14.622  20.096  13.329  1.00  0.00     0.142 A 
HETATM   12  O1  UNL     1      14.963  19.018  13.963  1.00  0.00    -0.334 OA
HETATM   13  C5  UNL     1      15.624  18.182  13.200  1.00  0.00     0.154 A 
ENDBRANCH   3   9
TORSDOF 2
ENDMDL
MODEL 5
REMARK VINA RESULT: -6.427394950      1.216      1.475
REMARK  2 active torsions:
REMARK  status: ('A' for Active; 'I' for Inactive)
REMARK    1  A    between atoms: N2_4  and  N3_6 
REMARK    2  A    between atoms: C1_8  and  C2_9 
ROOT
HETATM    1  N3  UNL     1      17.220  18.904   9.958  1.00  0.00    -0.297 N 
ATOM      2  H3  UNL     1      17.462  19.833  10.302  1.00  0.00     0.187 HD
HETATM    3  C1  UNL     1      16.369  18.177  10.600  1.00  0.00     0.121 C 
ENDROOT
BRANCH   1   4
HETATM    4  N2  UNL     1      17.805  18.413   8.793  1.00  0.00    -0.250 N 
HETATM    5  N1  UNL     1      18.949  18.815   8.416  1.00  0.00    -0.331 N 
ATOM      6  H12 UNL     1      19.433  19.509   8.986  1.00  0.00     0.178 HD
ATOM      7  H11 UNL     1      19.378  18.456   7.563  1.00  0.00     0.178 HD
ATOM      8  H2  UNL     1      17.308  17.720   8.235  1.00  0.00     0.207 HD
ENDBRANCH   1   4
BRANCH   3   9
HETATM    9  C2  UNL     1      15.736  18.666  11.827  1.00  0.00     0.005 A 
HETATM   10  C3  UNL     1      15.654  18.001  13.032  1.00  0.00     0.039 A 
HETATM   11  C4  UNL     1      14.974  18.826  13.921  1.00  0.00     0.142 A 
HETATM   12  O1  UNL     1      14.679  19.909  13.271  1.00  0.00    -0.334 OA
HETATM   13  C5  UNL     1      15.102  19.874  12.031  1.00  0.00     0.154 A 
ENDBRANCH   3   9
TORSDOF 2
ENDMDL
