MODEL 1
REMARK VINA RESULT: -7.428141516      0.000      0.000
REMARK  7 active torsions:
REMARK  status: ('A' for Active; 'I' for Inactive)
REMARK    1  A    between atoms: C2_2  and  C4_4 
REMARK    2  A    between atoms: C4_4  and  C5_5 
REMARK    3  A    between atoms: C4_4  and  N2_13 
REMARK    4  A    between atoms: C5_5  and  C6_6 
REMARK    5  A    between atoms: C6_6  and  N1_7 
REMARK    6  A    between atoms: N2_13  and  O1_14 
REMARK    7  A    between atoms: N2_13  and  N3_16 
REMARK       I    between atoms: N3_16  and  C12_18 
ROOT
HETATM    1  C4  UNL     1      10.674  20.927  18.538  1.00  0.00     0.138 C 
ENDROOT
BRANCH   1   2
HETATM    2  C2  UNL     1      11.448  21.974  19.265  1.00  0.00     0.004 C 
HETATM    3  C1  UNL     1      12.551  21.307  20.122  1.00  0.00     0.012 C 
HETATM    4  C3  UNL     1      10.614  22.816  20.227  1.00  0.00     0.012 C 
ENDBRANCH   1   2
BRANCH   1   5
HETATM    5  C5  UNL     1      11.290  19.598  18.363  1.00  0.00     0.050 C 
BRANCH   5   6
HETATM    6  C6  UNL     1      10.496  18.453  17.901  1.00  0.00     0.130 C 
BRANCH   6   7
HETATM    7  N1  UNL     1      11.308  17.245  18.130  1.00  0.00    -0.366 N 
HETATM    8  C7  UNL     1      10.922  16.066  17.622  1.00  0.00     0.090 A 
HETATM    9  C8  UNL     1      11.668  14.910  17.821  1.00  0.00     0.017 A 
HETATM   10  C9  UNL     1      12.827  14.972  18.557  1.00  0.00     0.003 A 
HETATM   11  C10 UNL     1      13.222  16.181  19.078  1.00  0.00     0.017 A 
HETATM   12  C11 UNL     1      12.435  17.316  18.847  1.00  0.00     0.090 A 
ENDBRANCH   6   7
ENDBRANCH   5   6
ENDBRANCH   1   5
BRANCH   1  13
HETATM   13  N2  UNL     1      10.081  21.426  17.311  1.00  0.00    -0.194 N 
BRANCH  13  14
HETATM   14  O1  UNL     1       8.897  21.711  17.265  1.00  0.00    -0.272 OA
ATOM     15  H1  UNL     1       8.312  21.464  17.972  1.00  0.00     0.246 HD
ENDBRANCH  13  14
BRANCH  13  16
HETATM   16  N3  UNL     1      10.882  21.581  16.200  1.00  0.00    -0.252 N 
HETATM   17  C12 UNL     1      10.334  21.293  14.921  1.00  0.00     0.202 C 
HETATM   18  N4  UNL     1       9.079  21.512  14.649  1.00  0.00    -0.372 N 
HETATM   19  N5  UNL     1      11.135  20.756  13.896  1.00  0.00    -0.062 NA
ATOM     20  H42 UNL     1       8.499  21.902  15.392  1.00  0.00     0.158 HD
ATOM     21  H41 UNL     1       8.686  21.306  13.730  1.00  0.00     0.158 HD
ATOM     22  H3  UNL     1      11.847  21.895  16.294  1.00  0.00     0.192 HD
ENDBRANCH  13  16
ENDBRANCH   1  13
TORSDOF 7
ENDMDL
MODEL 2
REMARK VINA RESULT: -7.428020825      0.031      1.104
REMARK  7 active torsions:
REMARK  status: ('A' for Active; 'I' for Inactive)
REMARK    1  A    between atoms: C2_2  and  C4_4 
REMARK    2  A    between atoms: C4_4  and  C5_5 
REMARK    3  A    between atoms: C4_4  and  N2_13 
REMARK    4  A    between atoms: C5_5  and  C6_6 
REMARK    5  A    between atoms: C6_6  and  N1_7 
REMARK    6  A    between atoms: N2_13  and  O1_14 
REMARK    7  A    between atoms: N2_13  and  N3_16 
REMARK       I    between atoms: N3_16  and  C12_18 
ROOT
HETATM    1  C4  UNL     1      10.673  20.926  18.524  1.00  0.00     0.138 C 
ENDROOT
BRANCH   1   2
HETATM    2  C2  UNL     1      11.453  21.964  19.254  1.00  0.00     0.004 C 
HETATM    3  C1  UNL     1      12.530  21.286  20.134  1.00  0.00     0.012 C 
HETATM    4  C3  UNL     1      10.620  22.830  20.196  1.00  0.00     0.012 C 
ENDBRANCH   1   2
BRANCH   1   5
HETATM    5  C5  UNL     1      11.285  19.596  18.335  1.00  0.00     0.050 C 
BRANCH   5   6
HETATM    6  C6  UNL     1      10.486  18.458  17.864  1.00  0.00     0.130 C 
BRANCH   6   7
HETATM    7  N1  UNL     1      11.287  17.243  18.095  1.00  0.00    -0.366 N 
HETATM    8  C7  UNL     1      12.422  17.308  18.805  1.00  0.00     0.090 A 
HETATM    9  C8  UNL     1      13.198  16.178  19.039  1.00  0.00     0.017 A 
HETATM   10  C9  UNL     1      12.797  14.966  18.531  1.00  0.00     0.003 A 
HETATM   11  C10 UNL     1      11.633  14.900  17.804  1.00  0.00     0.017 A 
HETATM   12  C11 UNL     1      10.888  16.067  17.598  1.00  0.00     0.090 A 
ENDBRANCH   6   7
ENDBRANCH   5   6
ENDBRANCH   1   5
BRANCH   1  13
HETATM   13  N2  UNL     1      10.074  21.435  17.304  1.00  0.00    -0.194 N 
BRANCH  13  14
HETATM   14  O1  UNL     1       8.891  21.722  17.267  1.00  0.00    -0.272 OA
ATOM     15  H1  UNL     1       8.594  22.589  17.519  1.00  0.00     0.246 HD
ENDBRANCH  13  14
BRANCH  13  16
HETATM   16  N3  UNL     1      10.870  21.598  16.191  1.00  0.00    -0.252 N 
HETATM   17  C12 UNL     1      10.324  21.291  14.915  1.00  0.00     0.202 C 
HETATM   18  N4  UNL     1       9.065  21.484  14.644  1.00  0.00    -0.372 N 
HETATM   19  N5  UNL     1      11.133  20.762  13.891  1.00  0.00    -0.062 NA
ATOM     20  H42 UNL     1       8.479  21.867  15.386  1.00  0.00     0.158 HD
ATOM     21  H41 UNL     1       8.674  21.263  13.728  1.00  0.00     0.158 HD
ATOM     22  H3  UNL     1      11.829  21.931  16.280  1.00  0.00     0.192 HD
ENDBRANCH  13  16
ENDBRANCH   1  13
TORSDOF 7
ENDMDL
MODEL 3
REMARK VINA RESULT: -6.800269643      2.565      6.283
REMARK  7 active torsions:
REMARK  status: ('A' for Active; 'I' for Inactive)
REMARK    1  A    between atoms: C2_2  and  C4_4 
REMARK    2  A    between atoms: C4_4  and  C5_5 
REMARK    3  A    between atoms: C4_4  and  N2_13 
REMARK    4  A    between atoms: C5_5  and  C6_6 
REMARK    5  A    between atoms: C6_6  and  N1_7 
REMARK    6  A    between atoms: N2_13  and  O1_14 
REMARK    7  A    between atoms: N2_13  and  N3_16 
REMARK       I    between atoms: N3_16  and  C12_18 
ROOT
HETATM    1  C4  UNL     1      11.220  16.622  18.110  1.00  0.00     0.138 C 
ENDROOT
BRANCH   1   2
HETATM    2  C2  UNL     1      11.010  15.579  17.067  1.00  0.00     0.004 C 
HETATM    3  C1  UNL     1       9.577  15.693  16.494  1.00  0.00     0.012 C 
HETATM    4  C3  UNL     1      11.151  14.146  17.575  1.00  0.00     0.012 C 
ENDBRANCH   1   2
BRANCH   1   5
HETATM    5  C5  UNL     1      10.608  17.949  17.904  1.00  0.00     0.050 C 
BRANCH   5   6
HETATM    6  C6  UNL     1      11.342  19.020  17.218  1.00  0.00     0.130 C 
BRANCH   6   7
HETATM    7  N1  UNL     1      11.306  20.200  18.099  1.00  0.00    -0.366 N 
HETATM    8  C7  UNL     1      10.828  21.367  17.646  1.00  0.00     0.090 A 
HETATM    9  C8  UNL     1      10.783  22.497  18.455  1.00  0.00     0.017 A 
HETATM   10  C9  UNL     1      11.239  22.421  19.749  1.00  0.00     0.003 A 
HETATM   11  C10 UNL     1      11.729  21.224  20.213  1.00  0.00     0.017 A 
HETATM   12  C11 UNL     1      11.752  20.116  19.358  1.00  0.00     0.090 A 
ENDBRANCH   6   7
ENDBRANCH   5   6
ENDBRANCH   1   5
BRANCH   1  13
HETATM   13  N2  UNL     1      12.604  16.713  18.536  1.00  0.00    -0.194 N 
BRANCH  13  14
HETATM   14  O1  UNL     1      12.884  16.839  19.715  1.00  0.00    -0.272 OA
ATOM     15  H1  UNL     1      13.201  16.098  20.218  1.00  0.00     0.246 HD
ENDBRANCH  13  14
BRANCH  13  16
HETATM   16  N3  UNL     1      13.598  16.646  17.583  1.00  0.00    -0.252 N 
HETATM   17  C12 UNL     1      14.861  16.111  17.955  1.00  0.00     0.202 C 
HETATM   18  N4  UNL     1      14.968  15.158  18.837  1.00  0.00    -0.372 N 
HETATM   19  N5  UNL     1      16.049  16.597  17.380  1.00  0.00    -0.062 NA
ATOM     20  H42 UNL     1      14.106  14.806  19.254  1.00  0.00     0.158 HD
ATOM     21  H41 UNL     1      15.875  14.774  19.103  1.00  0.00     0.158 HD
ATOM     22  H3  UNL     1      13.431  16.973  16.632  1.00  0.00     0.192 HD
ENDBRANCH  13  16
ENDBRANCH   1  13
TORSDOF 7
ENDMDL
MODEL 4
REMARK VINA RESULT: -6.767206049      2.659      6.164
REMARK  7 active torsions:
REMARK  status: ('A' for Active; 'I' for Inactive)
REMARK    1  A    between atoms: C2_2  and  C4_4 
REMARK    2  A    between atoms: C4_4  and  C5_5 
REMARK    3  A    between atoms: C4_4  and  N2_13 
REMARK    4  A    between atoms: C5_5  and  C6_6 
REMARK    5  A    between atoms: C6_6  and  N1_7 
REMARK    6  A    between atoms: N2_13  and  O1_14 
REMARK    7  A    between atoms: N2_13  and  N3_16 
REMARK       I    between atoms: N3_16  and  C12_18 
ROOT
HETATM    1  C4  UNL     1      11.586  16.501  17.258  1.00  0.00     0.138 C 
ENDROOT
BRANCH   1   2
HETATM    2  C2  UNL     1      12.840  15.896  17.791  1.00  0.00     0.004 C 
HETATM    3  C1  UNL     1      13.079  16.381  19.241  1.00  0.00     0.012 C 
HETATM    4  C3  UNL     1      14.097  16.265  17.007  1.00  0.00     0.012 C 
ENDBRANCH   1   2
BRANCH   1   5
HETATM    5  C5  UNL     1      11.118  17.770  17.847  1.00  0.00     0.050 C 
BRANCH   5   6
HETATM    6  C6  UNL     1      11.155  19.019  17.076  1.00  0.00     0.130 C 
BRANCH   6   7
HETATM    7  N1  UNL     1      11.259  20.122  18.047  1.00  0.00    -0.366 N 
HETATM    8  C7  UNL     1      10.819  21.347  17.727  1.00  0.00     0.090 A 
HETATM    9  C8  UNL     1      10.904  22.407  18.623  1.00  0.00     0.017 A 
HETATM   10  C9  UNL     1      11.453  22.199  19.866  1.00  0.00     0.003 A 
HETATM   11  C10 UNL     1      11.903  20.943  20.193  1.00  0.00     0.017 A 
HETATM   12  C11 UNL     1      11.793  19.910  19.255  1.00  0.00     0.090 A 
ENDBRANCH   6   7
ENDBRANCH   5   6
ENDBRANCH   1   5
BRANCH   1  13
HETATM   13  N2  UNL     1      10.517  15.530  17.117  1.00  0.00    -0.194 N 
BRANCH  13  14
HETATM   14  O1  UNL     1       9.397  15.883  16.794  1.00  0.00    -0.272 OA
ATOM     15  H1  UNL     1       8.666  15.277  16.841  1.00  0.00     0.246 HD
ENDBRANCH  13  14
BRANCH  13  16
HETATM   16  N3  UNL     1      10.793  14.200  17.346  1.00  0.00    -0.252 N 
HETATM   17  C12 UNL     1      10.601  13.273  16.286  1.00  0.00     0.202 C 
HETATM   18  N4  UNL     1      10.804  13.604  15.042  1.00  0.00    -0.372 N 
HETATM   19  N5  UNL     1      10.180  11.955  16.545  1.00  0.00    -0.062 NA
ATOM     20  H42 UNL     1      11.109  14.559  14.855  1.00  0.00     0.158 HD
ATOM     21  H41 UNL     1      10.666  12.938  14.281  1.00  0.00     0.158 HD
ATOM     22  H3  UNL     1      11.128  13.886  18.257  1.00  0.00     0.192 HD
ENDBRANCH  13  16
ENDBRANCH   1  13
TORSDOF 7
ENDMDL
MODEL 5
REMARK VINA RESULT: -6.731752150      1.552      3.466
REMARK  7 active torsions:
REMARK  status: ('A' for Active; 'I' for Inactive)
REMARK    1  A    between atoms: C2_2  and  C4_4 
REMARK    2  A    between atoms: C4_4  and  C5_5 
REMARK    3  A    between atoms: C4_4  and  N2_13 
REMARK    4  A    between atoms: C5_5  and  C6_6 
REMARK    5  A    between atoms: C6_6  and  N1_7 
REMARK    6  A    between atoms: N2_13  and  O1_14 
REMARK    7  A    between atoms: N2_13  and  N3_16 
REMARK       I    between atoms: N3_16  and  C12_18 
ROOT
HETATM    1  C4  UNL     1      10.750  20.740  17.006  1.00  0.00     0.138 C 
ENDROOT
BRANCH   1   2
HETATM    2  C2  UNL     1      10.441  20.623  15.553  1.00  0.00     0.004 C 
HETATM    3  C1  UNL     1      11.261  19.465  14.935  1.00  0.00     0.012 C 
HETATM    4  C3  UNL     1      10.781  21.867  14.736  1.00  0.00     0.012 C 
ENDBRANCH   1   2
BRANCH   1   5
HETATM    5  C5  UNL     1      11.302  19.560  17.700  1.00  0.00     0.050 C 
BRANCH   5   6
HETATM    6  C6  UNL     1      10.429  18.458  18.123  1.00  0.00     0.130 C 
BRANCH   6   7
HETATM    7  N1  UNL     1      11.274  17.256  18.233  1.00  0.00    -0.366 N 
HETATM    8  C7  UNL     1      12.429  17.302  18.912  1.00  0.00     0.090 A 
HETATM    9  C8  UNL     1      13.246  16.184  19.032  1.00  0.00     0.017 A 
HETATM   10  C9  UNL     1      12.867  15.003  18.441  1.00  0.00     0.003 A 
HETATM   11  C10 UNL     1      11.684  14.956  17.744  1.00  0.00     0.017 A 
HETATM   12  C11 UNL     1      10.897  16.111  17.654  1.00  0.00     0.090 A 
ENDBRANCH   6   7
ENDBRANCH   5   6
ENDBRANCH   1   5
BRANCH   1  13
HETATM   13  N2  UNL     1       9.679  21.369  17.754  1.00  0.00    -0.194 N 
BRANCH  13  14
HETATM   14  O1  UNL     1       8.681  21.776  17.186  1.00  0.00    -0.272 OA
ATOM     15  H1  UNL     1       8.712  22.019  16.268  1.00  0.00     0.246 HD
ENDBRANCH  13  14
BRANCH  13  16
HETATM   16  N3  UNL     1       9.805  21.492  19.121  1.00  0.00    -0.252 N 
HETATM   17  C12 UNL     1      10.483  22.627  19.642  1.00  0.00     0.202 C 
HETATM   18  N4  UNL     1      10.427  23.788  19.054  1.00  0.00    -0.372 N 
HETATM   19  N5  UNL     1      11.246  22.536  20.822  1.00  0.00    -0.062 NA
ATOM     20  H42 UNL     1       9.873  23.854  18.199  1.00  0.00     0.158 HD
ATOM     21  H41 UNL     1      10.913  24.603  19.428  1.00  0.00     0.158 HD
ATOM     22  H3  UNL     1       9.421  20.784  19.746  1.00  0.00     0.192 HD
ENDBRANCH  13  16
ENDBRANCH   1  13
TORSDOF 7
ENDMDL
