MODEL 1
REMARK VINA RESULT: -7.285617037      0.000      0.000
REMARK  10 active torsions:
REMARK  status: ('A' for Active; 'I' for Inactive)
REMARK    1  A    between atoms: N1_1  and  O1_4 
REMARK    2  A    between atoms: O1_4  and  C1_5 
REMARK    3  A    between atoms: C1_5  and  C2_6 
REMARK    4  A    between atoms: C2_6  and  C3_7 
REMARK    5  A    between atoms: C3_7  and  O2_8 
REMARK    6  A    between atoms: C3_7  and  C4_10 
REMARK    7  A    between atoms: C4_10  and  O3_11 
REMARK    8  A    between atoms: C4_10  and  C5_13 
REMARK    9  A    between atoms: C6_14  and  C7_15 
REMARK   10  A    between atoms: C8_16  and  C9_17 
ROOT
HETATM    1  C4  UNL     1       9.852  14.540  16.261  1.00  0.00     0.170 C 
ENDROOT
BRANCH   1   2
HETATM    2  C3  UNL     1      11.222  13.924  16.462  1.00  0.00     0.152 C 
BRANCH   2   3
HETATM    3  C2  UNL     1      11.499  12.829  15.478  1.00  0.00     0.063 C 
BRANCH   3   4
HETATM    4  C1  UNL     1      11.672  11.497  16.175  1.00  0.00     0.203 C 
BRANCH   4   5
HETATM    5  O1  UNL     1      10.425  11.028  16.614  1.00  0.00    -0.287 OA
BRANCH   5   6
HETATM    6  N1  UNL     1      10.513  10.426  17.808  1.00  0.00    -0.311 N 
ATOM      7  H12 UNL     1      10.754  10.919  18.668  1.00  0.00     0.184 HD
ATOM      8  H11 UNL     1      10.310   9.428  17.744  1.00  0.00     0.184 HD
ENDBRANCH   5   6
ENDBRANCH   4   5
ENDBRANCH   3   4
ENDBRANCH   2   3
BRANCH   2   9
HETATM    9  O2  UNL     1      11.260  13.351  17.741  1.00  0.00    -0.393 OA
ATOM     10  H2  UNL     1      10.945  14.006  18.352  1.00  0.00     0.210 HD
ENDBRANCH   2   9
ENDBRANCH   1   2
BRANCH   1  11
HETATM   11  O3  UNL     1       8.942  13.702  16.917  1.00  0.00    -0.389 OA
ATOM     12  H3  UNL     1       8.291  13.455  16.271  1.00  0.00     0.210 HD
ENDBRANCH   1  11
BRANCH   1  13
HETATM   13  C5  UNL     1       9.810  15.847  16.935  1.00  0.00     0.016 C 
HETATM   14  C6  UNL     1      10.930  16.500  17.160  1.00  0.00     0.063 C 
BRANCH  14  15
HETATM   15  C7  UNL     1      10.928  17.798  17.826  1.00  0.00    -0.073 C 
HETATM   16  C8  UNL     1      10.906  18.866  18.384  1.00  0.00    -0.062 C 
BRANCH  16  17
HETATM   17  C9  UNL     1      10.858  20.141  19.045  1.00  0.00     0.018 A 
HETATM   18  C10 UNL     1      11.895  20.541  19.894  1.00  0.00     0.020 A 
HETATM   19  C11 UNL     1      11.864  21.761  20.535  1.00  0.00     0.001 A 
HETATM   20  C12 UNL     1      10.816  22.633  20.367  1.00  0.00     0.000 A 
HETATM   21  C13 UNL     1       9.782  22.248  19.527  1.00  0.00     0.001 A 
HETATM   22  C14 UNL     1       9.809  21.024  18.882  1.00  0.00     0.020 A 
ENDBRANCH  16  17
ENDBRANCH  14  15
ENDBRANCH   1  13
TORSDOF 10
ENDMDL
MODEL 2
REMARK VINA RESULT: -7.279546635      0.027      1.116
REMARK  10 active torsions:
REMARK  status: ('A' for Active; 'I' for Inactive)
REMARK    1  A    between atoms: N1_1  and  O1_4 
REMARK    2  A    between atoms: O1_4  and  C1_5 
REMARK    3  A    between atoms: C1_5  and  C2_6 
REMARK    4  A    between atoms: C2_6  and  C3_7 
REMARK    5  A    between atoms: C3_7  and  O2_8 
REMARK    6  A    between atoms: C3_7  and  C4_10 
REMARK    7  A    between atoms: C4_10  and  O3_11 
REMARK    8  A    between atoms: C4_10  and  C5_13 
REMARK    9  A    between atoms: C6_14  and  C7_15 
REMARK   10  A    between atoms: C8_16  and  C9_17 
ROOT
HETATM    1  C4  UNL     1       9.842  14.538  16.255  1.00  0.00     0.170 C 
ENDROOT
BRANCH   1   2
HETATM    2  C3  UNL     1      11.217  13.935  16.458  1.00  0.00     0.152 C 
BRANCH   2   3
HETATM    3  C2  UNL     1      11.504  12.839  15.478  1.00  0.00     0.063 C 
BRANCH   3   4
HETATM    4  C1  UNL     1      11.674  11.509  16.179  1.00  0.00     0.203 C 
BRANCH   4   5
HETATM    5  O1  UNL     1      10.425  11.040  16.614  1.00  0.00    -0.287 OA
BRANCH   5   6
HETATM    6  N1  UNL     1      10.512  10.418  17.798  1.00  0.00    -0.311 N 
ATOM      7  H12 UNL     1      10.655   9.413  17.893  1.00  0.00     0.184 HD
ATOM      8  H11 UNL     1      10.419  11.072  18.576  1.00  0.00     0.184 HD
ENDBRANCH   5   6
ENDBRANCH   4   5
ENDBRANCH   3   4
ENDBRANCH   2   3
BRANCH   2   9
HETATM    9  O2  UNL     1      11.262  13.368  17.739  1.00  0.00    -0.393 OA
ATOM     10  H2  UNL     1      11.688  13.996  18.310  1.00  0.00     0.210 HD
ENDBRANCH   2   9
ENDBRANCH   1   2
BRANCH   1  11
HETATM   11  O3  UNL     1       8.939  13.693  16.913  1.00  0.00    -0.389 OA
ATOM     12  H3  UNL     1       8.625  14.173  17.670  1.00  0.00     0.210 HD
ENDBRANCH   1  11
BRANCH   1  13
HETATM   13  C5  UNL     1       9.787  15.846  16.927  1.00  0.00     0.016 C 
HETATM   14  C6  UNL     1      10.899  16.521  17.128  1.00  0.00     0.063 C 
BRANCH  14  15
HETATM   15  C7  UNL     1      10.884  17.820  17.791  1.00  0.00    -0.073 C 
HETATM   16  C8  UNL     1      10.882  18.885  18.355  1.00  0.00    -0.062 C 
BRANCH  16  17
HETATM   17  C9  UNL     1      10.880  20.145  19.047  1.00  0.00     0.018 A 
HETATM   18  C10 UNL     1       9.824  21.046  18.880  1.00  0.00     0.020 A 
HETATM   19  C11 UNL     1       9.807  22.259  19.536  1.00  0.00     0.001 A 
HETATM   20  C12 UNL     1      10.824  22.631  20.380  1.00  0.00     0.000 A 
HETATM   21  C13 UNL     1      11.877  21.745  20.555  1.00  0.00     0.001 A 
HETATM   22  C14 UNL     1      11.898  20.528  19.898  1.00  0.00     0.020 A 
ENDBRANCH  16  17
ENDBRANCH  14  15
ENDBRANCH   1  13
TORSDOF 10
ENDMDL
MODEL 3
REMARK VINA RESULT: -7.125661037      4.768      8.368
REMARK  10 active torsions:
REMARK  status: ('A' for Active; 'I' for Inactive)
REMARK    1  A    between atoms: N1_1  and  O1_4 
REMARK    2  A    between atoms: O1_4  and  C1_5 
REMARK    3  A    between atoms: C1_5  and  C2_6 
REMARK    4  A    between atoms: C2_6  and  C3_7 
REMARK    5  A    between atoms: C3_7  and  O2_8 
REMARK    6  A    between atoms: C3_7  and  C4_10 
REMARK    7  A    between atoms: C4_10  and  O3_11 
REMARK    8  A    between atoms: C4_10  and  C5_13 
REMARK    9  A    between atoms: C6_14  and  C7_15 
REMARK   10  A    between atoms: C8_16  and  C9_17 
ROOT
HETATM    1  C4  UNL     1      11.882  21.847  19.810  1.00  0.00     0.170 C 
ENDROOT
BRANCH   1   2
HETATM    2  C3  UNL     1      10.637  22.668  20.075  1.00  0.00     0.152 C 
BRANCH   2   3
HETATM    3  C2  UNL     1       9.387  21.948  19.669  1.00  0.00     0.063 C 
BRANCH   3   4
HETATM    4  C1  UNL     1       8.678  22.673  18.547  1.00  0.00     0.203 C 
BRANCH   4   5
HETATM    5  O1  UNL     1       8.357  21.767  17.525  1.00  0.00    -0.287 OA
BRANCH   5   6
HETATM    6  N1  UNL     1       9.387  21.577  16.688  1.00  0.00    -0.311 N 
ATOM      7  H12 UNL     1       9.651  22.244  15.964  1.00  0.00     0.184 HD
ATOM      8  H11 UNL     1       9.863  20.693  16.869  1.00  0.00     0.184 HD
ENDBRANCH   5   6
ENDBRANCH   4   5
ENDBRANCH   3   4
ENDBRANCH   2   3
BRANCH   2   9
HETATM    9  O2  UNL     1      10.711  23.837  19.303  1.00  0.00    -0.393 OA
ATOM     10  H2  UNL     1      10.612  24.571  19.897  1.00  0.00     0.210 HD
ENDBRANCH   2   9
ENDBRANCH   1   2
BRANCH   1  11
HETATM   11  O3  UNL     1      12.421  21.531  21.064  1.00  0.00    -0.389 OA
ATOM     12  H3  UNL     1      11.897  20.818  21.409  1.00  0.00     0.210 HD
ENDBRANCH   1  11
BRANCH   1  13
HETATM   13  C5  UNL     1      11.494  20.581  19.168  1.00  0.00     0.016 C 
HETATM   14  C6  UNL     1      12.167  19.482  19.436  1.00  0.00     0.063 C 
BRANCH  14  15
HETATM   15  C7  UNL     1      11.811  18.209  18.819  1.00  0.00    -0.073 C 
HETATM   16  C8  UNL     1      11.497  17.161  18.314  1.00  0.00    -0.062 C 
BRANCH  16  17
HETATM   17  C9  UNL     1      11.106  15.908  17.727  1.00  0.00     0.018 A 
HETATM   18  C10 UNL     1       9.985  15.832  16.895  1.00  0.00     0.020 A 
HETATM   19  C11 UNL     1       9.596  14.639  16.325  1.00  0.00     0.001 A 
HETATM   20  C12 UNL     1      10.294  13.477  16.549  1.00  0.00     0.000 A 
HETATM   21  C13 UNL     1      11.408  13.540  17.372  1.00  0.00     0.001 A 
HETATM   22  C14 UNL     1      11.801  14.735  17.947  1.00  0.00     0.020 A 
ENDBRANCH  16  17
ENDBRANCH  14  15
ENDBRANCH   1  13
TORSDOF 10
ENDMDL
MODEL 4
REMARK VINA RESULT: -6.969870672      0.983      1.162
REMARK  10 active torsions:
REMARK  status: ('A' for Active; 'I' for Inactive)
REMARK    1  A    between atoms: N1_1  and  O1_4 
REMARK    2  A    between atoms: O1_4  and  C1_5 
REMARK    3  A    between atoms: C1_5  and  C2_6 
REMARK    4  A    between atoms: C2_6  and  C3_7 
REMARK    5  A    between atoms: C3_7  and  O2_8 
REMARK    6  A    between atoms: C3_7  and  C4_10 
REMARK    7  A    between atoms: C4_10  and  O3_11 
REMARK    8  A    between atoms: C4_10  and  C5_13 
REMARK    9  A    between atoms: C6_14  and  C7_15 
REMARK   10  A    between atoms: C8_16  and  C9_17 
ROOT
HETATM    1  C4  UNL     1      10.691  14.779  15.936  1.00  0.00     0.170 C 
ENDROOT
BRANCH   1   2
HETATM    2  C3  UNL     1      10.330  13.913  17.126  1.00  0.00     0.152 C 
BRANCH   2   3
HETATM    3  C2  UNL     1      11.312  12.800  17.333  1.00  0.00     0.063 C 
BRANCH   3   4
HETATM    4  C1  UNL     1      11.227  11.782  16.216  1.00  0.00     0.203 C 
BRANCH   4   5
HETATM    5  O1  UNL     1      10.497  10.664  16.650  1.00  0.00    -0.287 OA
BRANCH   5   6
HETATM    6  N1  UNL     1      10.520  10.544  17.985  1.00  0.00    -0.311 N 
ATOM      7  H12 UNL     1      11.181   9.947  18.482  1.00  0.00     0.184 HD
ATOM      8  H11 UNL     1       9.803  11.117  18.428  1.00  0.00     0.184 HD
ENDBRANCH   5   6
ENDBRANCH   4   5
ENDBRANCH   3   4
ENDBRANCH   2   3
BRANCH   2   9
HETATM    9  O2  UNL     1       9.082  13.325  16.877  1.00  0.00    -0.393 OA
ATOM     10  H2  UNL     1       8.745  13.712  16.078  1.00  0.00     0.210 HD
ENDBRANCH   2   9
ENDBRANCH   1   2
BRANCH   1  11
HETATM   11  O3  UNL     1       9.654  14.626  15.007  1.00  0.00    -0.389 OA
ATOM     12  H3  UNL     1       9.212  15.465  14.958  1.00  0.00     0.210 HD
ENDBRANCH   1  11
BRANCH   1  13
HETATM   13  C5  UNL     1      10.700  16.189  16.355  1.00  0.00     0.016 C 
HETATM   14  C6  UNL     1      11.058  16.502  17.582  1.00  0.00     0.063 C 
BRANCH  14  15
HETATM   15  C7  UNL     1      11.079  17.890  18.033  1.00  0.00    -0.073 C 
HETATM   16  C8  UNL     1      11.076  19.033  18.413  1.00  0.00    -0.062 C 
BRANCH  16  17
HETATM   17  C9  UNL     1      11.051  20.398  18.863  1.00  0.00     0.018 A 
HETATM   18  C10 UNL     1      11.246  20.705  20.213  1.00  0.00     0.020 A 
HETATM   19  C11 UNL     1      11.225  22.008  20.661  1.00  0.00     0.001 A 
HETATM   20  C12 UNL     1      11.012  23.058  19.801  1.00  0.00     0.000 A 
HETATM   21  C13 UNL     1      10.817  22.766  18.460  1.00  0.00     0.001 A 
HETATM   22  C14 UNL     1      10.837  21.460  18.007  1.00  0.00     0.020 A 
ENDBRANCH  16  17
ENDBRANCH  14  15
ENDBRANCH   1  13
TORSDOF 10
ENDMDL
MODEL 5
REMARK VINA RESULT: -6.814092938      1.188      1.621
REMARK  10 active torsions:
REMARK  status: ('A' for Active; 'I' for Inactive)
REMARK    1  A    between atoms: N1_1  and  O1_4 
REMARK    2  A    between atoms: O1_4  and  C1_5 
REMARK    3  A    between atoms: C1_5  and  C2_6 
REMARK    4  A    between atoms: C2_6  and  C3_7 
REMARK    5  A    between atoms: C3_7  and  O2_8 
REMARK    6  A    between atoms: C3_7  and  C4_10 
REMARK    7  A    between atoms: C4_10  and  O3_11 
REMARK    8  A    between atoms: C4_10  and  C5_13 
REMARK    9  A    between atoms: C6_14  and  C7_15 
REMARK   10  A    between atoms: C8_16  and  C9_17 
ROOT
HETATM    1  C4  UNL     1      11.857  14.201  17.528  1.00  0.00     0.170 C 
ENDROOT
BRANCH   1   2
HETATM    2  C3  UNL     1      10.901  13.587  16.526  1.00  0.00     0.152 C 
BRANCH   2   3
HETATM    3  C2  UNL     1      11.603  12.687  15.555  1.00  0.00     0.063 C 
BRANCH   3   4
HETATM    4  C1  UNL     1      11.432  11.232  15.935  1.00  0.00     0.203 C 
BRANCH   4   5
HETATM    5  O1  UNL     1      10.295  11.086  16.745  1.00  0.00    -0.287 OA
BRANCH   5   6
HETATM    6  N1  UNL     1      10.565  10.387  17.857  1.00  0.00    -0.311 N 
ATOM      7  H12 UNL     1      10.138  10.588  18.761  1.00  0.00     0.184 HD
ATOM      8  H11 UNL     1      11.240   9.643  17.681  1.00  0.00     0.184 HD
ENDBRANCH   5   6
ENDBRANCH   4   5
ENDBRANCH   3   4
ENDBRANCH   2   3
BRANCH   2   9
HETATM    9  O2  UNL     1      10.318  14.623  15.784  1.00  0.00    -0.393 OA
ATOM     10  H2  UNL     1       9.544  14.267  15.366  1.00  0.00     0.210 HD
ENDBRANCH   2   9
ENDBRANCH   1   2
BRANCH   1  11
HETATM   11  O3  UNL     1      13.122  14.189  16.926  1.00  0.00    -0.389 OA
ATOM     12  H3  UNL     1      13.728  14.535  17.570  1.00  0.00     0.210 HD
ENDBRANCH   1  11
BRANCH   1  13
HETATM   13  C5  UNL     1      11.487  15.609  17.743  1.00  0.00     0.016 C 
HETATM   14  C6  UNL     1      12.280  16.391  18.443  1.00  0.00     0.063 C 
BRANCH  14  15
HETATM   15  C7  UNL     1      11.946  17.792  18.677  1.00  0.00    -0.073 C 
HETATM   16  C8  UNL     1      11.687  18.955  18.859  1.00  0.00    -0.062 C 
BRANCH  16  17
HETATM   17  C9  UNL     1      11.400  20.347  19.076  1.00  0.00     0.018 A 
HETATM   18  C10 UNL     1      11.448  20.890  20.363  1.00  0.00     0.020 A 
HETATM   19  C11 UNL     1      11.175  22.222  20.588  1.00  0.00     0.001 A 
HETATM   20  C12 UNL     1      10.846  23.070  19.559  1.00  0.00     0.000 A 
HETATM   21  C13 UNL     1      10.795  22.543  18.278  1.00  0.00     0.001 A 
HETATM   22  C14 UNL     1      11.067  21.206  18.048  1.00  0.00     0.020 A 
ENDBRANCH  16  17
ENDBRANCH  14  15
ENDBRANCH   1  13
TORSDOF 10
ENDMDL
