MODEL 1
REMARK VINA RESULT: -6.689564286      0.000      0.000
REMARK  5 active torsions:
REMARK  status: ('A' for Active; 'I' for Inactive)
REMARK       I    between atoms: N1_2  and  C2_4 
REMARK       I    between atoms: C2_4  and  N3_8 
REMARK    1  A    between atoms: N3_8  and  C3_10 
REMARK    2  A    between atoms: C3_10  and  C4_11 
REMARK    3  A    between atoms: C4_11  and  C5_12 
REMARK    4  A    between atoms: C8_15  and  O1_16 
REMARK    5  A    between atoms: N4_20  and  O2_22 
ROOT
HETATM    1  C3  UNL     1      11.099  18.747  17.043  1.00  0.00     0.121 C 
HETATM    2  N4  UNL     1      10.374  19.791  17.281  1.00  0.00    -0.254 N 
ATOM      3  H4  UNL     1      10.208  20.469  16.538  1.00  0.00     0.195 HD
ENDROOT
BRANCH   1   4
HETATM    4  N3  UNL     1      11.620  18.618  15.741  1.00  0.00    -0.179 N 
HETATM    5  C2  UNL     1      10.878  18.846  14.554  1.00  0.00     0.672 C 
HETATM    6  N1  UNL     1      11.082  20.003  13.737  1.00  0.00    -0.231 N 
HETATM    7  N2  UNL     1       9.981  18.003  14.165  1.00  0.00    -0.235 N 
HETATM    8  C1  UNL     1      11.395  19.947  12.341  1.00  0.00     0.165 C 
ATOM      9  H1  UNL     1      11.000  20.920  14.175  1.00  0.00     0.177 HD
ATOM     10  H22 UNL     1       9.448  18.167  13.311  1.00  0.00     0.174 HD
ATOM     11  H21 UNL     1       9.836  17.179  14.748  1.00  0.00     0.174 HD
ATOM     12  H3  UNL     1      12.597  18.341  15.645  1.00  0.00     0.185 HD
ENDBRANCH   1   4
BRANCH   1  13
HETATM   13  C4  UNL     1      11.336  17.765  18.125  1.00  0.00     0.117 C 
BRANCH  13  14
HETATM   14  C5  UNL     1      10.981  16.381  17.734  1.00  0.00    -0.051 A 
HETATM   15  C6  UNL     1       9.812  16.084  17.065  1.00  0.00     0.010 A 
HETATM   16  C7  UNL     1       9.471  14.810  16.698  1.00  0.00     0.037 A 
HETATM   17  C8  UNL     1      10.326  13.775  17.007  1.00  0.00     0.068 A 
HETATM   18  C10 UNL     1      11.507  14.022  17.675  1.00  0.00     0.037 A 
HETATM   19  C11 UNL     1      11.826  15.336  18.036  1.00  0.00     0.010 A 
BRANCH  17  20
HETATM   20  O1  UNL     1      10.006  12.462  16.645  1.00  0.00    -0.356 OA
HETATM   21  C9  UNL     1      10.987  11.513  16.311  1.00  0.00     0.210 C 
ENDBRANCH  17  20
ENDBRANCH  13  14
ENDBRANCH   1  13
BRANCH   2  22
HETATM   22  O2  UNL     1       9.830  19.997  18.510  1.00  0.00    -0.284 OA
HETATM   23  C12 UNL     1       9.011  21.076  18.863  1.00  0.00     0.237 C 
ENDBRANCH   2  22
TORSDOF 5
ENDMDL
MODEL 2
REMARK VINA RESULT: -6.678108631      1.291      2.012
REMARK  5 active torsions:
REMARK  status: ('A' for Active; 'I' for Inactive)
REMARK       I    between atoms: N1_2  and  C2_4 
REMARK       I    between atoms: C2_4  and  N3_8 
REMARK    1  A    between atoms: N3_8  and  C3_10 
REMARK    2  A    between atoms: C3_10  and  C4_11 
REMARK    3  A    between atoms: C4_11  and  C5_12 
REMARK    4  A    between atoms: C8_15  and  O1_16 
REMARK    5  A    between atoms: N4_20  and  O2_22 
ROOT
HETATM    1  C3  UNL     1      10.886  20.194  17.016  1.00  0.00     0.121 C 
HETATM    2  N4  UNL     1       9.868  20.992  17.047  1.00  0.00    -0.254 N 
ATOM      3  H4  UNL     1       9.543  21.426  16.184  1.00  0.00     0.195 HD
ENDROOT
BRANCH   1   4
HETATM    4  N3  UNL     1      11.488  19.979  15.762  1.00  0.00    -0.179 N 
HETATM    5  C2  UNL     1      10.774  19.817  14.547  1.00  0.00     0.672 C 
HETATM    6  N1  UNL     1      10.737  20.834  13.542  1.00  0.00    -0.231 N 
HETATM    7  N2  UNL     1      10.124  18.728  14.305  1.00  0.00    -0.235 N 
HETATM    8  C1  UNL     1      11.123  20.623  12.180  1.00  0.00     0.165 C 
ATOM      9  H1  UNL     1      10.416  21.764  13.811  1.00  0.00     0.177 HD
ATOM     10  H22 UNL     1       9.610  18.612  13.432  1.00  0.00     0.174 HD
ATOM     11  H21 UNL     1      10.150  18.003  15.022  1.00  0.00     0.174 HD
ATOM     12  H3  UNL     1      12.506  19.937  15.723  1.00  0.00     0.185 HD
ENDBRANCH   1   4
BRANCH   1  13
HETATM   13  C4  UNL     1      11.354  19.564  18.272  1.00  0.00     0.117 C 
BRANCH  13  14
HETATM   14  C5  UNL     1      11.443  18.089  18.177  1.00  0.00    -0.051 A 
HETATM   15  C6  UNL     1      12.504  17.381  18.703  1.00  0.00     0.010 A 
HETATM   16  C7  UNL     1      12.599  16.019  18.621  1.00  0.00     0.037 A 
HETATM   17  C8  UNL     1      11.597  15.316  17.988  1.00  0.00     0.068 A 
HETATM   18  C10 UNL     1      10.516  15.979  17.446  1.00  0.00     0.037 A 
HETATM   19  C11 UNL     1      10.449  17.373  17.547  1.00  0.00     0.010 A 
BRANCH  17  20
HETATM   20  O1  UNL     1      11.665  13.922  17.889  1.00  0.00    -0.356 OA
HETATM   21  C9  UNL     1      10.563  13.139  17.507  1.00  0.00     0.210 C 
ENDBRANCH  17  20
ENDBRANCH  13  14
ENDBRANCH   1  13
BRANCH   2  22
HETATM   22  O2  UNL     1       9.226  21.257  18.215  1.00  0.00    -0.284 OA
HETATM   23  C12 UNL     1       8.820  22.525  18.647  1.00  0.00     0.237 C 
ENDBRANCH   2  22
TORSDOF 5
ENDMDL
MODEL 3
REMARK VINA RESULT: -6.621411932      1.238      1.619
REMARK  5 active torsions:
REMARK  status: ('A' for Active; 'I' for Inactive)
REMARK       I    between atoms: N1_2  and  C2_4 
REMARK       I    between atoms: C2_4  and  N3_8 
REMARK    1  A    between atoms: N3_8  and  C3_10 
REMARK    2  A    between atoms: C3_10  and  C4_11 
REMARK    3  A    between atoms: C4_11  and  C5_12 
REMARK    4  A    between atoms: C8_15  and  O1_16 
REMARK    5  A    between atoms: N4_20  and  O2_22 
ROOT
HETATM    1  C3  UNL     1      10.883  20.114  17.099  1.00  0.00     0.121 C 
HETATM    2  N4  UNL     1       9.880  20.930  17.135  1.00  0.00    -0.254 N 
ATOM      3  H4  UNL     1       9.568  21.381  16.275  1.00  0.00     0.195 HD
ENDROOT
BRANCH   1   4
HETATM    4  N3  UNL     1      11.488  19.904  15.844  1.00  0.00    -0.179 N 
HETATM    5  C2  UNL     1      10.776  19.756  14.626  1.00  0.00     0.672 C 
HETATM    6  N1  UNL     1      10.750  20.781  13.628  1.00  0.00    -0.231 N 
HETATM    7  N2  UNL     1      10.120  18.674  14.374  1.00  0.00    -0.235 N 
HETATM    8  C1  UNL     1      11.140  20.577  12.266  1.00  0.00     0.165 C 
ATOM      9  H1  UNL     1      10.436  21.712  13.903  1.00  0.00     0.177 HD
ATOM     10  H22 UNL     1       9.608  18.568  13.498  1.00  0.00     0.174 HD
ATOM     11  H21 UNL     1      10.138  17.944  15.086  1.00  0.00     0.174 HD
ATOM     12  H3  UNL     1      12.506  19.855  15.809  1.00  0.00     0.185 HD
ENDBRANCH   1   4
BRANCH   1  13
HETATM   13  C4  UNL     1      11.333  19.459  18.348  1.00  0.00     0.117 C 
BRANCH  13  14
HETATM   14  C5  UNL     1      11.422  17.986  18.226  1.00  0.00    -0.051 A 
HETATM   15  C6  UNL     1      10.453  17.242  17.584  1.00  0.00     0.010 A 
HETATM   16  C7  UNL     1      10.523  15.881  17.464  1.00  0.00     0.037 A 
HETATM   17  C8  UNL     1      11.603  15.217  18.004  1.00  0.00     0.068 A 
HETATM   18  C10 UNL     1      12.597  15.917  18.655  1.00  0.00     0.037 A 
HETATM   19  C11 UNL     1      12.496  17.309  18.760  1.00  0.00     0.010 A 
BRANCH  17  20
HETATM   20  O1  UNL     1      11.703  13.826  17.898  1.00  0.00    -0.356 OA
HETATM   21  C9  UNL     1      10.740  13.051  17.229  1.00  0.00     0.210 C 
ENDBRANCH  17  20
ENDBRANCH  13  14
ENDBRANCH   1  13
BRANCH   2  22
HETATM   22  O2  UNL     1       9.236  21.192  18.303  1.00  0.00    -0.284 OA
HETATM   23  C12 UNL     1       8.774  22.450  18.708  1.00  0.00     0.237 C 
ENDBRANCH   2  22
TORSDOF 5
ENDMDL
MODEL 4
REMARK VINA RESULT: -6.310053639      1.661      3.429
REMARK  5 active torsions:
REMARK  status: ('A' for Active; 'I' for Inactive)
REMARK       I    between atoms: N1_2  and  C2_4 
REMARK       I    between atoms: C2_4  and  N3_8 
REMARK    1  A    between atoms: N3_8  and  C3_10 
REMARK    2  A    between atoms: C3_10  and  C4_11 
REMARK    3  A    between atoms: C4_11  and  C5_12 
REMARK    4  A    between atoms: C8_15  and  O1_16 
REMARK    5  A    between atoms: N4_20  and  O2_22 
ROOT
HETATM    1  C3  UNL     1      10.915  18.500  17.558  1.00  0.00     0.121 C 
HETATM    2  N4  UNL     1      11.119  18.773  16.310  1.00  0.00    -0.254 N 
ATOM      3  H4  UNL     1      10.590  19.523  15.867  1.00  0.00     0.195 HD
ENDROOT
BRANCH   1   4
HETATM    4  N3  UNL     1       9.952  19.278  18.230  1.00  0.00    -0.179 N 
HETATM    5  C2  UNL     1      10.172  20.599  18.697  1.00  0.00     0.672 C 
HETATM    6  N1  UNL     1       9.589  21.740  18.060  1.00  0.00    -0.231 N 
HETATM    7  N2  UNL     1      10.916  20.819  19.727  1.00  0.00    -0.235 N 
HETATM    8  C1  UNL     1       8.777  22.704  18.739  1.00  0.00     0.165 C 
ATOM      9  H1  UNL     1       9.761  21.874  17.063  1.00  0.00     0.177 HD
ATOM     10  H22 UNL     1      11.074  21.769  20.063  1.00  0.00     0.174 HD
ATOM     11  H21 UNL     1      11.332  20.005  20.181  1.00  0.00     0.174 HD
ATOM     12  H3  UNL     1       9.035  18.863  18.393  1.00  0.00     0.185 HD
ENDBRANCH   1   4
BRANCH   1  13
HETATM   13  C4  UNL     1      11.686  17.411  18.199  1.00  0.00     0.117 C 
BRANCH  13  14
HETATM   14  C5  UNL     1      11.247  16.064  17.768  1.00  0.00    -0.051 A 
HETATM   15  C6  UNL     1      10.016  15.844  17.185  1.00  0.00     0.010 A 
HETATM   16  C7  UNL     1       9.598  14.605  16.782  1.00  0.00     0.037 A 
HETATM   17  C8  UNL     1      10.435  13.526  16.963  1.00  0.00     0.068 A 
HETATM   18  C10 UNL     1      11.676  13.695  17.542  1.00  0.00     0.037 A 
HETATM   19  C11 UNL     1      12.073  14.976  17.942  1.00  0.00     0.010 A 
BRANCH  17  20
HETATM   20  O1  UNL     1      10.036  12.247  16.561  1.00  0.00    -0.356 OA
HETATM   21  C9  UNL     1      10.901  11.140  16.603  1.00  0.00     0.210 C 
ENDBRANCH  17  20
ENDBRANCH  13  14
ENDBRANCH   1  13
BRANCH   2  22
HETATM   22  O2  UNL     1      12.030  18.073  15.584  1.00  0.00    -0.284 OA
HETATM   23  C12 UNL     1      11.799  17.507  14.324  1.00  0.00     0.237 C 
ENDBRANCH   2  22
TORSDOF 5
ENDMDL
MODEL 5
REMARK VINA RESULT: -6.266913468      2.611      4.562
REMARK  5 active torsions:
REMARK  status: ('A' for Active; 'I' for Inactive)
REMARK       I    between atoms: N1_2  and  C2_4 
REMARK       I    between atoms: C2_4  and  N3_8 
REMARK    1  A    between atoms: N3_8  and  C3_10 
REMARK    2  A    between atoms: C3_10  and  C4_11 
REMARK    3  A    between atoms: C4_11  and  C5_12 
REMARK    4  A    between atoms: C8_15  and  O1_16 
REMARK    5  A    between atoms: N4_20  and  O2_22 
ROOT
HETATM    1  C3  UNL     1      10.520  18.700  17.523  1.00  0.00     0.121 C 
HETATM    2  N4  UNL     1      11.105  19.263  16.516  1.00  0.00    -0.254 N 
ATOM      3  H4  UNL     1      11.218  20.276  16.502  1.00  0.00     0.195 HD
ENDROOT
BRANCH   1   4
HETATM    4  N3  UNL     1      10.069  19.548  18.553  1.00  0.00    -0.179 N 
HETATM    5  C2  UNL     1      10.908  20.407  19.308  1.00  0.00     0.672 C 
HETATM    6  N1  UNL     1      10.905  21.827  19.129  1.00  0.00    -0.231 N 
HETATM    7  N2  UNL     1      11.712  19.929  20.197  1.00  0.00    -0.235 N 
HETATM    8  C1  UNL     1      10.677  22.764  20.187  1.00  0.00     0.165 C 
ATOM      9  H1  UNL     1      11.077  22.193  18.193  1.00  0.00     0.177 HD
ATOM     10  H22 UNL     1      12.315  20.547  20.740  1.00  0.00     0.174 HD
ATOM     11  H21 UNL     1      11.713  18.917  20.324  1.00  0.00     0.174 HD
ATOM     12  H3  UNL     1       9.073  19.545  18.771  1.00  0.00     0.185 HD
ENDBRANCH   1   4
BRANCH   1  13
HETATM   13  C4  UNL     1      10.359  17.228  17.540  1.00  0.00     0.117 C 
BRANCH  13  14
HETATM   14  C5  UNL     1      11.621  16.515  17.845  1.00  0.00    -0.051 A 
HETATM   15  C6  UNL     1      12.439  16.885  18.892  1.00  0.00     0.010 A 
HETATM   16  C7  UNL     1      13.607  16.235  19.184  1.00  0.00     0.037 A 
HETATM   17  C8  UNL     1      13.990  15.166  18.405  1.00  0.00     0.068 A 
HETATM   18  C10 UNL     1      13.205  14.759  17.346  1.00  0.00     0.037 A 
HETATM   19  C11 UNL     1      12.016  15.445  17.074  1.00  0.00     0.010 A 
BRANCH  17  20
HETATM   20  O1  UNL     1      15.179  14.482  18.679  1.00  0.00    -0.356 OA
HETATM   21  C9  UNL     1      16.421  15.134  18.765  1.00  0.00     0.210 C 
ENDBRANCH  17  20
ENDBRANCH  13  14
ENDBRANCH   1  13
BRANCH   2  22
HETATM   22  O2  UNL     1      11.571  18.521  15.477  1.00  0.00    -0.284 OA
HETATM   23  C12 UNL     1      11.219  18.698  14.133  1.00  0.00     0.237 C 
ENDBRANCH   2  22
TORSDOF 5
ENDMDL
