MODEL 1
REMARK VINA RESULT: -6.762699808      0.000      0.000
REMARK  5 active torsions:
REMARK  status: ('A' for Active; 'I' for Inactive)
REMARK    1  A    between atoms: C2_3  and  C3_4 
REMARK    2  A    between atoms: C3_4  and  C4_5 
REMARK    3  A    between atoms: C4_5  and  C5_6 
REMARK    4  A    between atoms: C5_6  and  C6_7 
REMARK    5  A    between atoms: N2_13  and  N3_15 
REMARK       I    between atoms: C12_17  and  N5_19 
ROOT
HETATM    1  C1  UNL     1      11.189  18.653  12.446  1.00  0.00     0.241 C 
HETATM    2  N1  UNL     1      11.184  19.083  13.704  1.00  0.00    -0.390 NA
HETATM    3  C2  UNL     1      11.180  19.443  14.749  1.00  0.00     0.021 C 
ENDROOT
BRANCH   3   4
HETATM    4  C3  UNL     1      11.176  19.911  16.112  1.00  0.00     0.174 C 
BRANCH   4   5
HETATM    5  C4  UNL     1      11.345  18.791  17.074  1.00  0.00     0.021 C 
HETATM    6  N2  UNL     1      12.182  17.842  16.852  1.00  0.00    -0.305 N 
ATOM      7  H2  UNL     1      12.747  17.843  16.003  1.00  0.00     0.186 HD
BRANCH   5   8
HETATM    8  C5  UNL     1      10.530  18.779  18.307  1.00  0.00     0.093 C 
BRANCH   8   9
HETATM    9  C6  UNL     1      10.717  20.093  19.014  1.00  0.00    -0.053 A 
HETATM   10  C7  UNL     1       9.702  21.019  18.963  1.00  0.00     0.007 A 
HETATM   11  C8  UNL     1       9.826  22.240  19.603  1.00  0.00     0.001 A 
HETATM   12  C9  UNL     1      10.982  22.546  20.306  1.00  0.00     0.000 A 
HETATM   13  C10 UNL     1      12.011  21.606  20.358  1.00  0.00     0.001 A 
HETATM   14  C11 UNL     1      11.869  20.396  19.715  1.00  0.00     0.007 A 
ENDBRANCH   8   9
ENDBRANCH   5   8
BRANCH   6  15
HETATM   15  N3  UNL     1      12.308  16.824  17.767  1.00  0.00    -0.274 N 
HETATM   16  C12 UNL     1      13.392  16.259  18.121  1.00  0.00     0.202 C 
HETATM   17  N4  UNL     1      13.366  15.227  19.074  1.00  0.00    -0.062 NA
HETATM   18  N5  UNL     1      14.616  16.668  17.563  1.00  0.00    -0.368 N 
HETATM   19  C13 UNL     1      15.620  15.779  17.047  1.00  0.00     0.148 C 
ATOM     20  H5  UNL     1      14.805  17.669  17.522  1.00  0.00     0.161 HD
ATOM     21  H3  UNL     1      11.450  16.489  18.205  1.00  0.00     0.189 HD
ENDBRANCH   6  15
ENDBRANCH   4   5
ENDBRANCH   3   4
TORSDOF 5
ENDMDL
MODEL 2
REMARK VINA RESULT: -6.667982337      2.525      3.304
REMARK  5 active torsions:
REMARK  status: ('A' for Active; 'I' for Inactive)
REMARK    1  A    between atoms: C2_3  and  C3_4 
REMARK    2  A    between atoms: C3_4  and  C4_5 
REMARK    3  A    between atoms: C4_5  and  C5_6 
REMARK    4  A    between atoms: C5_6  and  C6_7 
REMARK    5  A    between atoms: N2_13  and  N3_15 
REMARK       I    between atoms: C12_17  and  N5_19 
ROOT
HETATM    1  C1  UNL     1      10.189  21.281  12.577  1.00  0.00     0.241 C 
HETATM    2  N1  UNL     1      10.531  21.041  13.839  1.00  0.00    -0.390 NA
HETATM    3  C2  UNL     1      10.818  20.841  14.888  1.00  0.00     0.021 C 
ENDROOT
BRANCH   3   4
HETATM    4  C3  UNL     1      11.191  20.580  16.255  1.00  0.00     0.174 C 
BRANCH   4   5
HETATM    5  C4  UNL     1      10.852  19.190  16.657  1.00  0.00     0.021 C 
HETATM    6  N2  UNL     1      10.606  18.284  15.781  1.00  0.00    -0.305 N 
ATOM      7  H2  UNL     1      10.640  18.507  14.786  1.00  0.00     0.186 HD
BRANCH   5   8
HETATM    8  C5  UNL     1      10.799  18.856  18.096  1.00  0.00     0.093 C 
BRANCH   8   9
HETATM    9  C6  UNL     1      10.792  20.138  18.883  1.00  0.00    -0.053 A 
HETATM   10  C7  UNL     1      11.925  20.492  19.576  1.00  0.00     0.007 A 
HETATM   11  C8  UNL     1      11.967  21.665  20.310  1.00  0.00     0.001 A 
HETATM   12  C9  UNL     1      10.862  22.501  20.354  1.00  0.00     0.000 A 
HETATM   13  C10 UNL     1       9.713  22.142  19.650  1.00  0.00     0.001 A 
HETATM   14  C11 UNL     1       9.689  20.970  18.926  1.00  0.00     0.007 A 
ENDBRANCH   8   9
ENDBRANCH   5   8
BRANCH   6  15
HETATM   15  N3  UNL     1      10.296  17.010  16.195  1.00  0.00    -0.274 N 
HETATM   16  C12 UNL     1       9.812  16.080  15.474  1.00  0.00     0.202 C 
HETATM   17  N4  UNL     1       9.545  14.822  16.039  1.00  0.00    -0.062 NA
HETATM   18  N5  UNL     1       9.546  16.308  14.113  1.00  0.00    -0.368 N 
HETATM   19  C13 UNL     1       8.326  15.948  13.443  1.00  0.00     0.148 C 
ATOM     20  H5  UNL     1      10.272  16.763  13.559  1.00  0.00     0.161 HD
ATOM     21  H3  UNL     1      10.471  16.789  17.175  1.00  0.00     0.189 HD
ENDBRANCH   6  15
ENDBRANCH   4   5
ENDBRANCH   3   4
TORSDOF 5
ENDMDL
MODEL 3
REMARK VINA RESULT: -6.660034560      2.529      3.093
REMARK  5 active torsions:
REMARK  status: ('A' for Active; 'I' for Inactive)
REMARK    1  A    between atoms: C2_3  and  C3_4 
REMARK    2  A    between atoms: C3_4  and  C4_5 
REMARK    3  A    between atoms: C4_5  and  C5_6 
REMARK    4  A    between atoms: C5_6  and  C6_7 
REMARK    5  A    between atoms: N2_13  and  N3_15 
REMARK       I    between atoms: C12_17  and  N5_19 
ROOT
HETATM    1  C1  UNL     1      10.246  21.279  12.595  1.00  0.00     0.241 C 
HETATM    2  N1  UNL     1      10.571  21.041  13.862  1.00  0.00    -0.390 NA
HETATM    3  C2  UNL     1      10.839  20.842  14.915  1.00  0.00     0.021 C 
ENDROOT
BRANCH   3   4
HETATM    4  C3  UNL     1      11.189  20.583  16.289  1.00  0.00     0.174 C 
BRANCH   4   5
HETATM    5  C4  UNL     1      10.841  19.194  16.688  1.00  0.00     0.021 C 
HETATM    6  N2  UNL     1      10.617  18.285  15.809  1.00  0.00    -0.305 N 
ATOM      7  H2  UNL     1      10.677  18.504  14.814  1.00  0.00     0.186 HD
BRANCH   5   8
HETATM    8  C5  UNL     1      10.752  18.865  18.126  1.00  0.00     0.093 C 
BRANCH   8   9
HETATM    9  C6  UNL     1      10.793  20.147  18.911  1.00  0.00    -0.053 A 
HETATM   10  C7  UNL     1       9.666  20.932  18.950  1.00  0.00     0.007 A 
HETATM   11  C8  UNL     1       9.655  22.118  19.664  1.00  0.00     0.001 A 
HETATM   12  C9  UNL     1      10.787  22.530  20.351  1.00  0.00     0.000 A 
HETATM   13  C10 UNL     1      11.930  21.733  20.311  1.00  0.00     0.001 A 
HETATM   14  C11 UNL     1      11.922  20.556  19.595  1.00  0.00     0.007 A 
ENDBRANCH   8   9
ENDBRANCH   5   8
BRANCH   6  15
HETATM   15  N3  UNL     1      10.298  17.012  16.219  1.00  0.00    -0.274 N 
HETATM   16  C12 UNL     1       9.823  16.082  15.492  1.00  0.00     0.202 C 
HETATM   17  N4  UNL     1       9.545  14.825  16.053  1.00  0.00    -0.062 NA
HETATM   18  N5  UNL     1       9.580  16.309  14.126  1.00  0.00    -0.368 N 
HETATM   19  C13 UNL     1       8.371  15.951  13.437  1.00  0.00     0.148 C 
ATOM     20  H5  UNL     1      10.316  16.761  13.583  1.00  0.00     0.161 HD
ATOM     21  H3  UNL     1      10.456  16.791  17.202  1.00  0.00     0.189 HD
ENDBRANCH   6  15
ENDBRANCH   4   5
ENDBRANCH   3   4
TORSDOF 5
ENDMDL
MODEL 4
REMARK VINA RESULT: -6.596504620      1.561      4.165
REMARK  5 active torsions:
REMARK  status: ('A' for Active; 'I' for Inactive)
REMARK    1  A    between atoms: C2_3  and  C3_4 
REMARK    2  A    between atoms: C3_4  and  C4_5 
REMARK    3  A    between atoms: C4_5  and  C5_6 
REMARK    4  A    between atoms: C5_6  and  C6_7 
REMARK    5  A    between atoms: N2_13  and  N3_15 
REMARK       I    between atoms: C12_17  and  N5_19 
ROOT
HETATM    1  C1  UNL     1      11.147  13.702  17.701  1.00  0.00     0.241 C 
HETATM    2  N1  UNL     1      11.561  14.947  17.921  1.00  0.00    -0.390 NA
HETATM    3  C2  UNL     1      11.903  15.982  18.102  1.00  0.00     0.021 C 
ENDROOT
BRANCH   3   4
HETATM    4  C3  UNL     1      12.348  17.331  18.338  1.00  0.00     0.174 C 
BRANCH   4   5
HETATM    5  C4  UNL     1      11.513  18.318  17.605  1.00  0.00     0.021 C 
HETATM    6  N2  UNL     1      11.846  18.737  16.438  1.00  0.00    -0.305 N 
ATOM      7  H2  UNL     1      12.697  18.394  15.992  1.00  0.00     0.186 HD
BRANCH   5   8
HETATM    8  C5  UNL     1      10.278  18.822  18.242  1.00  0.00     0.093 C 
BRANCH   8   9
HETATM    9  C6  UNL     1      10.607  20.088  18.984  1.00  0.00    -0.053 A 
HETATM   10  C7  UNL     1       9.713  21.131  18.936  1.00  0.00     0.007 A 
HETATM   11  C8  UNL     1       9.971  22.314  19.607  1.00  0.00     0.001 A 
HETATM   12  C9  UNL     1      11.140  22.462  20.339  1.00  0.00     0.000 A 
HETATM   13  C10 UNL     1      12.046  21.403  20.387  1.00  0.00     0.001 A 
HETATM   14  C11 UNL     1      11.773  20.233  19.712  1.00  0.00     0.007 A 
ENDBRANCH   8   9
ENDBRANCH   5   8
BRANCH   6  15
HETATM   15  N3  UNL     1      11.046  19.650  15.793  1.00  0.00    -0.274 N 
HETATM   16  C12 UNL     1      10.774  19.670  14.551  1.00  0.00     0.202 C 
HETATM   17  N4  UNL     1       9.936  20.671  14.031  1.00  0.00    -0.062 NA
HETATM   18  N5  UNL     1      11.308  18.690  13.696  1.00  0.00    -0.368 N 
HETATM   19  C13 UNL     1      11.933  18.958  12.430  1.00  0.00     0.148 C 
ATOM     20  H5  UNL     1      11.246  17.717  13.996  1.00  0.00     0.161 HD
ATOM     21  H3  UNL     1      10.630  20.384  16.367  1.00  0.00     0.189 HD
ENDBRANCH   6  15
ENDBRANCH   4   5
ENDBRANCH   3   4
TORSDOF 5
ENDMDL
MODEL 5
REMARK VINA RESULT: -6.589457067      1.803      2.131
REMARK  5 active torsions:
REMARK  status: ('A' for Active; 'I' for Inactive)
REMARK    1  A    between atoms: C2_3  and  C3_4 
REMARK    2  A    between atoms: C3_4  and  C4_5 
REMARK    3  A    between atoms: C4_5  and  C5_6 
REMARK    4  A    between atoms: C5_6  and  C6_7 
REMARK    5  A    between atoms: N2_13  and  N3_15 
REMARK       I    between atoms: C12_17  and  N5_19 
ROOT
HETATM    1  C1  UNL     1      11.127  19.617  12.520  1.00  0.00     0.241 C 
HETATM    2  N1  UNL     1      11.136  19.780  13.840  1.00  0.00    -0.390 NA
HETATM    3  C2  UNL     1      11.142  19.913  14.937  1.00  0.00     0.021 C 
ENDROOT
BRANCH   3   4
HETATM    4  C3  UNL     1      11.149  20.087  16.367  1.00  0.00     0.174 C 
BRANCH   4   5
HETATM    5  C4  UNL     1      11.054  18.783  17.076  1.00  0.00     0.021 C 
HETATM    6  N2  UNL     1      10.638  17.727  16.475  1.00  0.00    -0.305 N 
ATOM      7  H2  UNL     1      10.364  17.768  15.493  1.00  0.00     0.186 HD
BRANCH   5   8
HETATM    8  C5  UNL     1      11.446  18.713  18.499  1.00  0.00     0.093 C 
BRANCH   8   9
HETATM    9  C6  UNL     1      11.126  20.033  19.146  1.00  0.00    -0.053 A 
HETATM   10  C7  UNL     1      12.116  20.680  19.847  1.00  0.00     0.007 A 
HETATM   11  C8  UNL     1      11.870  21.899  20.456  1.00  0.00     0.001 A 
HETATM   12  C9  UNL     1      10.617  22.484  20.365  1.00  0.00     0.000 A 
HETATM   13  C10 UNL     1       9.613  21.828  19.653  1.00  0.00     0.001 A 
HETATM   14  C11 UNL     1       9.876  20.615  19.054  1.00  0.00     0.007 A 
ENDBRANCH   8   9
ENDBRANCH   5   8
BRANCH   6  15
HETATM   15  N3  UNL     1      10.563  16.541  17.166  1.00  0.00    -0.274 N 
HETATM   16  C12 UNL     1      11.131  15.447  16.850  1.00  0.00     0.202 C 
HETATM   17  N4  UNL     1      10.963  14.310  17.657  1.00  0.00    -0.062 NA
HETATM   18  N5  UNL     1      11.929  15.375  15.694  1.00  0.00    -0.368 N 
HETATM   19  C13 UNL     1      11.851  14.333  14.708  1.00  0.00     0.148 C 
ATOM     20  H5  UNL     1      12.613  16.116  15.545  1.00  0.00     0.161 HD
ATOM     21  H3  UNL     1       9.998  16.537  18.015  1.00  0.00     0.189 HD
ENDBRANCH   6  15
ENDBRANCH   4   5
ENDBRANCH   3   4
TORSDOF 5
ENDMDL
