MODEL 1
REMARK VINA RESULT: -6.300771552      0.000      0.000
REMARK  6 active torsions:
REMARK  status: ('A' for Active; 'I' for Inactive)
REMARK    1  A    between atoms: C2_2  and  O1_4 
REMARK    2  A    between atoms: O1_4  and  C4_5 
REMARK    3  A    between atoms: C7_8  and  C8_9 
REMARK    4  A    between atoms: C8_9  and  C9_10 
REMARK    5  A    between atoms: C9_10  and  C10_11 
REMARK    6  A    between atoms: C9_10  and  N1_13 
REMARK       I    between atoms: N1_13  and  C11_15 
ROOT
HETATM    1  C8  UNL     1      12.441 -11.863  22.957  1.00  0.00     0.070 C 
ENDROOT
BRANCH   1   2
HETATM    2  C7  UNL     1      11.256 -12.628  23.418  1.00  0.00    -0.056 A 
HETATM    3  C6  UNL     1       9.979 -12.137  23.212  1.00  0.00     0.010 A 
HETATM    4  C5  UNL     1       8.909 -12.879  23.636  1.00  0.00     0.038 A 
HETATM    5  C4  UNL     1       9.026 -14.099  24.260  1.00  0.00     0.075 A 
HETATM    6  C13 UNL     1      10.293 -14.593  24.468  1.00  0.00     0.038 A 
HETATM    7  C12 UNL     1      11.361 -13.861  24.051  1.00  0.00     0.010 A 
BRANCH   5   8
HETATM    8  O1  UNL     1       7.876 -14.754  24.641  1.00  0.00    -0.316 OA
BRANCH   8   9
HETATM    9  C2  UNL     1       7.616 -16.071  24.257  1.00  0.00     0.040 C 
HETATM   10  C1  UNL     1       8.159 -17.030  24.988  1.00  0.00     0.046 C 
HETATM   11  C3  UNL     1       6.774 -16.402  23.089  1.00  0.00     0.076 C 
ENDBRANCH   8   9
ENDBRANCH   5   8
ENDBRANCH   1   2
BRANCH   1  12
HETATM   12  C9  UNL     1      13.559 -12.794  22.639  1.00  0.00     0.149 C 
BRANCH  12  13
HETATM   13  C10 UNL     1      13.599 -13.068  21.185  1.00  0.00     0.256 C 
HETATM   14  O2  UNL     1      12.739 -13.796  20.689  1.00  0.00    -0.305 OA
ENDBRANCH  12  13
BRANCH  12  15
HETATM   15  N1  UNL     1      14.850 -12.277  23.038  1.00  0.00    -0.354 N 
HETATM   16  C11 UNL     1      15.157 -11.659  24.254  1.00  0.00     0.182 C 
HETATM   17  N2  UNL     1      15.681 -10.487  24.258  1.00  0.00    -0.374 N 
HETATM   18  N3  UNL     1      14.927 -12.252  25.520  1.00  0.00    -0.064 NA
ATOM     19  H22 UNL     1      15.847 -10.060  23.347  1.00  0.00     0.158 HD
ATOM     20  H21 UNL     1      15.904 -10.035  25.145  1.00  0.00     0.158 HD
ATOM     21  H1  UNL     1      15.611 -12.373  22.366  1.00  0.00     0.163 HD
ENDBRANCH  12  15
ENDBRANCH   1  12
TORSDOF 6
ENDMDL
MODEL 2
REMARK VINA RESULT: -6.084744630      4.339      7.113
REMARK  6 active torsions:
REMARK  status: ('A' for Active; 'I' for Inactive)
REMARK    1  A    between atoms: C2_2  and  O1_4 
REMARK    2  A    between atoms: O1_4  and  C4_5 
REMARK    3  A    between atoms: C7_8  and  C8_9 
REMARK    4  A    between atoms: C8_9  and  C9_10 
REMARK    5  A    between atoms: C9_10  and  C10_11 
REMARK    6  A    between atoms: C9_10  and  N1_13 
REMARK       I    between atoms: N1_13  and  C11_15 
ROOT
HETATM    1  C8  UNL     1       7.965 -14.657  24.165  1.00  0.00     0.070 C 
ENDROOT
BRANCH   1   2
HETATM    2  C7  UNL     1       9.196 -13.864  23.936  1.00  0.00    -0.056 A 
HETATM    3  C6  UNL     1       9.116 -12.540  23.541  1.00  0.00     0.010 A 
HETATM    4  C5  UNL     1      10.275 -11.833  23.355  1.00  0.00     0.038 A 
HETATM    5  C4  UNL     1      11.530 -12.365  23.541  1.00  0.00     0.075 A 
HETATM    6  C13 UNL     1      11.617 -13.681  23.932  1.00  0.00     0.038 A 
HETATM    7  C12 UNL     1      10.470 -14.389  24.118  1.00  0.00     0.010 A 
BRANCH   5   8
HETATM    8  O1  UNL     1      12.624 -11.556  23.324  1.00  0.00    -0.316 OA
BRANCH   8   9
HETATM    9  C2  UNL     1      13.876 -12.081  22.999  1.00  0.00     0.040 C 
HETATM   10  C1  UNL     1      14.807 -12.044  23.938  1.00  0.00     0.046 C 
HETATM   11  C3  UNL     1      14.171 -12.658  21.671  1.00  0.00     0.076 C 
ENDBRANCH   8   9
ENDBRANCH   5   8
ENDBRANCH   1   2
BRANCH   1  12
HETATM   12  C9  UNL     1       8.110 -16.013  23.566  1.00  0.00     0.149 C 
BRANCH  12  13
HETATM   13  C10 UNL     1       8.169 -17.040  24.630  1.00  0.00     0.256 C 
HETATM   14  O2  UNL     1       8.669 -16.747  25.717  1.00  0.00    -0.305 OA
ENDBRANCH  12  13
BRANCH  12  15
HETATM   15  N1  UNL     1       7.023 -16.350  22.672  1.00  0.00    -0.354 N 
HETATM   16  C11 UNL     1       5.728 -16.723  23.043  1.00  0.00     0.182 C 
HETATM   17  N2  UNL     1       5.239 -17.833  22.620  1.00  0.00    -0.374 N 
HETATM   18  N3  UNL     1       4.890 -15.940  23.875  1.00  0.00    -0.064 NA
ATOM     19  H22 UNL     1       5.842 -18.396  22.020  1.00  0.00     0.158 HD
ATOM     20  H21 UNL     1       4.294 -18.105  22.891  1.00  0.00     0.158 HD
ATOM     21  H1  UNL     1       7.222 -16.312  21.672  1.00  0.00     0.163 HD
ENDBRANCH  12  15
ENDBRANCH   1  12
TORSDOF 6
ENDMDL
MODEL 3
REMARK VINA RESULT: -6.037493306      1.682      2.802
REMARK  6 active torsions:
REMARK  status: ('A' for Active; 'I' for Inactive)
REMARK    1  A    between atoms: C2_2  and  O1_4 
REMARK    2  A    between atoms: O1_4  and  C4_5 
REMARK    3  A    between atoms: C7_8  and  C8_9 
REMARK    4  A    between atoms: C8_9  and  C9_10 
REMARK    5  A    between atoms: C9_10  and  C10_11 
REMARK    6  A    between atoms: C9_10  and  N1_13 
REMARK       I    between atoms: N1_13  and  C11_15 
ROOT
HETATM    1  C8  UNL     1      11.644 -13.847  24.656  1.00  0.00     0.070 C 
ENDROOT
BRANCH   1   2
HETATM    2  C7  UNL     1      10.449 -14.703  24.454  1.00  0.00    -0.056 A 
HETATM    3  C6  UNL     1      10.136 -15.188  23.197  1.00  0.00     0.010 A 
HETATM    4  C5  UNL     1       9.034 -15.989  23.052  1.00  0.00     0.038 A 
HETATM    5  C4  UNL     1       8.210 -16.347  24.094  1.00  0.00     0.075 A 
HETATM    6  C13 UNL     1       8.515 -15.867  25.347  1.00  0.00     0.038 A 
HETATM    7  C12 UNL     1       9.608 -15.070  25.498  1.00  0.00     0.010 A 
BRANCH   5   8
HETATM    8  O1  UNL     1       7.130 -17.160  23.827  1.00  0.00    -0.316 OA
BRANCH   8   9
HETATM    9  C2  UNL     1       6.048 -16.720  23.062  1.00  0.00     0.040 C 
HETATM   10  C1  UNL     1       4.884 -16.601  23.676  1.00  0.00     0.046 C 
HETATM   11  C3  UNL     1       6.176 -16.396  21.626  1.00  0.00     0.076 C 
ENDBRANCH   8   9
ENDBRANCH   5   8
ENDBRANCH   1   2
BRANCH   1  12
HETATM   12  C9  UNL     1      11.663 -12.749  23.651  1.00  0.00     0.149 C 
BRANCH  12  13
HETATM   13  C10 UNL     1      10.415 -11.957  23.733  1.00  0.00     0.256 C 
HETATM   14  O2  UNL     1       9.856 -11.610  22.692  1.00  0.00    -0.305 OA
ENDBRANCH  12  13
BRANCH  12  15
HETATM   15  N1  UNL     1      12.782 -11.849  23.824  1.00  0.00    -0.354 N 
HETATM   16  C11 UNL     1      14.035 -11.955  23.212  1.00  0.00     0.182 C 
HETATM   17  N2  UNL     1      15.096 -11.987  23.936  1.00  0.00    -0.374 N 
HETATM   18  N3  UNL     1      14.224 -12.028  21.810  1.00  0.00    -0.064 NA
ATOM     19  H22 UNL     1      14.960 -11.934  24.945  1.00  0.00     0.158 HD
ATOM     20  H21 UNL     1      16.010 -12.064  23.490  1.00  0.00     0.158 HD
ATOM     21  H1  UNL     1      12.644 -11.059  24.455  1.00  0.00     0.163 HD
ENDBRANCH  12  15
ENDBRANCH   1  12
TORSDOF 6
ENDMDL
MODEL 4
REMARK VINA RESULT: -5.990349009      1.740      3.021
REMARK  6 active torsions:
REMARK  status: ('A' for Active; 'I' for Inactive)
REMARK    1  A    between atoms: C2_2  and  O1_4 
REMARK    2  A    between atoms: O1_4  and  C4_5 
REMARK    3  A    between atoms: C7_8  and  C8_9 
REMARK    4  A    between atoms: C8_9  and  C9_10 
REMARK    5  A    between atoms: C9_10  and  C10_11 
REMARK    6  A    between atoms: C9_10  and  N1_13 
REMARK       I    between atoms: N1_13  and  C11_15 
ROOT
HETATM    1  C8  UNL     1      11.338 -14.060  24.790  1.00  0.00     0.070 C 
ENDROOT
BRANCH   1   2
HETATM    2  C7  UNL     1      10.149 -14.903  24.515  1.00  0.00    -0.056 A 
HETATM    3  C6  UNL     1       9.281 -15.249  25.535  1.00  0.00     0.010 A 
HETATM    4  C5  UNL     1       8.184 -16.014  25.239  1.00  0.00     0.038 A 
HETATM    5  C4  UNL     1       7.887 -16.465  23.974  1.00  0.00     0.075 A 
HETATM    6  C13 UNL     1       8.746 -16.124  22.955  1.00  0.00     0.038 A 
HETATM    7  C12 UNL     1       9.839 -15.365  23.241  1.00  0.00     0.010 A 
BRANCH   5   8
HETATM    8  O1  UNL     1       6.754 -17.228  23.798  1.00  0.00    -0.316 OA
BRANCH   8   9
HETATM    9  C2  UNL     1       5.698 -16.804  22.989  1.00  0.00     0.040 C 
HETATM   10  C1  UNL     1       4.509 -16.694  23.557  1.00  0.00     0.046 C 
HETATM   11  C3  UNL     1       5.878 -16.488  21.557  1.00  0.00     0.076 C 
ENDBRANCH   8   9
ENDBRANCH   5   8
ENDBRANCH   1   2
BRANCH   1  12
HETATM   12  C9  UNL     1      11.420 -12.951  23.800  1.00  0.00     0.149 C 
BRANCH  12  13
HETATM   13  C10 UNL     1      10.164 -12.167  23.802  1.00  0.00     0.256 C 
HETATM   14  O2  UNL     1       9.683 -11.805  22.728  1.00  0.00    -0.305 OA
ENDBRANCH  12  13
BRANCH  12  15
HETATM   15  N1  UNL     1      12.518 -12.046  24.061  1.00  0.00    -0.354 N 
HETATM   16  C11 UNL     1      13.830 -12.177  23.596  1.00  0.00     0.182 C 
HETATM   17  N2  UNL     1      14.805 -12.182  24.432  1.00  0.00    -0.374 N 
HETATM   18  N3  UNL     1      14.173 -12.304  22.227  1.00  0.00    -0.064 NA
ATOM     19  H22 UNL     1      14.558 -12.089  25.418  1.00  0.00     0.158 HD
ATOM     20  H21 UNL     1      15.762 -12.277  24.093  1.00  0.00     0.158 HD
ATOM     21  H1  UNL     1      12.315 -11.232  24.642  1.00  0.00     0.163 HD
ENDBRANCH  12  15
ENDBRANCH   1  12
TORSDOF 6
ENDMDL
MODEL 5
REMARK VINA RESULT: -5.887773061      1.601      2.668
REMARK  6 active torsions:
REMARK  status: ('A' for Active; 'I' for Inactive)
REMARK    1  A    between atoms: C2_2  and  O1_4 
REMARK    2  A    between atoms: O1_4  and  C4_5 
REMARK    3  A    between atoms: C7_8  and  C8_9 
REMARK    4  A    between atoms: C8_9  and  C9_10 
REMARK    5  A    between atoms: C9_10  and  C10_11 
REMARK    6  A    between atoms: C9_10  and  N1_13 
REMARK       I    between atoms: N1_13  and  C11_15 
ROOT
HETATM    1  C8  UNL     1      11.224 -13.860  24.572  1.00  0.00     0.070 C 
ENDROOT
BRANCH   1   2
HETATM    2  C7  UNL     1      10.025 -14.721  24.429  1.00  0.00    -0.056 A 
HETATM    3  C6  UNL     1       9.265 -14.681  23.273  1.00  0.00     0.010 A 
HETATM    4  C5  UNL     1       8.175 -15.504  23.170  1.00  0.00     0.038 A 
HETATM    5  C4  UNL     1       7.784 -16.380  24.156  1.00  0.00     0.075 A 
HETATM    6  C13 UNL     1       8.535 -16.423  25.308  1.00  0.00     0.038 A 
HETATM    7  C12 UNL     1       9.619 -15.608  25.418  1.00  0.00     0.010 A 
BRANCH   5   8
HETATM    8  O1  UNL     1       6.669 -17.158  23.938  1.00  0.00    -0.316 OA
BRANCH   8   9
HETATM    9  C2  UNL     1       5.652 -16.761  23.067  1.00  0.00     0.040 C 
HETATM   10  C1  UNL     1       4.448 -16.586  23.585  1.00  0.00     0.046 C 
HETATM   11  C3  UNL     1       5.888 -16.542  21.625  1.00  0.00     0.076 C 
ENDBRANCH   8   9
ENDBRANCH   5   8
ENDBRANCH   1   2
BRANCH   1  12
HETATM   12  C9  UNL     1      11.578 -13.252  23.260  1.00  0.00     0.149 C 
BRANCH  12  13
HETATM   13  C10 UNL     1      11.216 -11.817  23.245  1.00  0.00     0.256 C 
HETATM   14  O2  UNL     1      10.764 -11.324  22.211  1.00  0.00    -0.305 OA
ENDBRANCH  12  13
BRANCH  12  15
HETATM   15  N1  UNL     1      12.987 -13.366  22.950  1.00  0.00    -0.354 N 
HETATM   16  C11 UNL     1      13.983 -12.435  23.260  1.00  0.00     0.182 C 
HETATM   17  N2  UNL     1      14.727 -11.964  22.324  1.00  0.00    -0.374 N 
HETATM   18  N3  UNL     1      14.240 -11.961  24.570  1.00  0.00    -0.064 NA
ATOM     19  H22 UNL     1      14.542 -12.306  21.381  1.00  0.00     0.158 HD
ATOM     20  H21 UNL     1      15.453 -11.285  22.550  1.00  0.00     0.158 HD
ATOM     21  H1  UNL     1      13.282 -14.209  22.458  1.00  0.00     0.163 HD
ENDBRANCH  12  15
ENDBRANCH   1  12
TORSDOF 6
ENDMDL
