MODEL 1
REMARK VINA RESULT: -6.573355087      0.000      0.000
REMARK  7 active torsions:
REMARK  status: ('A' for Active; 'I' for Inactive)
REMARK    1  A    between atoms: C2_2  and  C3_3 
REMARK    2  A    between atoms: C3_3  and  C4_4 
REMARK    3  A    between atoms: C3_3  and  N1_15 
REMARK    4  A    between atoms: C4_4  and  O1_5 
REMARK    5  A    between atoms: C4_4  and  C5_7 
REMARK    6  A    between atoms: C8_10  and  O2_11 
REMARK    7  A    between atoms: N1_15  and  C12_18 
ROOT
HETATM    1  C4  UNL     1      12.066 -13.828  23.494  1.00  0.00     0.190 C 
ENDROOT
BRANCH   1   2
HETATM    2  C3  UNL     1      11.916 -12.358  23.454  1.00  0.00     0.287 C 
BRANCH   2   3
HETATM    3  C2  UNL     1      13.259 -11.760  23.921  1.00  0.00     0.041 C 
HETATM    4  C1  UNL     1      14.290 -12.846  24.137  1.00  0.00     0.008 C 
ENDBRANCH   2   3
BRANCH   2   5
HETATM    5  N1  UNL     1      11.390 -11.716  22.327  1.00  0.00     0.016 N 
HETATM    6  C11 UNL     1      11.956 -10.355  22.133  1.00  0.00     0.357 C 
HETATM    7  O3  UNL     1      11.703 -12.305  21.122  1.00  0.00    -0.064 OA
BRANCH   5   8
HETATM    8  C12 UNL     1       9.966 -11.518  22.269  1.00  0.00     0.307 C 
HETATM    9  C13 UNL     1       9.301 -11.367  23.602  1.00  0.00     0.044 C 
ENDBRANCH   5   8
ENDBRANCH   2   5
ENDBRANCH   1   2
BRANCH   1  10
HETATM   10  O1  UNL     1      12.530 -14.464  22.368  1.00  0.00    -0.388 OA
ATOM     11  H1  UNL     1      12.686 -15.399  22.413  1.00  0.00     0.210 HD
ENDBRANCH   1  10
BRANCH   1  12
HETATM   12  C5  UNL     1      10.896 -14.582  24.010  1.00  0.00    -0.027 A 
HETATM   13  C6  UNL     1      10.557 -14.664  25.344  1.00  0.00     0.012 A 
HETATM   14  C7  UNL     1       9.460 -15.380  25.787  1.00  0.00     0.037 A 
HETATM   15  C8  UNL     1       8.657 -16.044  24.890  1.00  0.00     0.065 A 
HETATM   16  C9  UNL     1       8.958 -15.986  23.559  1.00  0.00     0.037 A 
HETATM   17  C10 UNL     1      10.040 -15.278  23.148  1.00  0.00     0.012 A 
BRANCH  15  18
HETATM   18  O2  UNL     1       7.536 -16.782  25.279  1.00  0.00    -0.361 OA
ATOM     19  H2  UNL     1       7.232 -17.547  24.803  1.00  0.00     0.217 HD
ENDBRANCH  15  18
ENDBRANCH   1  12
TORSDOF 7
ENDMDL
MODEL 2
REMARK VINA RESULT: -6.372510323      1.513      2.647
REMARK  7 active torsions:
REMARK  status: ('A' for Active; 'I' for Inactive)
REMARK    1  A    between atoms: C2_2  and  C3_3 
REMARK    2  A    between atoms: C3_3  and  C4_4 
REMARK    3  A    between atoms: C3_3  and  N1_15 
REMARK    4  A    between atoms: C4_4  and  O1_5 
REMARK    5  A    between atoms: C4_4  and  C5_7 
REMARK    6  A    between atoms: C8_10  and  O2_11 
REMARK    7  A    between atoms: N1_15  and  C12_18 
ROOT
HETATM    1  C4  UNL     1      11.935 -13.302  24.346  1.00  0.00     0.190 C 
ENDROOT
BRANCH   1   2
HETATM    2  C3  UNL     1      11.869 -12.415  23.166  1.00  0.00     0.287 C 
BRANCH   2   3
HETATM    3  C2  UNL     1      10.718 -11.420  23.418  1.00  0.00     0.041 C 
HETATM    4  C1  UNL     1       9.629 -11.578  22.378  1.00  0.00     0.008 C 
ENDBRANCH   2   3
BRANCH   2   5
HETATM    5  N1  UNL     1      13.021 -11.805  22.655  1.00  0.00     0.016 N 
HETATM    6  C11 UNL     1      12.749 -10.457  22.091  1.00  0.00     0.357 C 
HETATM    7  O3  UNL     1      13.986 -11.508  23.592  1.00  0.00    -0.064 OA
BRANCH   5   8
HETATM    8  C12 UNL     1      13.737 -12.488  21.608  1.00  0.00     0.307 C 
HETATM    9  C13 UNL     1      12.963 -13.576  20.930  1.00  0.00     0.044 C 
ENDBRANCH   5   8
ENDBRANCH   2   5
ENDBRANCH   1   2
BRANCH   1  10
HETATM   10  O1  UNL     1      13.127 -13.926  24.622  1.00  0.00    -0.388 OA
ATOM     11  H1  UNL     1      13.574 -13.701  25.430  1.00  0.00     0.210 HD
ENDBRANCH   1  10
BRANCH   1  12
HETATM   12  C5  UNL     1      10.844 -14.302  24.463  1.00  0.00    -0.027 A 
HETATM   13  C6  UNL     1      10.237 -14.912  23.386  1.00  0.00     0.012 A 
HETATM   14  C7  UNL     1       9.221 -15.838  23.535  1.00  0.00     0.037 A 
HETATM   15  C8  UNL     1       8.777 -16.184  24.789  1.00  0.00     0.065 A 
HETATM   16  C9  UNL     1       9.352 -15.601  25.882  1.00  0.00     0.037 A 
HETATM   17  C10 UNL     1      10.348 -14.697  25.711  1.00  0.00     0.012 A 
BRANCH  15  18
HETATM   18  O2  UNL     1       7.753 -17.113  25.001  1.00  0.00    -0.361 OA
ATOM     19  H2  UNL     1       6.897 -16.869  25.334  1.00  0.00     0.217 HD
ENDBRANCH  15  18
ENDBRANCH   1  12
TORSDOF 7
ENDMDL
MODEL 3
REMARK VINA RESULT: -6.180344146      1.561      2.794
REMARK  7 active torsions:
REMARK  status: ('A' for Active; 'I' for Inactive)
REMARK    1  A    between atoms: C2_2  and  C3_3 
REMARK    2  A    between atoms: C3_3  and  C4_4 
REMARK    3  A    between atoms: C3_3  and  N1_15 
REMARK    4  A    between atoms: C4_4  and  O1_5 
REMARK    5  A    between atoms: C4_4  and  C5_7 
REMARK    6  A    between atoms: C8_10  and  O2_11 
REMARK    7  A    between atoms: N1_15  and  C12_18 
ROOT
HETATM    1  C4  UNL     1      10.928 -12.703  23.734  1.00  0.00     0.190 C 
ENDROOT
BRANCH   1   2
HETATM    2  C3  UNL     1      11.816 -12.916  22.572  1.00  0.00     0.287 C 
BRANCH   2   3
HETATM    3  C2  UNL     1      11.116 -12.282  21.353  1.00  0.00     0.041 C 
HETATM    4  C1  UNL     1      10.096 -11.253  21.788  1.00  0.00     0.008 C 
ENDBRANCH   2   3
BRANCH   2   5
HETATM    5  N1  UNL     1      13.181 -12.614  22.640  1.00  0.00     0.016 N 
HETATM    6  C11 UNL     1      13.924 -13.059  21.432  1.00  0.00     0.357 C 
HETATM    7  O3  UNL     1      13.480 -11.269  22.652  1.00  0.00    -0.064 OA
BRANCH   5   8
HETATM    8  C12 UNL     1      13.937 -13.158  23.739  1.00  0.00     0.307 C 
HETATM    9  C13 UNL     1      14.858 -12.183  24.405  1.00  0.00     0.044 C 
ENDBRANCH   5   8
ENDBRANCH   2   5
ENDBRANCH   1   2
BRANCH   1  10
HETATM   10  O1  UNL     1      11.441 -12.051  24.831  1.00  0.00    -0.388 OA
ATOM     11  H1  UNL     1      10.959 -12.102  25.648  1.00  0.00     0.210 HD
ENDBRANCH   1  10
BRANCH   1  12
HETATM   12  C5  UNL     1      10.182 -13.896  24.204  1.00  0.00    -0.027 A 
HETATM   13  C6  UNL     1      10.417 -14.529  25.406  1.00  0.00     0.012 A 
HETATM   14  C7  UNL     1       9.702 -15.643  25.809  1.00  0.00     0.037 A 
HETATM   15  C8  UNL     1       8.715 -16.161  25.005  1.00  0.00     0.065 A 
HETATM   16  C9  UNL     1       8.452 -15.563  23.805  1.00  0.00     0.037 A 
HETATM   17  C10 UNL     1       9.166 -14.472  23.432  1.00  0.00     0.012 A 
BRANCH  15  18
HETATM   18  O2  UNL     1       7.961 -17.284  25.359  1.00  0.00    -0.361 OA
ATOM     19  H2  UNL     1       7.027 -17.244  25.530  1.00  0.00     0.217 HD
ENDBRANCH  15  18
ENDBRANCH   1  12
TORSDOF 7
ENDMDL
MODEL 4
REMARK VINA RESULT: -6.116622807      1.573      2.997
REMARK  7 active torsions:
REMARK  status: ('A' for Active; 'I' for Inactive)
REMARK    1  A    between atoms: C2_2  and  C3_3 
REMARK    2  A    between atoms: C3_3  and  C4_4 
REMARK    3  A    between atoms: C3_3  and  N1_15 
REMARK    4  A    between atoms: C4_4  and  O1_5 
REMARK    5  A    between atoms: C4_4  and  C5_7 
REMARK    6  A    between atoms: C8_10  and  O2_11 
REMARK    7  A    between atoms: N1_15  and  C12_18 
ROOT
HETATM    1  C4  UNL     1      10.953 -12.716  23.697  1.00  0.00     0.190 C 
ENDROOT
BRANCH   1   2
HETATM    2  C3  UNL     1      11.901 -12.917  22.582  1.00  0.00     0.287 C 
BRANCH   2   3
HETATM    3  C2  UNL     1      11.230 -12.347  21.316  1.00  0.00     0.041 C 
HETATM    4  C1  UNL     1      10.233 -11.266  21.672  1.00  0.00     0.008 C 
ENDBRANCH   2   3
BRANCH   2   5
HETATM    5  N1  UNL     1      13.247 -12.552  22.703  1.00  0.00     0.016 N 
HETATM    6  C11 UNL     1      14.047 -12.919  21.505  1.00  0.00     0.357 C 
HETATM    7  O3  UNL     1      13.478 -11.195  22.767  1.00  0.00    -0.064 OA
BRANCH   5   8
HETATM    8  C12 UNL     1      13.996 -13.094  23.807  1.00  0.00     0.307 C 
HETATM    9  C13 UNL     1      14.873 -12.105  24.511  1.00  0.00     0.044 C 
ENDBRANCH   5   8
ENDBRANCH   2   5
ENDBRANCH   1   2
BRANCH   1  10
HETATM   10  O1  UNL     1      11.411 -12.095  24.834  1.00  0.00    -0.388 OA
ATOM     11  H1  UNL     1      10.993 -12.307  25.660  1.00  0.00     0.210 HD
ENDBRANCH   1  10
BRANCH   1  12
HETATM   12  C5  UNL     1      10.166 -13.909  24.098  1.00  0.00    -0.027 A 
HETATM   13  C6  UNL     1       9.175 -14.476  23.325  1.00  0.00     0.012 A 
HETATM   14  C7  UNL     1       8.460 -15.587  23.735  1.00  0.00     0.037 A 
HETATM   15  C8  UNL     1       8.724 -16.171  24.951  1.00  0.00     0.065 A 
HETATM   16  C9  UNL     1       9.699 -15.639  25.747  1.00  0.00     0.037 A 
HETATM   17  C10 UNL     1      10.387 -14.549  25.324  1.00  0.00     0.012 A 
BRANCH  15  18
HETATM   18  O2  UNL     1       8.035 -17.294  25.418  1.00  0.00    -0.361 OA
ATOM     19  H2  UNL     1       8.378 -18.177  25.341  1.00  0.00     0.217 HD
ENDBRANCH  15  18
ENDBRANCH   1  12
TORSDOF 7
ENDMDL
MODEL 5
REMARK VINA RESULT: -5.991817431      1.386      2.672
REMARK  7 active torsions:
REMARK  status: ('A' for Active; 'I' for Inactive)
REMARK    1  A    between atoms: C2_2  and  C3_3 
REMARK    2  A    between atoms: C3_3  and  C4_4 
REMARK    3  A    between atoms: C3_3  and  N1_15 
REMARK    4  A    between atoms: C4_4  and  O1_5 
REMARK    5  A    between atoms: C4_4  and  C5_7 
REMARK    6  A    between atoms: C8_10  and  O2_11 
REMARK    7  A    between atoms: N1_15  and  C12_18 
ROOT
HETATM    1  C4  UNL     1      10.805 -12.726  23.782  1.00  0.00     0.190 C 
ENDROOT
BRANCH   1   2
HETATM    2  C3  UNL     1      11.327 -12.757  22.400  1.00  0.00     0.287 C 
BRANCH   2   3
HETATM    3  C2  UNL     1      10.723 -11.543  21.666  1.00  0.00     0.041 C 
HETATM    4  C1  UNL     1       9.639 -10.893  22.497  1.00  0.00     0.008 C 
ENDBRANCH   2   3
BRANCH   2   5
HETATM    5  N1  UNL     1      12.694 -12.929  22.148  1.00  0.00     0.016 N 
HETATM    6  C11 UNL     1      13.336 -13.869  23.103  1.00  0.00     0.357 C 
HETATM    7  O3  UNL     1      12.991 -13.532  20.945  1.00  0.00    -0.064 OA
BRANCH   5   8
HETATM    8  C12 UNL     1      13.536 -11.762  22.180  1.00  0.00     0.307 C 
HETATM    9  C13 UNL     1      14.553 -11.757  23.279  1.00  0.00     0.044 C 
ENDBRANCH   5   8
ENDBRANCH   2   5
ENDBRANCH   1   2
BRANCH   1  10
HETATM   10  O1  UNL     1      11.660 -12.348  24.790  1.00  0.00    -0.388 OA
ATOM     11  H1  UNL     1      11.362 -11.691  25.407  1.00  0.00     0.210 HD
ENDBRANCH   1  10
BRANCH   1  12
HETATM   12  C5  UNL     1      10.067 -13.936  24.222  1.00  0.00    -0.027 A 
HETATM   13  C6  UNL     1      10.256 -14.555  25.439  1.00  0.00     0.012 A 
HETATM   14  C7  UNL     1       9.551 -15.685  25.813  1.00  0.00     0.037 A 
HETATM   15  C8  UNL     1       8.621 -16.235  24.962  1.00  0.00     0.065 A 
HETATM   16  C9  UNL     1       8.405 -15.651  23.746  1.00  0.00     0.037 A 
HETATM   17  C10 UNL     1       9.108 -14.543  23.402  1.00  0.00     0.012 A 
BRANCH  15  18
HETATM   18  O2  UNL     1       7.880 -17.375  25.285  1.00  0.00    -0.361 OA
ATOM     19  H2  UNL     1       7.785 -18.113  24.693  1.00  0.00     0.217 HD
ENDBRANCH  15  18
ENDBRANCH   1  12
TORSDOF 7
ENDMDL
