MODEL 1
REMARK VINA RESULT: -5.356604613      0.000      0.000
REMARK  8 active torsions:
REMARK  status: ('A' for Active; 'I' for Inactive)
REMARK    1  A    between atoms: C2_2  and  C3_3 
REMARK    2  A    between atoms: C3_3  and  C4_4 
REMARK    3  A    between atoms: C4_4  and  N1_5 
REMARK    4  A    between atoms: C4_4  and  N2_9 
REMARK    5  A    between atoms: C4_4  and  C6_12 
REMARK    6  A    between atoms: C6_12  and  N3_13 
REMARK    7  A    between atoms: N4_19  and  C9_20 
REMARK    8  A    between atoms: C9_20  and  C10_21 
ROOT
HETATM    1  C6  UNL     1      10.824 -13.538  24.260  1.00  0.00     0.180 C 
HETATM    2  C7  UNL     1      10.863 -14.419  25.436  1.00  0.00     0.087 C 
HETATM    3  C8  UNL     1       9.773 -15.386  25.654  1.00  0.00     0.060 C 
HETATM    4  N4  UNL     1       8.618 -15.344  24.856  1.00  0.00    -0.393 N 
HETATM    5  C12 UNL     1       8.562 -14.337  23.849  1.00  0.00     0.124 C 
HETATM    6  C13 UNL     1       9.913 -14.184  23.188  1.00  0.00     0.063 C 
ENDROOT
BRANCH   1   7
HETATM    7  C4  UNL     1      12.129 -13.340  23.555  1.00  0.00     0.228 C 
BRANCH   7   8
HETATM    8  C3  UNL     1      12.332 -14.059  22.274  1.00  0.00     0.090 C 
BRANCH   8   9
HETATM    9  C2  UNL     1      12.921 -13.318  21.152  1.00  0.00    -0.033 C 
HETATM   10  C1  UNL     1      14.234 -13.326  20.974  1.00  0.00     0.007 C 
ENDBRANCH   8   9
ENDBRANCH   7   8
BRANCH   7  11
HETATM   11  N1  UNL     1      12.171 -11.884  23.253  1.00  0.00    -0.050 N 
ATOM     12  H13 UNL     1      13.045 -11.442  23.539  1.00  0.00     0.277 HD
ATOM     13  H12 UNL     1      12.242 -11.684  22.255  1.00  0.00     0.277 HD
ATOM     14  H11 UNL     1      11.351 -11.462  23.688  1.00  0.00     0.277 HD
ENDBRANCH   7  11
BRANCH   7  15
HETATM   15  N2  UNL     1      13.288 -13.555  24.390  1.00  0.00    -0.393 N 
HETATM   16  C5  UNL     1      14.300 -12.578  24.351  1.00  0.00     0.142 C 
ATOM     17  H2  UNL     1      13.369 -14.380  24.983  1.00  0.00     0.155 HD
ENDBRANCH   7  15
ENDBRANCH   1   7
BRANCH   1  18
HETATM   18  N3  UNL     1      10.156 -12.286  24.597  1.00  0.00    -0.066 N 
ATOM     19  H33 UNL     1      10.463 -11.945  25.507  1.00  0.00     0.275 HD
ATOM     20  H32 UNL     1      10.493 -11.525  24.008  1.00  0.00     0.275 HD
ATOM     21  H31 UNL     1       9.139 -12.350  24.558  1.00  0.00     0.275 HD
ENDBRANCH   1  18
BRANCH   4  22
HETATM   22  C9  UNL     1       8.119 -16.626  24.425  1.00  0.00     0.121 C 
BRANCH  22  23
HETATM   23  C10 UNL     1       7.291 -16.502  23.164  1.00  0.00     0.015 C 
HETATM   24  C11 UNL     1       5.821 -16.703  23.431  1.00  0.00     0.006 C 
ENDBRANCH  22  23
ENDBRANCH   4  22
TORSDOF 8
ENDMDL
MODEL 2
REMARK VINA RESULT: -5.090308677      0.890      1.892
REMARK  8 active torsions:
REMARK  status: ('A' for Active; 'I' for Inactive)
REMARK    1  A    between atoms: C2_2  and  C3_3 
REMARK    2  A    between atoms: C3_3  and  C4_4 
REMARK    3  A    between atoms: C4_4  and  N1_5 
REMARK    4  A    between atoms: C4_4  and  N2_9 
REMARK    5  A    between atoms: C4_4  and  C6_12 
REMARK    6  A    between atoms: C6_12  and  N3_13 
REMARK    7  A    between atoms: N4_19  and  C9_20 
REMARK    8  A    between atoms: C9_20  and  C10_21 
ROOT
HETATM    1  C6  UNL     1      10.854 -13.682  24.168  1.00  0.00     0.180 C 
HETATM    2  C7  UNL     1      10.913 -14.532  25.365  1.00  0.00     0.087 C 
HETATM    3  C8  UNL     1       9.778 -15.416  25.684  1.00  0.00     0.060 C 
HETATM    4  N4  UNL     1       8.577 -15.316  24.964  1.00  0.00    -0.393 N 
HETATM    5  C12 UNL     1       8.520 -14.335  23.932  1.00  0.00     0.124 C 
HETATM    6  C13 UNL     1       9.830 -14.292  23.178  1.00  0.00     0.063 C 
ENDROOT
BRANCH   1   7
HETATM    7  C4  UNL     1      12.118 -13.593  23.372  1.00  0.00     0.228 C 
BRANCH   7   8
HETATM    8  C3  UNL     1      13.394 -13.500  24.121  1.00  0.00     0.090 C 
BRANCH   8   9
HETATM    9  C2  UNL     1      14.377 -12.499  23.689  1.00  0.00    -0.033 C 
HETATM   10  C1  UNL     1      14.819 -11.595  24.551  1.00  0.00     0.007 C 
ENDBRANCH   8   9
ENDBRANCH   7   8
BRANCH   7  11
HETATM   11  N1  UNL     1      12.156 -14.859  22.593  1.00  0.00    -0.050 N 
ATOM     12  H13 UNL     1      11.344 -15.454  22.758  1.00  0.00     0.277 HD
ATOM     13  H12 UNL     1      12.014 -14.717  21.593  1.00  0.00     0.277 HD
ATOM     14  H11 UNL     1      13.039 -15.321  22.810  1.00  0.00     0.277 HD
ENDBRANCH   7  11
BRANCH   7  15
HETATM   15  N2  UNL     1      12.105 -12.563  22.360  1.00  0.00    -0.393 N 
HETATM   16  C5  UNL     1      12.439 -12.946  21.047  1.00  0.00     0.142 C 
ATOM     17  H2  UNL     1      11.863 -11.598  22.586  1.00  0.00     0.155 HD
ENDBRANCH   7  15
ENDBRANCH   1   7
BRANCH   1  18
HETATM   18  N3  UNL     1      10.294 -12.379  24.508  1.00  0.00    -0.066 N 
ATOM     19  H33 UNL     1       9.386 -12.482  24.961  1.00  0.00     0.275 HD
ATOM     20  H32 UNL     1      10.816 -11.949  25.272  1.00  0.00     0.275 HD
ATOM     21  H31 UNL     1      10.232 -11.746  23.711  1.00  0.00     0.275 HD
ENDBRANCH   1  18
BRANCH   4  22
HETATM   22  C9  UNL     1       7.965 -16.571  24.606  1.00  0.00     0.121 C 
BRANCH  22  23
HETATM   23  C10 UNL     1       7.238 -16.476  23.282  1.00  0.00     0.015 C 
HETATM   24  C11 UNL     1       5.756 -16.703  23.433  1.00  0.00     0.006 C 
ENDBRANCH  22  23
ENDBRANCH   4  22
TORSDOF 8
ENDMDL
MODEL 3
REMARK VINA RESULT: -4.821598297      1.578      2.570
REMARK  8 active torsions:
REMARK  status: ('A' for Active; 'I' for Inactive)
REMARK    1  A    between atoms: C2_2  and  C3_3 
REMARK    2  A    between atoms: C3_3  and  C4_4 
REMARK    3  A    between atoms: C4_4  and  N1_5 
REMARK    4  A    between atoms: C4_4  and  N2_9 
REMARK    5  A    between atoms: C4_4  and  C6_12 
REMARK    6  A    between atoms: C6_12  and  N3_13 
REMARK    7  A    between atoms: N4_19  and  C9_20 
REMARK    8  A    between atoms: C9_20  and  C10_21 
ROOT
HETATM    1  C6  UNL     1      12.102 -13.405  23.661  1.00  0.00     0.180 C 
HETATM    2  C7  UNL     1      11.619 -14.417  22.711  1.00  0.00     0.087 C 
HETATM    3  C8  UNL     1      10.457 -15.250  23.067  1.00  0.00     0.060 C 
HETATM    4  N4  UNL     1       9.929 -15.213  24.367  1.00  0.00    -0.393 N 
HETATM    5  C12 UNL     1      10.566 -14.344  25.300  1.00  0.00     0.124 C 
HETATM    6  C13 UNL     1      10.947 -13.044  24.628  1.00  0.00     0.063 C 
ENDROOT
BRANCH   1   7
HETATM    7  C4  UNL     1      12.498 -12.091  23.064  1.00  0.00     0.228 C 
BRANCH   7   8
HETATM    8  C3  UNL     1      11.456 -11.042  22.963  1.00  0.00     0.090 C 
BRANCH   8   9
HETATM    9  C2  UNL     1      10.716 -10.922  21.701  1.00  0.00    -0.033 C 
HETATM   10  C1  UNL     1       9.571 -11.569  21.544  1.00  0.00     0.007 C 
ENDBRANCH   8   9
ENDBRANCH   7   8
BRANCH   7  11
HETATM   11  N1  UNL     1      13.556 -11.575  23.973  1.00  0.00    -0.050 N 
ATOM     12  H13 UNL     1      13.669 -10.563  23.919  1.00  0.00     0.277 HD
ATOM     13  H12 UNL     1      13.297 -11.627  24.958  1.00  0.00     0.277 HD
ATOM     14  H11 UNL     1      14.414 -12.084  23.758  1.00  0.00     0.277 HD
ENDBRANCH   7  11
BRANCH   7  15
HETATM   15  N2  UNL     1      13.162 -12.202  21.787  1.00  0.00    -0.393 N 
HETATM   16  C5  UNL     1      14.547 -12.450  21.800  1.00  0.00     0.142 C 
ATOM     17  H2  UNL     1      12.648 -12.105  20.911  1.00  0.00     0.155 HD
ENDBRANCH   7  15
ENDBRANCH   1   7
BRANCH   1  18
HETATM   18  N3  UNL     1      13.128 -13.980  24.523  1.00  0.00    -0.066 N 
ATOM     19  H33 UNL     1      13.566 -13.258  25.096  1.00  0.00     0.275 HD
ATOM     20  H32 UNL     1      12.708 -14.548  25.258  1.00  0.00     0.275 HD
ATOM     21  H31 UNL     1      13.832 -14.512  24.011  1.00  0.00     0.275 HD
ENDBRANCH   1  18
BRANCH   4  22
HETATM   22  C9  UNL     1       8.490 -15.198  24.449  1.00  0.00     0.121 C 
BRANCH  22  23
HETATM   23  C10 UNL     1       7.909 -16.582  24.253  1.00  0.00     0.015 C 
HETATM   24  C11 UNL     1       6.784 -16.586  23.249  1.00  0.00     0.006 C 
ENDBRANCH  22  23
ENDBRANCH   4  22
TORSDOF 8
ENDMDL
MODEL 4
REMARK VINA RESULT: -4.746066540      1.349      1.861
REMARK  8 active torsions:
REMARK  status: ('A' for Active; 'I' for Inactive)
REMARK    1  A    between atoms: C2_2  and  C3_3 
REMARK    2  A    between atoms: C3_3  and  C4_4 
REMARK    3  A    between atoms: C4_4  and  N1_5 
REMARK    4  A    between atoms: C4_4  and  N2_9 
REMARK    5  A    between atoms: C4_4  and  C6_12 
REMARK    6  A    between atoms: C6_12  and  N3_13 
REMARK    7  A    between atoms: N4_19  and  C9_20 
REMARK    8  A    between atoms: C9_20  and  C10_21 
ROOT
HETATM    1  C6  UNL     1      11.112 -13.627  23.530  1.00  0.00     0.180 C 
HETATM    2  C7  UNL     1      10.862 -14.907  22.852  1.00  0.00     0.087 C 
HETATM    3  C8  UNL     1       9.814 -15.807  23.367  1.00  0.00     0.060 C 
HETATM    4  N4  UNL     1       9.188 -15.539  24.595  1.00  0.00    -0.393 N 
HETATM    5  C12 UNL     1       9.614 -14.374  25.297  1.00  0.00     0.124 C 
HETATM    6  C13 UNL     1       9.845 -13.235  24.331  1.00  0.00     0.063 C 
ENDROOT
BRANCH   1   7
HETATM    7  C4  UNL     1      11.350 -12.454  22.632  1.00  0.00     0.228 C 
BRANCH   7   8
HETATM    8  C3  UNL     1      11.999 -12.712  21.324  1.00  0.00     0.090 C 
BRANCH   8   9
HETATM    9  C2  UNL     1      13.286 -13.418  21.320  1.00  0.00    -0.033 C 
HETATM   10  C1  UNL     1      14.403 -12.755  21.586  1.00  0.00     0.007 C 
ENDBRANCH   8   9
ENDBRANCH   7   8
BRANCH   7  11
HETATM   11  N1  UNL     1       9.990 -11.920  22.350  1.00  0.00    -0.050 N 
ATOM     12  H13 UNL     1       9.997 -10.940  22.067  1.00  0.00     0.277 HD
ATOM     13  H12 UNL     1       9.580 -12.302  21.498  1.00  0.00     0.277 HD
ATOM     14  H11 UNL     1       9.421 -12.092  23.179  1.00  0.00     0.277 HD
ENDBRANCH   7  11
BRANCH   7  15
HETATM   15  N2  UNL     1      12.030 -11.352  23.272  1.00  0.00    -0.393 N 
HETATM   16  C5  UNL     1      12.185 -10.169  22.524  1.00  0.00     0.142 C 
ATOM     17  H2  UNL     1      12.383 -11.427  24.226  1.00  0.00     0.155 HD
ENDBRANCH   7  15
ENDBRANCH   1   7
BRANCH   1  18
HETATM   18  N3  UNL     1      12.144 -13.794  24.546  1.00  0.00    -0.066 N 
ATOM     19  H33 UNL     1      13.039 -13.433  24.216  1.00  0.00     0.275 HD
ATOM     20  H32 UNL     1      11.986 -13.163  25.331  1.00  0.00     0.275 HD
ATOM     21  H31 UNL     1      12.240 -14.757  24.868  1.00  0.00     0.275 HD
ENDBRANCH   1  18
BRANCH   4  22
HETATM   22  C9  UNL     1       7.762 -15.743  24.618  1.00  0.00     0.121 C 
BRANCH  22  23
HETATM   23  C10 UNL     1       7.291 -16.514  23.403  1.00  0.00     0.015 C 
HETATM   24  C11 UNL     1       5.788 -16.619  23.348  1.00  0.00     0.006 C 
ENDBRANCH  22  23
ENDBRANCH   4  22
TORSDOF 8
ENDMDL
MODEL 5
REMARK VINA RESULT: -4.686598516      1.595      5.680
REMARK  8 active torsions:
REMARK  status: ('A' for Active; 'I' for Inactive)
REMARK    1  A    between atoms: C2_2  and  C3_3 
REMARK    2  A    between atoms: C3_3  and  C4_4 
REMARK    3  A    between atoms: C4_4  and  N1_5 
REMARK    4  A    between atoms: C4_4  and  N2_9 
REMARK    5  A    between atoms: C4_4  and  C6_12 
REMARK    6  A    between atoms: C6_12  and  N3_13 
REMARK    7  A    between atoms: N4_19  and  C9_20 
REMARK    8  A    between atoms: C9_20  and  C10_21 
ROOT
HETATM    1  C6  UNL     1      10.531 -12.981  23.042  1.00  0.00     0.180 C 
HETATM    2  C7  UNL     1      11.347 -13.375  21.884  1.00  0.00     0.087 C 
HETATM    3  C8  UNL     1      12.488 -12.533  21.481  1.00  0.00     0.060 C 
HETATM    4  N4  UNL     1      12.685 -11.275  22.072  1.00  0.00    -0.393 N 
HETATM    5  C12 UNL     1      11.742 -10.869  23.061  1.00  0.00     0.124 C 
HETATM    6  C13 UNL     1      11.370 -12.041  23.942  1.00  0.00     0.063 C 
ENDROOT
BRANCH   1   7
HETATM    7  C4  UNL     1      10.126 -14.093  23.958  1.00  0.00     0.228 C 
BRANCH   7   8
HETATM    8  C3  UNL     1       8.678 -14.390  24.077  1.00  0.00     0.090 C 
BRANCH   8   9
HETATM    9  C2  UNL     1       8.204 -15.704  23.628  1.00  0.00    -0.033 C 
HETATM   10  C1  UNL     1       7.441 -16.437  24.427  1.00  0.00     0.007 C 
ENDBRANCH   8   9
ENDBRANCH   7   8
BRANCH   7  11
HETATM   11  N1  UNL     1      10.777 -15.301  23.385  1.00  0.00    -0.050 N 
ATOM     12  H13 UNL     1      11.796 -15.258  23.416  1.00  0.00     0.277 HD
ATOM     13  H12 UNL     1      10.662 -16.131  23.968  1.00  0.00     0.277 HD
ATOM     14  H11 UNL     1      10.411 -15.423  22.441  1.00  0.00     0.277 HD
ENDBRANCH   7  11
BRANCH   7  15
HETATM   15  N2  UNL     1      10.684 -13.994  25.286  1.00  0.00    -0.393 N 
HETATM   16  C5  UNL     1      10.330 -14.994  26.210  1.00  0.00     0.142 C 
ATOM     17  H2  UNL     1      11.310 -13.230  25.543  1.00  0.00     0.155 HD
ENDBRANCH   7  15
ENDBRANCH   1   7
BRANCH   1  18
HETATM   18  N3  UNL     1       9.410 -12.157  22.604  1.00  0.00    -0.066 N 
ATOM     19  H33 UNL     1       8.752 -12.007  23.368  1.00  0.00     0.275 HD
ATOM     20  H32 UNL     1       9.708 -11.195  22.445  1.00  0.00     0.275 HD
ATOM     21  H31 UNL     1       8.934 -12.529  21.783  1.00  0.00     0.275 HD
ENDBRANCH   1  18
BRANCH   4  22
HETATM   22  C9  UNL     1      14.050 -10.957  22.407  1.00  0.00     0.121 C 
BRANCH  22  23
HETATM   23  C10 UNL     1      14.719 -12.096  23.146  1.00  0.00     0.015 C 
HETATM   24  C11 UNL     1      14.925 -11.780  24.606  1.00  0.00     0.006 C 
ENDBRANCH  22  23
ENDBRANCH   4  22
TORSDOF 8
ENDMDL
