MODEL 1
REMARK VINA RESULT: -4.949944593      0.000      0.000
REMARK  5 active torsions:
REMARK  status: ('A' for Active; 'I' for Inactive)
REMARK    1  A    between atoms: C3_4  and  C4_5 
REMARK    2  A    between atoms: C4_5  and  N1_6 
REMARK    3  A    between atoms: C8_10  and  O2_11 
REMARK    4  A    between atoms: C9_13  and  O3_14 
REMARK    5  A    between atoms: C10_16  and  C11_17 
ROOT
HETATM    1  C1  UNL     1      18.614  19.436  24.396  1.00  0.00     0.040 C 
HETATM    2  C2  UNL     1      17.250  18.965  23.864  1.00  0.00     0.133 C 
HETATM    3  O1  UNL     1      16.312  19.667  24.540  1.00  0.00    -0.376 OA
HETATM    4  C3  UNL     1      14.969  19.328  24.286  1.00  0.00     0.179 C 
HETATM    5  C8  UNL     1      14.915  18.014  23.628  1.00  0.00     0.178 C 
HETATM    6  C9  UNL     1      15.796  16.997  24.342  1.00  0.00     0.164 C 
HETATM    7  C10 UNL     1      17.216  17.476  24.104  1.00  0.00     0.135 C 
ENDROOT
BRANCH   4   8
HETATM    8  C4  UNL     1      14.254  19.551  25.557  1.00  0.00     0.270 C 
BRANCH   8   9
HETATM    9  N1  UNL     1      13.818  20.873  25.899  1.00  0.00    -0.076 N 
HETATM   10  C5  UNL     1      12.926  20.662  27.085  1.00  0.00     0.271 C 
HETATM   11  C6  UNL     1      12.938  21.486  24.924  1.00  0.00     0.271 C 
HETATM   12  C7  UNL     1      14.832  21.778  26.335  1.00  0.00     0.271 C 
ENDBRANCH   8   9
ENDBRANCH   4   8
BRANCH   5  13
HETATM   13  O2  UNL     1      13.699  17.503  23.279  1.00  0.00    -0.390 OA
ATOM     14  H2  UNL     1      13.338  16.789  23.791  1.00  0.00     0.210 HD
ENDBRANCH   5  13
BRANCH   6  15
HETATM   15  O3  UNL     1      15.552  15.761  23.742  1.00  0.00    -0.392 OA
ATOM     16  H3  UNL     1      16.395  15.337  23.636  1.00  0.00     0.210 HD
ENDBRANCH   6  15
BRANCH   7  17
HETATM   17  C11 UNL     1      17.713  16.806  22.877  1.00  0.00     0.240 C 
HETATM   18  N2  UNL     1      18.551  15.668  22.922  1.00  0.00    -0.062 NA
HETATM   19  O4  UNL     1      17.406  17.226  21.708  1.00  0.00    -0.276 OA
ENDBRANCH   7  17
TORSDOF 5
ENDMDL
MODEL 2
REMARK VINA RESULT: -3.568246154      6.992      8.165
REMARK  5 active torsions:
REMARK  status: ('A' for Active; 'I' for Inactive)
REMARK    1  A    between atoms: C3_4  and  C4_5 
REMARK    2  A    between atoms: C4_5  and  N1_6 
REMARK    3  A    between atoms: C8_10  and  O2_11 
REMARK    4  A    between atoms: C9_13  and  O3_14 
REMARK    5  A    between atoms: C10_16  and  C11_17 
ROOT
HETATM    1  C1  UNL     1      23.235  15.028  20.146  1.00  0.00     0.040 C 
HETATM    2  C2  UNL     1      21.874  14.972  20.860  1.00  0.00     0.133 C 
HETATM    3  O1  UNL     1      22.138  14.796  22.174  1.00  0.00    -0.376 OA
HETATM    4  C3  UNL     1      21.027  14.614  23.019  1.00  0.00     0.179 C 
HETATM    5  C8  UNL     1      19.849  14.270  22.209  1.00  0.00     0.178 C 
HETATM    6  C9  UNL     1      20.172  13.181  21.194  1.00  0.00     0.164 C 
HETATM    7  C10 UNL     1      21.125  13.835  20.210  1.00  0.00     0.135 C 
ENDROOT
BRANCH   4   8
HETATM    8  C4  UNL     1      21.483  13.706  24.088  1.00  0.00     0.270 C 
BRANCH   8   9
HETATM    9  N1  UNL     1      22.593  14.085  24.912  1.00  0.00    -0.076 N 
HETATM   10  C5  UNL     1      22.183  15.410  25.481  1.00  0.00     0.271 C 
HETATM   11  C6  UNL     1      23.805  14.397  24.180  1.00  0.00     0.271 C 
HETATM   12  C7  UNL     1      22.858  13.249  26.038  1.00  0.00     0.271 C 
ENDBRANCH   8   9
ENDBRANCH   4   8
BRANCH   5  13
HETATM   13  O2  UNL     1      18.655  14.066  22.836  1.00  0.00    -0.390 OA
ATOM     14  H2  UNL     1      17.933  14.655  22.650  1.00  0.00     0.210 HD
ENDBRANCH   5  13
BRANCH   6  15
HETATM   15  O3  UNL     1      18.965  12.820  20.593  1.00  0.00    -0.392 OA
ATOM     16  H3  UNL     1      19.083  12.924  19.656  1.00  0.00     0.210 HD
ENDBRANCH   6  15
BRANCH   7  17
HETATM   17  C11 UNL     1      20.309  14.399  19.106  1.00  0.00     0.240 C 
HETATM   18  N2  UNL     1      19.922  15.758  19.069  1.00  0.00    -0.062 NA
HETATM   19  O4  UNL     1      19.912  13.680  18.126  1.00  0.00    -0.276 OA
ENDBRANCH   7  17
TORSDOF 5
ENDMDL
MODEL 3
REMARK VINA RESULT: -3.096279059      1.961      5.826
REMARK  5 active torsions:
REMARK  status: ('A' for Active; 'I' for Inactive)
REMARK    1  A    between atoms: C3_4  and  C4_5 
REMARK    2  A    between atoms: C4_5  and  N1_6 
REMARK    3  A    between atoms: C8_10  and  O2_11 
REMARK    4  A    between atoms: C9_13  and  O3_14 
REMARK    5  A    between atoms: C10_16  and  C11_17 
ROOT
HETATM    1  C1  UNL     1      18.998  19.894  24.374  1.00  0.00     0.040 C 
HETATM    2  C2  UNL     1      18.087  18.654  24.381  1.00  0.00     0.133 C 
HETATM    3  O1  UNL     1      18.798  17.654  23.814  1.00  0.00    -0.376 OA
HETATM    4  C3  UNL     1      18.122  16.434  23.620  1.00  0.00     0.179 C 
HETATM    5  C8  UNL     1      16.673  16.658  23.730  1.00  0.00     0.178 C 
HETATM    6  C9  UNL     1      16.233  17.865  22.912  1.00  0.00     0.164 C 
HETATM    7  C10 UNL     1      16.850  19.059  23.618  1.00  0.00     0.135 C 
ENDROOT
BRANCH   4   8
HETATM    8  C4  UNL     1      18.692  15.851  22.391  1.00  0.00     0.270 C 
BRANCH   8   9
HETATM    9  N1  UNL     1      19.520  14.684  22.480  1.00  0.00    -0.076 N 
HETATM   10  C5  UNL     1      20.091  14.541  21.102  1.00  0.00     0.271 C 
HETATM   11  C6  UNL     1      18.792  13.446  22.671  1.00  0.00     0.271 C 
HETATM   12  C7  UNL     1      20.644  14.774  23.355  1.00  0.00     0.271 C 
ENDBRANCH   8   9
ENDBRANCH   4   8
BRANCH   5  13
HETATM   13  O2  UNL     1      15.830  15.594  23.590  1.00  0.00    -0.390 OA
ATOM     14  H2  UNL     1      15.062  15.541  24.146  1.00  0.00     0.210 HD
ENDBRANCH   5  13
BRANCH   6  15
HETATM   15  O3  UNL     1      14.839  17.895  22.955  1.00  0.00    -0.392 OA
ATOM     16  H3  UNL     1      14.594  17.991  23.867  1.00  0.00     0.210 HD
ENDBRANCH   6  15
BRANCH   7  17
HETATM   17  C11 UNL     1      15.855  19.561  24.598  1.00  0.00     0.240 C 
HETATM   18  N2  UNL     1      15.453  20.916  24.642  1.00  0.00    -0.062 NA
HETATM   19  O4  UNL     1      15.307  18.789  25.458  1.00  0.00    -0.276 OA
ENDBRANCH   7  17
TORSDOF 5
ENDMDL
MODEL 4
REMARK VINA RESULT: -2.789307871      2.742      4.286
REMARK  5 active torsions:
REMARK  status: ('A' for Active; 'I' for Inactive)
REMARK    1  A    between atoms: C3_4  and  C4_5 
REMARK    2  A    between atoms: C4_5  and  N1_6 
REMARK    3  A    between atoms: C8_10  and  O2_11 
REMARK    4  A    between atoms: C9_13  and  O3_14 
REMARK    5  A    between atoms: C10_16  and  C11_17 
ROOT
HETATM    1  C1  UNL     1      19.665  18.388  24.347  1.00  0.00     0.040 C 
HETATM    2  C2  UNL     1      18.306  18.688  25.000  1.00  0.00     0.133 C 
HETATM    3  O1  UNL     1      17.363  18.189  24.170  1.00  0.00    -0.376 OA
HETATM    4  C3  UNL     1      16.022  18.439  24.519  1.00  0.00     0.179 C 
HETATM    5  C8  UNL     1      15.971  19.524  25.510  1.00  0.00     0.178 C 
HETATM    6  C9  UNL     1      16.839  20.702  25.089  1.00  0.00     0.164 C 
HETATM    7  C10 UNL     1      18.264  20.186  25.174  1.00  0.00     0.135 C 
ENDROOT
BRANCH   4   8
HETATM    8  C4  UNL     1      15.293  18.564  23.243  1.00  0.00     0.270 C 
BRANCH   8   9
HETATM    9  N1  UNL     1      14.027  17.910  23.086  1.00  0.00    -0.076 N 
HETATM   10  C5  UNL     1      14.225  16.579  23.746  1.00  0.00     0.271 C 
HETATM   11  C6  UNL     1      13.698  17.560  21.719  1.00  0.00     0.271 C 
HETATM   12  C7  UNL     1      12.919  18.511  23.757  1.00  0.00     0.271 C 
ENDBRANCH   8   9
ENDBRANCH   4   8
BRANCH   5  13
HETATM   13  O2  UNL     1      14.758  19.913  25.997  1.00  0.00    -0.390 OA
ATOM     14  H2  UNL     1      14.663  20.794  26.341  1.00  0.00     0.210 HD
ENDBRANCH   5  13
BRANCH   6  15
HETATM   15  O3  UNL     1      16.599  21.728  26.005  1.00  0.00    -0.392 OA
ATOM     16  H3  UNL     1      17.404  22.225  26.078  1.00  0.00     0.210 HD
ENDBRANCH   6  15
BRANCH   7  17
HETATM   17  C11 UNL     1      18.773  20.502  26.532  1.00  0.00     0.240 C 
HETATM   18  N2  UNL     1      19.288  19.509  27.397  1.00  0.00    -0.062 NA
HETATM   19  O4  UNL     1      18.772  21.695  26.992  1.00  0.00    -0.276 OA
ENDBRANCH   7  17
TORSDOF 5
ENDMDL
MODEL 5
REMARK VINA RESULT: -2.621768165      2.602      3.993
REMARK  5 active torsions:
REMARK  status: ('A' for Active; 'I' for Inactive)
REMARK    1  A    between atoms: C3_4  and  C4_5 
REMARK    2  A    between atoms: C4_5  and  N1_6 
REMARK    3  A    between atoms: C8_10  and  O2_11 
REMARK    4  A    between atoms: C9_13  and  O3_14 
REMARK    5  A    between atoms: C10_16  and  C11_17 
ROOT
HETATM    1  C1  UNL     1      16.546  17.359  21.918  1.00  0.00     0.040 C 
HETATM    2  C2  UNL     1      15.882  18.344  22.895  1.00  0.00     0.133 C 
HETATM    3  O1  UNL     1      16.870  18.831  23.679  1.00  0.00    -0.376 OA
HETATM    4  C3  UNL     1      16.477  19.687  24.725  1.00  0.00     0.179 C 
HETATM    5  C8  UNL     1      15.032  19.542  24.957  1.00  0.00     0.178 C 
HETATM    6  C9  UNL     1      14.626  18.076  25.031  1.00  0.00     0.164 C 
HETATM    7  C10 UNL     1      14.834  17.542  23.626  1.00  0.00     0.135 C 
ENDROOT
BRANCH   4   8
HETATM    8  C4  UNL     1      17.433  19.443  25.822  1.00  0.00     0.270 C 
BRANCH   8   9
HETATM    9  N1  UNL     1      18.556  20.318  25.987  1.00  0.00    -0.076 N 
HETATM   10  C5  UNL     1      19.451  19.579  26.936  1.00  0.00     0.271 C 
HETATM   11  C6  UNL     1      18.261  21.547  26.695  1.00  0.00     0.271 C 
HETATM   12  C7  UNL     1      19.345  20.558  24.822  1.00  0.00     0.271 C 
ENDBRANCH   8   9
ENDBRANCH   4   8
BRANCH   5  13
HETATM   13  O2  UNL     1      14.441  20.300  25.926  1.00  0.00    -0.390 OA
ATOM     14  H2  UNL     1      14.902  20.437  26.745  1.00  0.00     0.210 HD
ENDBRANCH   5  13
BRANCH   6  15
HETATM   15  O3  UNL     1      13.282  18.048  25.408  1.00  0.00    -0.392 OA
ATOM     16  H3  UNL     1      12.797  17.701  24.669  1.00  0.00     0.210 HD
ENDBRANCH   6  15
BRANCH   7  17
HETATM   17  C11 UNL     1      13.551  17.695  22.896  1.00  0.00     0.240 C 
HETATM   18  N2  UNL     1      12.919  16.614  22.240  1.00  0.00    -0.062 NA
HETATM   19  O4  UNL     1      12.948  18.821  22.821  1.00  0.00    -0.276 OA
ENDBRANCH   7  17
TORSDOF 5
ENDMDL
