MODEL 1
REMARK VINA RESULT: -5.256390883      0.000      0.000
REMARK  6 active torsions:
REMARK  status: ('A' for Active; 'I' for Inactive)
REMARK    1  A    between atoms: O1_1  and  C1_3 
REMARK    2  A    between atoms: C1_3  and  C2_4 
REMARK    3  A    between atoms: C3_5  and  C4_6 
REMARK    4  A    between atoms: C4_6  and  O2_7 
REMARK    5  A    between atoms: C11_19  and  C12_20 
REMARK    6  A    between atoms: C12_20  and  O3_21 
ROOT
HETATM    1  C2  UNL     1      20.991  13.507  19.711  1.00  0.00     0.043 C 
HETATM    2  C3  UNL     1      19.802  13.573  20.607  1.00  0.00     0.042 C 
HETATM    3  C5  UNL     1      20.295  14.305  21.806  1.00  0.00     0.128 C 
HETATM    4  C6  UNL     1      20.227  13.574  23.102  1.00  0.00     0.173 C 
HETATM    5  N1  UNL     1      21.425  13.934  23.794  1.00  0.00    -0.191 N 
HETATM    6  C7  UNL     1      21.706  13.836  25.127  1.00  0.00     0.110 A 
HETATM    7  C8  UNL     1      22.930  14.227  25.631  1.00  0.00     0.035 A 
HETATM    8  C9  UNL     1      23.836  14.718  24.715  1.00  0.00     0.107 A 
HETATM    9  N2  UNL     1      23.566  14.819  23.405  1.00  0.00    -0.202 N 
ATOM     10  H2  UNL     1      24.263  15.187  22.758  1.00  0.00     0.183 HD
HETATM   11  C10 UNL     1      22.329  14.415  22.948  1.00  0.00     0.683 A 
HETATM   12  N3  UNL     1      21.757  14.403  21.657  1.00  0.00    -0.203 N 
HETATM   13  C11 UNL     1      22.005  14.446  20.247  1.00  0.00     0.133 C 
ENDROOT
BRANCH   1  14
HETATM   14  C1  UNL     1      20.684  13.697  18.252  1.00  0.00     0.171 C 
BRANCH  14  15
HETATM   15  O1  UNL     1      19.598  14.565  18.167  1.00  0.00    -0.400 OA
ATOM     16  H1  UNL     1      18.862  14.066  17.831  1.00  0.00     0.209 HD
ENDBRANCH  14  15
ENDBRANCH   1  14
BRANCH   2  17
HETATM   17  C4  UNL     1      19.192  12.225  20.915  1.00  0.00     0.171 C 
BRANCH  17  18
HETATM   18  O2  UNL     1      20.155  11.264  20.663  1.00  0.00    -0.400 OA
ATOM     19  H2  UNL     1      20.398  10.878  21.496  1.00  0.00     0.209 HD
ENDBRANCH  17  18
ENDBRANCH   2  17
BRANCH  13  20
HETATM   20  C12 UNL     1      21.917  15.842  19.701  1.00  0.00     0.190 C 
BRANCH  20  21
HETATM   21  O3  UNL     1      23.121  16.408  19.385  1.00  0.00    -0.399 OA
ATOM     22  H3  UNL     1      23.444  16.194  18.517  1.00  0.00     0.209 HD
ENDBRANCH  20  21
ENDBRANCH  13  20
TORSDOF 6
ENDMDL
MODEL 2
REMARK VINA RESULT: -5.022134694      5.580      6.852
REMARK  6 active torsions:
REMARK  status: ('A' for Active; 'I' for Inactive)
REMARK    1  A    between atoms: O1_1  and  C1_3 
REMARK    2  A    between atoms: C1_3  and  C2_4 
REMARK    3  A    between atoms: C3_5  and  C4_6 
REMARK    4  A    between atoms: C4_6  and  O2_7 
REMARK    5  A    between atoms: C11_19  and  C12_20 
REMARK    6  A    between atoms: C12_20  and  O3_21 
ROOT
HETATM    1  C2  UNL     1      16.661  18.501  24.975  1.00  0.00     0.043 C 
HETATM    2  C3  UNL     1      17.986  19.180  24.927  1.00  0.00     0.042 C 
HETATM    3  C5  UNL     1      18.769  18.375  23.950  1.00  0.00     0.128 C 
HETATM    4  C6  UNL     1      20.014  17.740  24.462  1.00  0.00     0.173 C 
HETATM    5  N1  UNL     1      20.060  16.457  23.835  1.00  0.00    -0.191 N 
HETATM    6  C7  UNL     1      21.128  15.619  23.676  1.00  0.00     0.110 A 
HETATM    7  C8  UNL     1      20.993  14.399  23.045  1.00  0.00     0.035 A 
HETATM    8  C9  UNL     1      19.729  14.086  22.590  1.00  0.00     0.107 A 
HETATM    9  N2  UNL     1      18.677  14.904  22.741  1.00  0.00    -0.202 N 
ATOM     10  H2  UNL     1      17.758  14.636  22.391  1.00  0.00     0.183 HD
HETATM   11  C10 UNL     1      18.861  16.113  23.379  1.00  0.00     0.683 A 
HETATM   12  N3  UNL     1      17.971  17.167  23.679  1.00  0.00    -0.203 N 
HETATM   13  C11 UNL     1      16.602  17.559  23.832  1.00  0.00     0.133 C 
ENDROOT
BRANCH   1  14
HETATM   14  C1  UNL     1      15.485  19.433  25.068  1.00  0.00     0.171 C 
BRANCH  14  15
HETATM   15  O1  UNL     1      15.968  20.728  24.895  1.00  0.00    -0.400 OA
ATOM     16  H1  UNL     1      15.530  21.280  25.531  1.00  0.00     0.209 HD
ENDBRANCH  14  15
ENDBRANCH   1  14
BRANCH   2  17
HETATM   17  C4  UNL     1      18.649  19.326  26.277  1.00  0.00     0.171 C 
BRANCH  17  18
HETATM   18  O2  UNL     1      18.321  20.578  26.769  1.00  0.00    -0.400 OA
ATOM     19  H2  UNL     1      18.896  21.208  26.352  1.00  0.00     0.209 HD
ENDBRANCH  17  18
ENDBRANCH   2  17
BRANCH  13  20
HETATM   20  C12 UNL     1      16.037  18.142  22.568  1.00  0.00     0.190 C 
BRANCH  20  21
HETATM   21  O3  UNL     1      15.974  17.270  21.516  1.00  0.00    -0.399 OA
ATOM     22  H3  UNL     1      16.798  17.137  21.061  1.00  0.00     0.209 HD
ENDBRANCH  20  21
ENDBRANCH  13  20
TORSDOF 6
ENDMDL
MODEL 3
REMARK VINA RESULT: -4.931962259      7.364      8.237
REMARK  6 active torsions:
REMARK  status: ('A' for Active; 'I' for Inactive)
REMARK    1  A    between atoms: O1_1  and  C1_3 
REMARK    2  A    between atoms: C1_3  and  C2_4 
REMARK    3  A    between atoms: C3_5  and  C4_6 
REMARK    4  A    between atoms: C4_6  and  O2_7 
REMARK    5  A    between atoms: C11_19  and  C12_20 
REMARK    6  A    between atoms: C12_20  and  O3_21 
ROOT
HETATM    1  C2  UNL     1      18.673  18.075  24.372  1.00  0.00     0.043 C 
HETATM    2  C3  UNL     1      17.718  17.855  23.250  1.00  0.00     0.042 C 
HETATM    3  C5  UNL     1      16.767  18.995  23.357  1.00  0.00     0.128 C 
HETATM    4  C6  UNL     1      15.337  18.645  23.578  1.00  0.00     0.173 C 
HETATM    5  N1  UNL     1      14.852  19.630  24.493  1.00  0.00    -0.191 N 
HETATM    6  C7  UNL     1      13.561  19.989  24.761  1.00  0.00     0.110 A 
HETATM    7  C8  UNL     1      13.267  20.967  25.689  1.00  0.00     0.035 A 
HETATM    8  C9  UNL     1      14.346  21.551  26.319  1.00  0.00     0.107 A 
HETATM    9  N2  UNL     1      15.615  21.205  26.060  1.00  0.00    -0.202 N 
ATOM     10  H2  UNL     1      16.387  21.660  26.548  1.00  0.00     0.183 HD
HETATM   11  C10 UNL     1      15.859  20.222  25.124  1.00  0.00     0.683 A 
HETATM   12  N3  UNL     1      17.059  19.656  24.640  1.00  0.00    -0.203 N 
HETATM   13  C11 UNL     1      18.457  19.452  24.877  1.00  0.00     0.133 C 
ENDROOT
BRANCH   1  14
HETATM   14  C1  UNL     1      20.105  17.755  24.046  1.00  0.00     0.171 C 
BRANCH  14  15
HETATM   15  O1  UNL     1      20.794  17.663  25.252  1.00  0.00    -0.400 OA
ATOM     16  H1  UNL     1      20.862  16.740  25.470  1.00  0.00     0.209 HD
ENDBRANCH  14  15
ENDBRANCH   1  14
BRANCH   2  17
HETATM   17  C4  UNL     1      17.057  16.496  23.266  1.00  0.00     0.171 C 
BRANCH  17  18
HETATM   18  O2  UNL     1      18.006  15.567  22.875  1.00  0.00    -0.400 OA
ATOM     19  H2  UNL     1      17.544  14.834  22.485  1.00  0.00     0.209 HD
ENDBRANCH  17  18
ENDBRANCH   2  17
BRANCH  13  20
HETATM   20  C12 UNL     1      19.300  20.502  24.214  1.00  0.00     0.190 C 
BRANCH  20  21
HETATM   21  O3  UNL     1      18.898  21.788  24.446  1.00  0.00    -0.399 OA
ATOM     22  H3  UNL     1      19.194  22.420  23.801  1.00  0.00     0.209 HD
ENDBRANCH  20  21
ENDBRANCH  13  20
TORSDOF 6
ENDMDL
MODEL 4
REMARK VINA RESULT: -4.553151019      3.303      4.859
REMARK  6 active torsions:
REMARK  status: ('A' for Active; 'I' for Inactive)
REMARK    1  A    between atoms: O1_1  and  C1_3 
REMARK    2  A    between atoms: C1_3  and  C2_4 
REMARK    3  A    between atoms: C3_5  and  C4_6 
REMARK    4  A    between atoms: C4_6  and  O2_7 
REMARK    5  A    between atoms: C11_19  and  C12_20 
REMARK    6  A    between atoms: C12_20  and  O3_21 
ROOT
HETATM    1  C2  UNL     1      21.677  14.098  24.585  1.00  0.00     0.043 C 
HETATM    2  C3  UNL     1      20.926  13.729  23.351  1.00  0.00     0.042 C 
HETATM    3  C5  UNL     1      20.392  15.025  22.853  1.00  0.00     0.128 C 
HETATM    4  C6  UNL     1      18.910  15.137  22.753  1.00  0.00     0.173 C 
HETATM    5  N1  UNL     1      18.610  16.471  23.169  1.00  0.00    -0.191 N 
HETATM    6  C7  UNL     1      17.478  17.203  22.947  1.00  0.00     0.110 A 
HETATM    7  C8  UNL     1      17.351  18.489  23.431  1.00  0.00     0.035 A 
HETATM    8  C9  UNL     1      18.425  18.980  24.143  1.00  0.00     0.107 A 
HETATM    9  N2  UNL     1      19.539  18.267  24.364  1.00  0.00    -0.202 N 
ATOM     10  H2  UNL     1      20.313  18.665  24.896  1.00  0.00     0.183 HD
HETATM   11  C10 UNL     1      19.621  16.986  23.860  1.00  0.00     0.683 A 
HETATM   12  N3  UNL     1      20.640  16.011  23.918  1.00  0.00    -0.203 N 
HETATM   13  C11 UNL     1      21.828  15.573  24.588  1.00  0.00     0.133 C 
ENDROOT
BRANCH   1  14
HETATM   14  C1  UNL     1      22.963  13.346  24.781  1.00  0.00     0.171 C 
BRANCH  14  15
HETATM   15  O1  UNL     1      22.629  12.049  25.166  1.00  0.00    -0.400 OA
ATOM     16  H1  UNL     1      22.537  12.050  26.112  1.00  0.00     0.209 HD
ENDBRANCH  14  15
ENDBRANCH   1  14
BRANCH   2  17
HETATM   17  C4  UNL     1      19.870  12.670  23.572  1.00  0.00     0.171 C 
BRANCH  17  18
HETATM   18  O2  UNL     1      20.416  11.454  23.199  1.00  0.00    -0.400 OA
ATOM     19  H2  UNL     1      19.700  10.838  23.101  1.00  0.00     0.209 HD
ENDBRANCH  17  18
ENDBRANCH   2  17
BRANCH  13  20
HETATM   20  C12 UNL     1      23.073  16.077  23.916  1.00  0.00     0.190 C 
BRANCH  20  21
HETATM   21  O3  UNL     1      22.941  17.297  23.312  1.00  0.00    -0.399 OA
ATOM     22  H3  UNL     1      23.669  17.543  22.753  1.00  0.00     0.209 HD
ENDBRANCH  20  21
ENDBRANCH  13  20
TORSDOF 6
ENDMDL
MODEL 5
REMARK VINA RESULT: -4.544660330      7.380      8.168
REMARK  6 active torsions:
REMARK  status: ('A' for Active; 'I' for Inactive)
REMARK    1  A    between atoms: O1_1  and  C1_3 
REMARK    2  A    between atoms: C1_3  and  C2_4 
REMARK    3  A    between atoms: C3_5  and  C4_6 
REMARK    4  A    between atoms: C4_6  and  O2_7 
REMARK    5  A    between atoms: C11_19  and  C12_20 
REMARK    6  A    between atoms: C12_20  and  O3_21 
ROOT
HETATM    1  C2  UNL     1      14.989  18.068  22.896  1.00  0.00     0.043 C 
HETATM    2  C3  UNL     1      15.925  17.099  23.535  1.00  0.00     0.042 C 
HETATM    3  C5  UNL     1      16.318  17.763  24.808  1.00  0.00     0.128 C 
HETATM    4  C6  UNL     1      17.768  18.049  24.985  1.00  0.00     0.173 C 
HETATM    5  N1  UNL     1      17.818  19.326  25.626  1.00  0.00    -0.191 N 
HETATM    6  C7  UNL     1      18.848  19.896  26.319  1.00  0.00     0.110 A 
HETATM    7  C8  UNL     1      18.728  21.155  26.873  1.00  0.00     0.035 A 
HETATM    8  C9  UNL     1      17.518  21.788  26.686  1.00  0.00     0.107 A 
HETATM    9  N2  UNL     1      16.502  21.234  26.008  1.00  0.00    -0.202 N 
ATOM     10  H2  UNL     1      15.622  21.735  25.891  1.00  0.00     0.183 HD
HETATM   11  C10 UNL     1      16.669  19.974  25.472  1.00  0.00     0.683 A 
HETATM   12  N3  UNL     1      15.805  19.141  24.729  1.00  0.00    -0.203 N 
HETATM   13  C11 UNL     1      14.624  19.074  23.921  1.00  0.00     0.133 C 
ENDROOT
BRANCH   1  14
HETATM   14  C1  UNL     1      13.814  17.436  22.204  1.00  0.00     0.171 C 
BRANCH  14  15
HETATM   15  O1  UNL     1      14.023  17.563  20.833  1.00  0.00    -0.400 OA
ATOM     16  H1  UNL     1      13.363  17.038  20.397  1.00  0.00     0.209 HD
ENDBRANCH  14  15
ENDBRANCH   1  14
BRANCH   2  17
HETATM   17  C4  UNL     1      17.092  16.707  22.658  1.00  0.00     0.171 C 
BRANCH  17  18
HETATM   18  O2  UNL     1      16.912  17.316  21.428  1.00  0.00    -0.400 OA
ATOM     19  H2  UNL     1      17.302  16.752  20.771  1.00  0.00     0.209 HD
ENDBRANCH  17  18
ENDBRANCH   2  17
BRANCH  13  20
HETATM   20  C12 UNL     1      13.406  18.731  24.730  1.00  0.00     0.190 C 
BRANCH  20  21
HETATM   21  O3  UNL     1      13.192  19.542  25.811  1.00  0.00    -0.399 OA
ATOM     22  H3  UNL     1      13.947  20.051  26.081  1.00  0.00     0.209 HD
ENDBRANCH  20  21
ENDBRANCH  13  20
TORSDOF 6
ENDMDL
