MODEL 1
REMARK VINA RESULT: -3.910345849      0.000      0.000
REMARK  5 active torsions:
REMARK  status: ('A' for Active; 'I' for Inactive)
REMARK    1  A    between atoms: C3_5  and  O2_6 
REMARK    2  A    between atoms: C4_8  and  O3_9 
REMARK    3  A    between atoms: N2_13  and  C7_14 
REMARK    4  A    between atoms: C7_14  and  C8_15 
REMARK    5  A    between atoms: C8_15  and  O4_16 
ROOT
HETATM    1  C1  UNL     1      17.900  18.407  26.576  1.00  0.00     0.398 C 
HETATM    2  N1  UNL     1      17.476  18.341  25.192  1.00  0.00     0.187 N 
HETATM    3  O1  UNL     1      18.359  17.487  24.575  1.00  0.00    -0.036 OA
HETATM    4  C2  UNL     1      16.165  17.771  25.079  1.00  0.00     0.325 C 
HETATM    5  C3  UNL     1      16.043  16.799  23.928  1.00  0.00     0.189 C 
HETATM    6  C4  UNL     1      15.424  17.520  22.780  1.00  0.00     0.155 C 
HETATM    7  C5  UNL     1      15.624  18.989  23.180  1.00  0.00     0.053 C 
HETATM    8  C6  UNL     1      17.079  19.333  23.178  1.00  0.00     0.288 C 
HETATM    9  N2  UNL     1      17.603  19.562  24.529  1.00  0.00     0.133 N 
HETATM   10  C9  UNL     1      16.834  20.615  25.118  1.00  0.00     0.281 C 
HETATM   11  C10 UNL     1      15.431  20.156  25.367  1.00  0.00     0.038 C 
HETATM   12  C11 UNL     1      15.201  18.863  24.652  1.00  0.00     0.040 C 
ENDROOT
BRANCH   9  13
HETATM   13  C7  UNL     1      18.997  19.867  24.389  1.00  0.00     0.307 C 
BRANCH  13  14
HETATM   14  C8  UNL     1      19.324  21.322  24.546  1.00  0.00     0.195 C 
BRANCH  14  15
HETATM   15  O4  UNL     1      19.748  21.784  23.289  1.00  0.00    -0.399 OA
ATOM     16  H4  UNL     1      20.195  21.061  22.864  1.00  0.00     0.209 HD
ENDBRANCH  14  15
ENDBRANCH  13  14
ENDBRANCH   9  13
BRANCH   5  17
HETATM   17  O2  UNL     1      15.210  15.758  24.379  1.00  0.00    -0.390 OA
ATOM     18  H2  UNL     1      15.637  14.948  24.126  1.00  0.00     0.210 HD
ENDBRANCH   5  17
BRANCH   6  19
HETATM   19  O3  UNL     1      15.988  17.241  21.561  1.00  0.00    -0.392 OA
ATOM     20  H3  UNL     1      16.029  17.982  20.967  1.00  0.00     0.210 HD
ENDBRANCH   6  19
TORSDOF 5
ENDMDL
MODEL 2
REMARK VINA RESULT: -3.588664552      6.024      7.858
REMARK  5 active torsions:
REMARK  status: ('A' for Active; 'I' for Inactive)
REMARK    1  A    between atoms: C3_5  and  O2_6 
REMARK    2  A    between atoms: C4_8  and  O3_9 
REMARK    3  A    between atoms: N2_13  and  C7_14 
REMARK    4  A    between atoms: C7_14  and  C8_15 
REMARK    5  A    between atoms: C8_15  and  O4_16 
ROOT
HETATM    1  C1  UNL     1      20.780  15.236  20.321  1.00  0.00     0.398 C 
HETATM    2  N1  UNL     1      21.190  14.512  21.508  1.00  0.00     0.187 N 
HETATM    3  O1  UNL     1      22.151  13.625  21.087  1.00  0.00    -0.036 OA
HETATM    4  C2  UNL     1      21.796  15.391  22.466  1.00  0.00     0.325 C 
HETATM    5  C3  UNL     1      23.021  14.794  23.119  1.00  0.00     0.189 C 
HETATM    6  C4  UNL     1      22.614  14.238  24.441  1.00  0.00     0.155 C 
HETATM    7  C5  UNL     1      21.088  14.148  24.292  1.00  0.00     0.053 C 
HETATM    8  C6  UNL     1      20.727  13.129  23.260  1.00  0.00     0.288 C 
HETATM    9  N2  UNL     1      20.166  13.734  22.047  1.00  0.00     0.133 N 
HETATM   10  C9  UNL     1      19.016  14.492  22.436  1.00  0.00     0.281 C 
HETATM   11  C10 UNL     1      19.427  15.678  23.252  1.00  0.00     0.038 C 
HETATM   12  C11 UNL     1      20.860  15.526  23.653  1.00  0.00     0.040 C 
ENDROOT
BRANCH   9  13
HETATM   13  C7  UNL     1      19.876  12.661  21.141  1.00  0.00     0.307 C 
BRANCH  13  14
HETATM   14  C8  UNL     1      19.064  11.553  21.743  1.00  0.00     0.195 C 
BRANCH  14  15
HETATM   15  O4  UNL     1      19.369  10.385  21.024  1.00  0.00    -0.399 OA
ATOM     16  H4  UNL     1      18.588  10.148  20.537  1.00  0.00     0.209 HD
ENDBRANCH  14  15
ENDBRANCH  13  14
ENDBRANCH   9  13
BRANCH   5  17
HETATM   17  O2  UNL     1      23.937  15.852  23.276  1.00  0.00    -0.390 OA
ATOM     18  H2  UNL     1      23.909  16.091  24.195  1.00  0.00     0.210 HD
ENDBRANCH   5  17
BRANCH   6  19
HETATM   19  O3  UNL     1      23.171  13.021  24.742  1.00  0.00    -0.392 OA
ATOM     20  H3  UNL     1      23.443  12.926  25.647  1.00  0.00     0.210 HD
ENDBRANCH   6  19
TORSDOF 5
ENDMDL
MODEL 3
REMARK VINA RESULT: -3.497361521      6.319      7.616
REMARK  5 active torsions:
REMARK  status: ('A' for Active; 'I' for Inactive)
REMARK    1  A    between atoms: C3_5  and  O2_6 
REMARK    2  A    between atoms: C4_8  and  O3_9 
REMARK    3  A    between atoms: N2_13  and  C7_14 
REMARK    4  A    between atoms: C7_14  and  C8_15 
REMARK    5  A    between atoms: C8_15  and  O4_16 
ROOT
HETATM    1  C1  UNL     1      23.244  16.894  22.838  1.00  0.00     0.398 C 
HETATM    2  N1  UNL     1      22.974  15.521  23.219  1.00  0.00     0.187 N 
HETATM    3  O1  UNL     1      24.170  14.858  23.083  1.00  0.00    -0.036 OA
HETATM    4  C2  UNL     1      22.580  15.434  24.595  1.00  0.00     0.325 C 
HETATM    5  C3  UNL     1      23.211  14.263  25.314  1.00  0.00     0.189 C 
HETATM    6  C4  UNL     1      22.218  13.152  25.345  1.00  0.00     0.155 C 
HETATM    7  C5  UNL     1      21.225  13.582  24.255  1.00  0.00     0.053 C 
HETATM    8  C6  UNL     1      21.880  13.545  22.912  1.00  0.00     0.288 C 
HETATM    9  N2  UNL     1      22.087  14.885  22.351  1.00  0.00     0.133 N 
HETATM   10  C9  UNL     1      20.808  15.522  22.274  1.00  0.00     0.281 C 
HETATM   11  C10 UNL     1      20.283  15.802  23.647  1.00  0.00     0.038 C 
HETATM   12  C11 UNL     1      21.110  15.062  24.650  1.00  0.00     0.040 C 
ENDROOT
BRANCH   9  13
HETATM   13  C7  UNL     1      22.728  14.711  21.081  1.00  0.00     0.307 C 
BRANCH  13  14
HETATM   14  C8  UNL     1      21.808  14.852  19.905  1.00  0.00     0.195 C 
BRANCH  14  15
HETATM   15  O4  UNL     1      21.529  13.554  19.446  1.00  0.00    -0.399 OA
ATOM     16  H4  UNL     1      22.362  13.149  19.237  1.00  0.00     0.209 HD
ENDBRANCH  14  15
ENDBRANCH  13  14
ENDBRANCH   9  13
BRANCH   5  17
HETATM   17  O2  UNL     1      23.505  14.714  26.615  1.00  0.00    -0.390 OA
ATOM     18  H2  UNL     1      24.144  14.106  26.968  1.00  0.00     0.210 HD
ENDBRANCH   5  17
BRANCH   6  19
HETATM   19  O3  UNL     1      22.745  11.911  25.095  1.00  0.00    -0.392 OA
ATOM     20  H3  UNL     1      23.627  11.921  24.741  1.00  0.00     0.210 HD
ENDBRANCH   6  19
TORSDOF 5
ENDMDL
MODEL 4
REMARK VINA RESULT: -3.124594241      2.350      3.595
REMARK  5 active torsions:
REMARK  status: ('A' for Active; 'I' for Inactive)
REMARK    1  A    between atoms: C3_5  and  O2_6 
REMARK    2  A    between atoms: C4_8  and  O3_9 
REMARK    3  A    between atoms: N2_13  and  C7_14 
REMARK    4  A    between atoms: C7_14  and  C8_15 
REMARK    5  A    between atoms: C8_15  and  O4_16 
ROOT
HETATM    1  C1  UNL     1      18.986  21.225  24.706  1.00  0.00     0.398 C 
HETATM    2  N1  UNL     1      17.896  20.420  25.222  1.00  0.00     0.187 N 
HETATM    3  O1  UNL     1      17.467  21.062  26.359  1.00  0.00    -0.036 OA
HETATM    4  C2  UNL     1      16.798  20.385  24.299  1.00  0.00     0.325 C 
HETATM    5  C3  UNL     1      15.455  20.514  24.980  1.00  0.00     0.189 C 
HETATM    6  C4  UNL     1      14.884  19.146  25.137  1.00  0.00     0.155 C 
HETATM    7  C5  UNL     1      16.122  18.260  24.940  1.00  0.00     0.053 C 
HETATM    8  C6  UNL     1      17.088  18.461  26.063  1.00  0.00     0.288 C 
HETATM    9  N2  UNL     1      18.309  19.153  25.634  1.00  0.00     0.133 N 
HETATM   10  C9  UNL     1      18.901  18.376  24.589  1.00  0.00     0.281 C 
HETATM   11  C10 UNL     1      18.040  18.410  23.365  1.00  0.00     0.038 C 
HETATM   12  C11 UNL     1      16.705  18.986  23.718  1.00  0.00     0.040 C 
ENDROOT
BRANCH   9  13
HETATM   13  C7  UNL     1      19.138  19.294  26.796  1.00  0.00     0.307 C 
BRANCH  13  14
HETATM   14  C8  UNL     1      20.383  18.459  26.764  1.00  0.00     0.195 C 
BRANCH  14  15
HETATM   15  O4  UNL     1      21.094  18.739  27.944  1.00  0.00    -0.399 OA
ATOM     16  H4  UNL     1      21.286  19.670  27.937  1.00  0.00     0.209 HD
ENDBRANCH  14  15
ENDBRANCH  13  14
ENDBRANCH   9  13
BRANCH   5  17
HETATM   17  O2  UNL     1      14.657  21.299  24.126  1.00  0.00    -0.390 OA
ATOM     18  H2  UNL     1      14.309  22.003  24.661  1.00  0.00     0.210 HD
ENDBRANCH   5  17
BRANCH   6  19
HETATM   19  O3  UNL     1      14.279  18.918  26.347  1.00  0.00    -0.392 OA
ATOM     20  H3  UNL     1      13.574  18.281  26.320  1.00  0.00     0.210 HD
ENDBRANCH   6  19
TORSDOF 5
ENDMDL
MODEL 5
REMARK VINA RESULT: -3.123637708      1.969      2.884
REMARK  5 active torsions:
REMARK  status: ('A' for Active; 'I' for Inactive)
REMARK    1  A    between atoms: C3_5  and  O2_6 
REMARK    2  A    between atoms: C4_8  and  O3_9 
REMARK    3  A    between atoms: N2_13  and  C7_14 
REMARK    4  A    between atoms: C7_14  and  C8_15 
REMARK    5  A    between atoms: C8_15  and  O4_16 
ROOT
HETATM    1  C1  UNL     1      15.901  20.721  24.713  1.00  0.00     0.398 C 
HETATM    2  N1  UNL     1      15.839  19.274  24.788  1.00  0.00     0.187 N 
HETATM    3  O1  UNL     1      15.194  18.992  25.969  1.00  0.00    -0.036 OA
HETATM    4  C2  UNL     1      15.050  18.734  23.719  1.00  0.00     0.325 C 
HETATM    5  C3  UNL     1      14.139  17.614  24.169  1.00  0.00     0.189 C 
HETATM    6  C4  UNL     1      14.802  16.321  23.837  1.00  0.00     0.155 C 
HETATM    7  C5  UNL     1      16.257  16.756  23.614  1.00  0.00     0.053 C 
HETATM    8  C6  UNL     1      16.857  17.237  24.896  1.00  0.00     0.288 C 
HETATM    9  N2  UNL     1      17.099  18.684  24.894  1.00  0.00     0.133 N 
HETATM   10  C9  UNL     1      17.961  18.976  23.791  1.00  0.00     0.281 C 
HETATM   11  C10 UNL     1      17.244  18.746  22.496  1.00  0.00     0.038 C 
HETATM   12  C11 UNL     1      15.974  18.003  22.763  1.00  0.00     0.040 C 
ENDROOT
BRANCH   9  13
HETATM   13  C7  UNL     1      17.657  19.016  26.173  1.00  0.00     0.307 C 
BRANCH  13  14
HETATM   14  C8  UNL     1      19.091  19.452  26.120  1.00  0.00     0.195 C 
BRANCH  14  15
HETATM   15  O4  UNL     1      19.647  19.185  27.382  1.00  0.00    -0.399 OA
ATOM     16  H4  UNL     1      20.387  19.771  27.489  1.00  0.00     0.209 HD
ENDBRANCH  14  15
ENDBRANCH  13  14
ENDBRANCH   9  13
BRANCH   5  17
HETATM   17  O2  UNL     1      12.942  17.768  23.445  1.00  0.00    -0.390 OA
ATOM     18  H2  UNL     1      12.974  18.636  23.060  1.00  0.00     0.210 HD
ENDBRANCH   5  17
BRANCH   6  19
HETATM   19  O3  UNL     1      14.698  15.362  24.812  1.00  0.00    -0.392 OA
ATOM     20  H3  UNL     1      15.530  15.072  25.169  1.00  0.00     0.210 HD
ENDBRANCH   6  19
TORSDOF 5
ENDMDL
