MODEL 1
REMARK VINA RESULT: -4.372142260      0.000      0.000
REMARK  6 active torsions:
REMARK  status: ('A' for Active; 'I' for Inactive)
REMARK    1  A    between atoms: O1_2  and  C2_3 
REMARK    2  A    between atoms: C3_4  and  O2_5 
REMARK    3  A    between atoms: C4_7  and  N1_8 
REMARK    4  A    between atoms: N1_8  and  C5_9 
REMARK    5  A    between atoms: C8_13  and  O4_14 
REMARK    6  A    between atoms: C10_17  and  O5_18 
ROOT
HETATM    1  C2  UNL     1      19.012  10.942  58.047  1.00  0.00     0.181 C 
HETATM    2  C3  UNL     1      19.940  10.430  57.003  1.00  0.00     0.185 C 
HETATM    3  C4  UNL     1      21.418  10.659  57.419  1.00  0.00     0.198 C 
HETATM    4  C6  UNL     1      21.744  12.155  57.180  1.00  0.00     0.050 C 
HETATM    5  C7  UNL     1      20.869  12.906  58.104  1.00  0.00     0.027 A 
HETATM    6  C8  UNL     1      20.370  14.249  57.979  1.00  0.00     0.130 A 
HETATM    7  C9  UNL     1      19.592  13.234  57.313  1.00  0.00     0.053 A 
HETATM    8  C10 UNL     1      18.533  12.353  57.861  1.00  0.00     0.156 C 
ENDROOT
BRANCH   3   9
HETATM    9  N1  UNL     1      22.200   9.808  56.740  1.00  0.00    -0.414 NA
BRANCH   9  10
HETATM   10  C5  UNL     1      22.990   8.948  56.053  1.00  0.00     0.435 C 
HETATM   11  O3  UNL     1      24.097   9.104  55.485  1.00  0.00    -0.269 OA
ENDBRANCH   9  10
ENDBRANCH   3   9
BRANCH   2  12
HETATM   12  O2  UNL     1      19.689  10.824  55.717  1.00  0.00    -0.390 OA
ATOM     13  H2  UNL     1      19.288  11.678  55.607  1.00  0.00     0.210 HD
ENDBRANCH   2  12
BRANCH   1  14
HETATM   14  O1  UNL     1      17.878  10.118  58.083  1.00  0.00    -0.385 OA
HETATM   15  C1  UNL     1      17.281  10.141  59.348  1.00  0.00     0.202 C 
ENDBRANCH   1  14
BRANCH   8  16
HETATM   16  O5  UNL     1      17.416  12.414  57.025  1.00  0.00    -0.392 OA
ATOM     17  H5  UNL     1      17.591  12.922  56.243  1.00  0.00     0.210 HD
ENDBRANCH   8  16
BRANCH   6  18
HETATM   18  O4  UNL     1      21.023  15.202  57.174  1.00  0.00    -0.395 OA
ATOM     19  H4  UNL     1      20.653  16.065  57.032  1.00  0.00     0.210 HD
ENDBRANCH   6  18
TORSDOF 6
ENDMDL
MODEL 2
REMARK VINA RESULT: -4.077533648      1.528      3.645
REMARK  6 active torsions:
REMARK  status: ('A' for Active; 'I' for Inactive)
REMARK    1  A    between atoms: O1_2  and  C2_3 
REMARK    2  A    between atoms: C3_4  and  O2_5 
REMARK    3  A    between atoms: C4_7  and  N1_8 
REMARK    4  A    between atoms: N1_8  and  C5_9 
REMARK    5  A    between atoms: C8_13  and  O4_14 
REMARK    6  A    between atoms: C10_17  and  O5_18 
ROOT
HETATM    1  C2  UNL     1      20.708  13.670  56.982  1.00  0.00     0.181 C 
HETATM    2  C3  UNL     1      21.552  12.495  57.327  1.00  0.00     0.185 C 
HETATM    3  C4  UNL     1      21.001  11.206  56.660  1.00  0.00     0.198 C 
HETATM    4  C6  UNL     1      19.770  10.745  57.483  1.00  0.00     0.050 C 
HETATM    5  C7  UNL     1      18.768  11.821  57.337  1.00  0.00     0.027 A 
HETATM    6  C8  UNL     1      17.704  12.187  58.233  1.00  0.00     0.130 A 
HETATM    7  C9  UNL     1      18.989  12.775  58.523  1.00  0.00     0.053 A 
HETATM    8  C10 UNL     1      19.611  13.996  57.956  1.00  0.00     0.156 C 
ENDROOT
BRANCH   3   9
HETATM    9  N1  UNL     1      21.984  10.299  56.582  1.00  0.00    -0.414 NA
BRANCH   9  10
HETATM   10  C5  UNL     1      22.979   9.382  56.503  1.00  0.00     0.435 C 
HETATM   11  O3  UNL     1      23.770   9.088  55.577  1.00  0.00    -0.269 OA
ENDBRANCH   9  10
ENDBRANCH   3   9
BRANCH   2  12
HETATM   12  O2  UNL     1      21.842  12.319  58.652  1.00  0.00    -0.390 OA
ATOM     13  H2  UNL     1      21.101  12.199  59.235  1.00  0.00     0.210 HD
ENDBRANCH   2  12
BRANCH   1  14
HETATM   14  O1  UNL     1      21.531  14.802  56.888  1.00  0.00    -0.385 OA
HETATM   15  C1  UNL     1      22.210  14.828  55.665  1.00  0.00     0.202 C 
ENDBRANCH   1  14
BRANCH   8  16
HETATM   16  O5  UNL     1      20.070  14.797  59.002  1.00  0.00    -0.392 OA
ATOM     17  H5  UNL     1      20.988  15.019  58.899  1.00  0.00     0.210 HD
ENDBRANCH   8  16
BRANCH   6  18
HETATM   18  O4  UNL     1      17.184  11.270  59.166  1.00  0.00    -0.395 OA
ATOM     19  H4  UNL     1      16.247  11.158  59.279  1.00  0.00     0.210 HD
ENDBRANCH   6  18
TORSDOF 6
ENDMDL
MODEL 3
REMARK VINA RESULT: -3.909619359      2.102      4.326
REMARK  6 active torsions:
REMARK  status: ('A' for Active; 'I' for Inactive)
REMARK    1  A    between atoms: O1_2  and  C2_3 
REMARK    2  A    between atoms: C3_4  and  O2_5 
REMARK    3  A    between atoms: C4_7  and  N1_8 
REMARK    4  A    between atoms: N1_8  and  C5_9 
REMARK    5  A    between atoms: C8_13  and  O4_14 
REMARK    6  A    between atoms: C10_17  and  O5_18 
ROOT
HETATM    1  C2  UNL     1      20.687  10.162  56.270  1.00  0.00     0.181 C 
HETATM    2  C3  UNL     1      19.620  10.319  57.294  1.00  0.00     0.185 C 
HETATM    3  C4  UNL     1      18.953  11.718  57.184  1.00  0.00     0.198 C 
HETATM    4  C6  UNL     1      19.920  12.746  57.826  1.00  0.00     0.050 C 
HETATM    5  C7  UNL     1      21.134  12.732  56.982  1.00  0.00     0.027 A 
HETATM    6  C8  UNL     1      22.486  13.059  57.347  1.00  0.00     0.130 A 
HETATM    7  C9  UNL     1      22.083  11.702  57.617  1.00  0.00     0.053 A 
HETATM    8  C10 UNL     1      22.076  10.527  56.711  1.00  0.00     0.156 C 
ENDROOT
BRANCH   3   9
HETATM    9  N1  UNL     1      17.742  11.670  57.754  1.00  0.00    -0.414 NA
BRANCH   9  10
HETATM   10  C5  UNL     1      16.516  11.620  58.331  1.00  0.00     0.435 C 
HETATM   11  O3  UNL     1      16.129  11.157  59.428  1.00  0.00    -0.269 OA
ENDBRANCH   9  10
ENDBRANCH   3   9
BRANCH   2  12
HETATM   12  O2  UNL     1      19.955   9.996  58.580  1.00  0.00    -0.390 OA
ATOM     13  H2  UNL     1      19.896  10.694  59.221  1.00  0.00     0.210 HD
ENDBRANCH   2  12
BRANCH   1  14
HETATM   14  O1  UNL     1      20.720   8.822  55.857  1.00  0.00    -0.385 OA
HETATM   15  C1  UNL     1      19.513   8.177  56.151  1.00  0.00     0.202 C 
ENDBRANCH   1  14
BRANCH   8  16
HETATM   16  O5  UNL     1      22.712   9.460  57.349  1.00  0.00    -0.392 OA
ATOM     17  H5  UNL     1      23.651   9.590  57.399  1.00  0.00     0.210 HD
ENDBRANCH   8  16
BRANCH   6  18
HETATM   18  O4  UNL     1      22.768  13.886  58.451  1.00  0.00    -0.395 OA
ATOM     19  H4  UNL     1      23.240  13.556  59.207  1.00  0.00     0.210 HD
ENDBRANCH   6  18
TORSDOF 6
ENDMDL
MODEL 4
REMARK VINA RESULT: -3.720214296      2.156      4.615
REMARK  6 active torsions:
REMARK  status: ('A' for Active; 'I' for Inactive)
REMARK    1  A    between atoms: O1_2  and  C2_3 
REMARK    2  A    between atoms: C3_4  and  O2_5 
REMARK    3  A    between atoms: C4_7  and  N1_8 
REMARK    4  A    between atoms: N1_8  and  C5_9 
REMARK    5  A    between atoms: C8_13  and  O4_14 
REMARK    6  A    between atoms: C10_17  and  O5_18 
ROOT
HETATM    1  C2  UNL     1      20.623  11.493  57.496  1.00  0.00     0.181 C 
HETATM    2  C3  UNL     1      20.729  12.966  57.320  1.00  0.00     0.185 C 
HETATM    3  C4  UNL     1      20.157  13.711  58.556  1.00  0.00     0.198 C 
HETATM    4  C6  UNL     1      18.611  13.665  58.453  1.00  0.00     0.050 C 
HETATM    5  C7  UNL     1      18.247  12.237  58.551  1.00  0.00     0.027 A 
HETATM    6  C8  UNL     1      17.087  11.566  58.027  1.00  0.00     0.130 A 
HETATM    7  C9  UNL     1      18.187  11.712  57.107  1.00  0.00     0.053 A 
HETATM    8  C10 UNL     1      19.385  10.854  56.933  1.00  0.00     0.156 C 
ENDROOT
BRANCH   3   9
HETATM    9  N1  UNL     1      20.671  14.947  58.597  1.00  0.00    -0.414 NA
BRANCH   9  10
HETATM   10  C5  UNL     1      21.192  16.198  58.639  1.00  0.00     0.435 C 
HETATM   11  O3  UNL     1      21.828  16.807  59.531  1.00  0.00    -0.269 OA
ENDBRANCH   9  10
ENDBRANCH   3   9
BRANCH   2  12
HETATM   12  O2  UNL     1      20.265  13.474  56.138  1.00  0.00    -0.390 OA
ATOM     13  H2  UNL     1      19.383  13.828  56.146  1.00  0.00     0.210 HD
ENDBRANCH   2  12
BRANCH   1  14
HETATM   14  O1  UNL     1      21.724  10.885  56.875  1.00  0.00    -0.385 OA
HETATM   15  C1  UNL     1      21.910   9.582  57.348  1.00  0.00     0.202 C 
ENDBRANCH   1  14
BRANCH   8  16
HETATM   16  O5  UNL     1      19.531  10.550  55.578  1.00  0.00    -0.392 OA
ATOM     17  H5  UNL     1      20.218  11.066  55.174  1.00  0.00     0.210 HD
ENDBRANCH   8  16
BRANCH   6  18
HETATM   18  O4  UNL     1      15.901  12.269  57.740  1.00  0.00    -0.395 OA
ATOM     19  H4  UNL     1      15.092  12.083  58.202  1.00  0.00     0.210 HD
ENDBRANCH   6  18
TORSDOF 6
ENDMDL
MODEL 5
REMARK VINA RESULT: -3.636882146      1.920      4.125
REMARK  6 active torsions:
REMARK  status: ('A' for Active; 'I' for Inactive)
REMARK    1  A    between atoms: O1_2  and  C2_3 
REMARK    2  A    between atoms: C3_4  and  O2_5 
REMARK    3  A    between atoms: C4_7  and  N1_8 
REMARK    4  A    between atoms: N1_8  and  C5_9 
REMARK    5  A    between atoms: C8_13  and  O4_14 
REMARK    6  A    between atoms: C10_17  and  O5_18 
ROOT
HETATM    1  C2  UNL     1      20.059  10.377  57.833  1.00  0.00     0.181 C 
HETATM    2  C3  UNL     1      20.429  11.614  57.095  1.00  0.00     0.185 C 
HETATM    3  C4  UNL     1      20.143  12.875  57.955  1.00  0.00     0.198 C 
HETATM    4  C6  UNL     1      18.615  13.133  57.910  1.00  0.00     0.050 C 
HETATM    5  C7  UNL     1      17.994  11.962  58.564  1.00  0.00     0.027 A 
HETATM    6  C8  UNL     1      16.678  11.415  58.366  1.00  0.00     0.130 A 
HETATM    7  C9  UNL     1      17.684  10.960  57.439  1.00  0.00     0.053 A 
HETATM    8  C10 UNL     1      18.669   9.861  57.588  1.00  0.00     0.156 C 
ENDROOT
BRANCH   3   9
HETATM    9  N1  UNL     1      20.888  13.891  57.501  1.00  0.00    -0.414 NA
BRANCH   9  10
HETATM   10  C5  UNL     1      21.642  14.920  57.043  1.00  0.00     0.435 C 
HETATM   11  O3  UNL     1      22.118  15.927  57.617  1.00  0.00    -0.269 OA
ENDBRANCH   9  10
ENDBRANCH   3   9
BRANCH   2  12
HETATM   12  O2  UNL     1      19.952  11.730  55.818  1.00  0.00    -0.390 OA
ATOM     13  H2  UNL     1      19.031  11.945  55.728  1.00  0.00     0.210 HD
ENDBRANCH   2  12
BRANCH   1  14
HETATM   14  O1  UNL     1      20.951   9.356  57.474  1.00  0.00    -0.385 OA
HETATM   15  C1  UNL     1      22.185   9.884  57.080  1.00  0.00     0.202 C 
ENDBRANCH   1  14
BRANCH   8  16
HETATM   16  O5  UNL     1      18.612   9.046  56.456  1.00  0.00    -0.392 OA
ATOM     17  H5  UNL     1      18.166   8.227  56.634  1.00  0.00     0.210 HD
ENDBRANCH   8  16
BRANCH   6  18
HETATM   18  O4  UNL     1      15.628  12.199  57.853  1.00  0.00    -0.395 OA
ATOM     19  H4  UNL     1      14.723  11.917  57.918  1.00  0.00     0.210 HD
ENDBRANCH   6  18
TORSDOF 6
ENDMDL
