MODEL 1
REMARK VINA RESULT: -5.287729132      0.000      0.000
REMARK  7 active torsions:
REMARK  status: ('A' for Active; 'I' for Inactive)
REMARK    1  A    between atoms: N1_2  and  C2_3 
REMARK    2  A    between atoms: N1_2  and  C3_5 
REMARK    3  A    between atoms: C4_6  and  O2_7 
REMARK    4  A    between atoms: C5_9  and  O3_10 
REMARK    5  A    between atoms: C6_12  and  C7_13 
REMARK    6  A    between atoms: C7_13  and  N2_14 
REMARK    7  A    between atoms: C10_17  and  O4_19 
ROOT
HETATM    1  C3  UNL     1      19.414  10.659  57.010  1.00  0.00     0.125 C 
HETATM    2  C4  UNL     1      20.159   9.354  56.753  1.00  0.00     0.170 C 
HETATM    3  C5  UNL     1      21.440  10.132  56.937  1.00  0.00     0.156 C 
HETATM    4  C6  UNL     1      20.660  11.338  57.460  1.00  0.00     0.069 C 
ENDROOT
BRANCH   4   5
HETATM    5  C7  UNL     1      21.092  12.561  56.721  1.00  0.00     0.250 C 
BRANCH   5   6
HETATM    6  N2  UNL     1      21.687  13.586  57.485  1.00  0.00    -0.033 N 
HETATM    7  C8  UNL     1      23.010  13.226  58.031  1.00  0.00     0.276 C 
HETATM    8  C9  UNL     1      21.597  14.975  57.109  1.00  0.00     0.309 A 
HETATM    9  C10 UNL     1      20.957  14.452  58.348  1.00  0.00     0.248 A 
HETATM   10  C11 UNL     1      19.457  14.338  58.458  1.00  0.00     0.081 C 
BRANCH   9  11
HETATM   11  O4  UNL     1      21.552  14.927  59.536  1.00  0.00    -0.363 OA
ATOM     12  H4  UNL     1      21.271  15.754  59.908  1.00  0.00     0.212 HD
ENDBRANCH   9  11
ENDBRANCH   5   6
ENDBRANCH   4   5
BRANCH   1  13
HETATM   13  N1  UNL     1      18.436  10.412  58.071  1.00  0.00    -0.356 N 
HETATM   14  C1  UNL     1      18.576   9.314  58.997  1.00  0.00     0.152 C 
BRANCH  13  15
HETATM   15  C2  UNL     1      17.335  11.281  58.176  1.00  0.00     0.350 C 
HETATM   16  O1  UNL     1      16.605  11.237  59.185  1.00  0.00    -0.284 OA
ENDBRANCH  13  15
ENDBRANCH   1  13
BRANCH   3  17
HETATM   17  O3  UNL     1      22.352   9.602  57.818  1.00  0.00    -0.392 OA
ATOM     18  H3  UNL     1      22.481  10.083  58.628  1.00  0.00     0.210 HD
ENDBRANCH   3  17
BRANCH   2  19
HETATM   19  O2  UNL     1      19.936   8.863  55.486  1.00  0.00    -0.391 OA
ATOM     20  H2  UNL     1      20.745   8.683  55.021  1.00  0.00     0.210 HD
ENDBRANCH   2  19
TORSDOF 7
ENDMDL
MODEL 2
REMARK VINA RESULT: -5.109505608      1.862      3.384
REMARK  7 active torsions:
REMARK  status: ('A' for Active; 'I' for Inactive)
REMARK    1  A    between atoms: N1_2  and  C2_3 
REMARK    2  A    between atoms: N1_2  and  C3_5 
REMARK    3  A    between atoms: C4_6  and  O2_7 
REMARK    4  A    between atoms: C5_9  and  O3_10 
REMARK    5  A    between atoms: C6_12  and  C7_13 
REMARK    6  A    between atoms: C7_13  and  N2_14 
REMARK    7  A    between atoms: C10_17  and  O4_19 
ROOT
HETATM    1  C3  UNL     1      20.813   9.968  57.438  1.00  0.00     0.125 C 
HETATM    2  C4  UNL     1      19.408   9.378  57.504  1.00  0.00     0.170 C 
HETATM    3  C5  UNL     1      18.888  10.796  57.474  1.00  0.00     0.156 C 
HETATM    4  C6  UNL     1      20.281  11.323  57.129  1.00  0.00     0.069 C 
ENDROOT
BRANCH   4   5
HETATM    5  C7  UNL     1      20.628  12.437  58.060  1.00  0.00     0.250 C 
BRANCH   5   6
HETATM    6  N2  UNL     1      21.434  13.470  57.539  1.00  0.00    -0.033 N 
HETATM    7  C8  UNL     1      22.832  13.066  57.296  1.00  0.00     0.276 C 
HETATM    8  C9  UNL     1      20.944  14.405  56.556  1.00  0.00     0.309 A 
HETATM    9  C10 UNL     1      21.320  14.835  57.932  1.00  0.00     0.248 A 
HETATM   10  C11 UNL     1      20.269  15.260  58.927  1.00  0.00     0.081 C 
BRANCH   9  11
HETATM   11  O4  UNL     1      22.468  15.652  57.975  1.00  0.00    -0.363 OA
ATOM     12  H4  UNL     1      22.405  16.571  57.741  1.00  0.00     0.212 HD
ENDBRANCH   9  11
ENDBRANCH   5   6
ENDBRANCH   4   5
BRANCH   1  13
HETATM   13  N1  UNL     1      21.516   9.320  56.330  1.00  0.00    -0.356 N 
HETATM   14  C1  UNL     1      20.815   8.571  55.315  1.00  0.00     0.152 C 
BRANCH  13  15
HETATM   15  C2  UNL     1      22.916   9.444  56.268  1.00  0.00     0.350 C 
HETATM   16  O1  UNL     1      23.555   8.821  55.398  1.00  0.00    -0.284 OA
ENDBRANCH  13  15
ENDBRANCH   1  13
BRANCH   3  17
HETATM   17  O3  UNL     1      17.916  11.066  56.541  1.00  0.00    -0.392 OA
ATOM     18  H3  UNL     1      17.169  11.568  56.846  1.00  0.00     0.210 HD
ENDBRANCH   3  17
BRANCH   2  19
HETATM   19  O2  UNL     1      19.184   8.686  58.673  1.00  0.00    -0.391 OA
ATOM     20  H2  UNL     1      18.525   8.009  58.572  1.00  0.00     0.210 HD
ENDBRANCH   2  19
TORSDOF 7
ENDMDL
MODEL 3
REMARK VINA RESULT: -4.797105699      1.714      3.051
REMARK  7 active torsions:
REMARK  status: ('A' for Active; 'I' for Inactive)
REMARK    1  A    between atoms: N1_2  and  C2_3 
REMARK    2  A    between atoms: N1_2  and  C3_5 
REMARK    3  A    between atoms: C4_6  and  O2_7 
REMARK    4  A    between atoms: C5_9  and  O3_10 
REMARK    5  A    between atoms: C6_12  and  C7_13 
REMARK    6  A    between atoms: C7_13  and  N2_14 
REMARK    7  A    between atoms: C10_17  and  O4_19 
ROOT
HETATM    1  C3  UNL     1      20.270  10.448  57.676  1.00  0.00     0.125 C 
HETATM    2  C4  UNL     1      18.771  10.296  57.440  1.00  0.00     0.170 C 
HETATM    3  C5  UNL     1      18.717  11.795  57.269  1.00  0.00     0.156 C 
HETATM    4  C6  UNL     1      20.244  11.869  57.232  1.00  0.00     0.069 C 
ENDROOT
BRANCH   4   5
HETATM    5  C7  UNL     1      20.709  12.909  58.196  1.00  0.00     0.250 C 
BRANCH   5   6
HETATM    6  N2  UNL     1      21.559  13.911  57.685  1.00  0.00    -0.033 N 
HETATM    7  C8  UNL     1      22.955  13.470  57.507  1.00  0.00     0.276 C 
HETATM    8  C9  UNL     1      21.130  14.835  56.663  1.00  0.00     0.309 A 
HETATM    9  C10 UNL     1      21.462  15.287  58.043  1.00  0.00     0.248 A 
HETATM   10  C11 UNL     1      20.383  15.759  58.986  1.00  0.00     0.081 C 
BRANCH   9  11
HETATM   11  O4  UNL     1      22.626  16.079  58.114  1.00  0.00    -0.363 OA
ATOM     12  H4  UNL     1      22.560  17.001  58.335  1.00  0.00     0.212 HD
ENDBRANCH   9  11
ENDBRANCH   5   6
ENDBRANCH   4   5
BRANCH   1  13
HETATM   13  N1  UNL     1      20.960   9.535  56.763  1.00  0.00    -0.356 N 
HETATM   14  C1  UNL     1      22.396   9.544  56.617  1.00  0.00     0.152 C 
BRANCH  13  15
HETATM   15  C2  UNL     1      20.184   8.630  56.017  1.00  0.00     0.350 C 
HETATM   16  O1  UNL     1      20.319   8.574  54.778  1.00  0.00    -0.284 OA
ENDBRANCH  13  15
ENDBRANCH   1  13
BRANCH   3  17
HETATM   17  O3  UNL     1      18.085  12.255  56.138  1.00  0.00    -0.392 OA
ATOM     18  H3  UNL     1      17.481  11.652  55.720  1.00  0.00     0.210 HD
ENDBRANCH   3  17
BRANCH   2  19
HETATM   19  O2  UNL     1      18.114   9.798  58.542  1.00  0.00    -0.391 OA
ATOM     20  H2  UNL     1      18.677   9.744  59.305  1.00  0.00     0.210 HD
ENDBRANCH   2  19
TORSDOF 7
ENDMDL
MODEL 4
REMARK VINA RESULT: -4.694795723      0.989      1.601
REMARK  7 active torsions:
REMARK  status: ('A' for Active; 'I' for Inactive)
REMARK    1  A    between atoms: N1_2  and  C2_3 
REMARK    2  A    between atoms: N1_2  and  C3_5 
REMARK    3  A    between atoms: C4_6  and  O2_7 
REMARK    4  A    between atoms: C5_9  and  O3_10 
REMARK    5  A    between atoms: C6_12  and  C7_13 
REMARK    6  A    between atoms: C7_13  and  N2_14 
REMARK    7  A    between atoms: C10_17  and  O4_19 
ROOT
HETATM    1  C3  UNL     1      18.917  10.756  57.265  1.00  0.00     0.125 C 
HETATM    2  C4  UNL     1      19.788   9.540  56.964  1.00  0.00     0.170 C 
HETATM    3  C5  UNL     1      20.984  10.454  57.093  1.00  0.00     0.156 C 
HETATM    4  C6  UNL     1      20.102  11.566  57.660  1.00  0.00     0.069 C 
ENDROOT
BRANCH   4   5
HETATM    5  C7  UNL     1      20.363  12.830  56.910  1.00  0.00     0.250 C 
BRANCH   5   6
HETATM    6  N2  UNL     1      21.045  13.849  57.605  1.00  0.00    -0.033 N 
HETATM    7  C8  UNL     1      20.270  14.430  58.717  1.00  0.00     0.276 C 
HETATM    8  C9  UNL     1      22.458  13.773  57.887  1.00  0.00     0.309 A 
HETATM    9  C10 UNL     1      21.893  14.804  56.973  1.00  0.00     0.248 A 
HETATM   10  C11 UNL     1      22.141  14.743  55.486  1.00  0.00     0.081 C 
BRANCH   9  11
HETATM   11  O4  UNL     1      21.975  16.117  57.481  1.00  0.00    -0.363 OA
ATOM     12  H4  UNL     1      21.507  16.349  58.275  1.00  0.00     0.212 HD
ENDBRANCH   9  11
ENDBRANCH   5   6
ENDBRANCH   4   5
BRANCH   1  13
HETATM   13  N1  UNL     1      18.023  10.401  58.369  1.00  0.00    -0.356 N 
HETATM   14  C1  UNL     1      18.314   9.307  59.265  1.00  0.00     0.152 C 
BRANCH  13  15
HETATM   15  C2  UNL     1      16.853  11.161  58.547  1.00  0.00     0.350 C 
HETATM   16  O1  UNL     1      16.642  12.152  57.820  1.00  0.00    -0.284 OA
ENDBRANCH  13  15
ENDBRANCH   1  13
BRANCH   3  17
HETATM   17  O3  UNL     1      21.988  10.025  57.927  1.00  0.00    -0.392 OA
ATOM     18  H3  UNL     1      22.844   9.909  57.529  1.00  0.00     0.210 HD
ENDBRANCH   3  17
BRANCH   2  19
HETATM   19  O2  UNL     1      19.560   9.030  55.707  1.00  0.00    -0.391 OA
ATOM     20  H2  UNL     1      19.781   9.648  55.020  1.00  0.00     0.210 HD
ENDBRANCH   2  19
TORSDOF 7
ENDMDL
MODEL 5
REMARK VINA RESULT: -4.467585549      1.119      1.881
REMARK  7 active torsions:
REMARK  status: ('A' for Active; 'I' for Inactive)
REMARK    1  A    between atoms: N1_2  and  C2_3 
REMARK    2  A    between atoms: N1_2  and  C3_5 
REMARK    3  A    between atoms: C4_6  and  O2_7 
REMARK    4  A    between atoms: C5_9  and  O3_10 
REMARK    5  A    between atoms: C6_12  and  C7_13 
REMARK    6  A    between atoms: C7_13  and  N2_14 
REMARK    7  A    between atoms: C10_17  and  O4_19 
ROOT
HETATM    1  C3  UNL     1      18.840  10.974  57.245  1.00  0.00     0.125 C 
HETATM    2  C4  UNL     1      19.715   9.753  56.983  1.00  0.00     0.170 C 
HETATM    3  C5  UNL     1      20.910  10.656  57.177  1.00  0.00     0.156 C 
HETATM    4  C6  UNL     1      20.009  11.773  57.704  1.00  0.00     0.069 C 
ENDROOT
BRANCH   4   5
HETATM    5  C7  UNL     1      20.317  13.038  56.973  1.00  0.00     0.250 C 
BRANCH   5   6
HETATM    6  N2  UNL     1      21.057  14.011  57.677  1.00  0.00    -0.033 N 
HETATM    7  C8  UNL     1      20.338  14.582  58.832  1.00  0.00     0.276 C 
HETATM    8  C9  UNL     1      22.474  13.878  57.911  1.00  0.00     0.309 A 
HETATM    9  C10 UNL     1      21.917  14.956  57.048  1.00  0.00     0.248 A 
HETATM   10  C11 UNL     1      22.116  14.935  55.552  1.00  0.00     0.081 C 
BRANCH   9  11
HETATM   11  O4  UNL     1      22.061  16.249  57.593  1.00  0.00    -0.363 OA
ATOM     12  H4  UNL     1      21.904  16.393  58.519  1.00  0.00     0.212 HD
ENDBRANCH   9  11
ENDBRANCH   5   6
ENDBRANCH   4   5
BRANCH   1  13
HETATM   13  N1  UNL     1      17.889  10.622  58.301  1.00  0.00    -0.356 N 
HETATM   14  C1  UNL     1      16.669  11.366  58.508  1.00  0.00     0.152 C 
BRANCH  13  15
HETATM   15  C2  UNL     1      18.189   9.524  59.127  1.00  0.00     0.350 C 
HETATM   16  O1  UNL     1      17.636   9.415  60.239  1.00  0.00    -0.284 OA
ENDBRANCH  13  15
ENDBRANCH   1  13
BRANCH   3  17
HETATM   17  O3  UNL     1      21.868  10.216  58.059  1.00  0.00    -0.392 OA
ATOM     18  H3  UNL     1      22.198  10.859  58.675  1.00  0.00     0.210 HD
ENDBRANCH   3  17
BRANCH   2  19
HETATM   19  O2  UNL     1      19.547   9.250  55.713  1.00  0.00    -0.391 OA
ATOM     20  H2  UNL     1      19.633   9.919  55.045  1.00  0.00     0.210 HD
ENDBRANCH   2  19
TORSDOF 7
ENDMDL
