MODEL 1
REMARK VINA RESULT: -9.321518419      0.000      0.000
REMARK  11 active torsions:
REMARK  status: ('A' for Active; 'I' for Inactive)
REMARK    1  A    between atoms: C2_2  and  N1_3 
REMARK    2  A    between atoms: C2_2  and  C11_18 
REMARK       I    between atoms: N1_3  and  C3_5 
REMARK       I    between atoms: C3_5  and  N2_7 
REMARK    3  A    between atoms: N2_7  and  C4_9 
REMARK    4  A    between atoms: C4_9  and  C5_10 
REMARK    5  A    between atoms: C5_10  and  C6_11 
REMARK    6  A    between atoms: C6_11  and  C7_12 
REMARK    7  A    between atoms: C7_12  and  C8_13 
REMARK    8  A    between atoms: C8_13  and  O3_15 
REMARK    9  A    between atoms: O3_15  and  C9_16 
REMARK   10  A    between atoms: C16_23  and  O4_24 
REMARK   11  A    between atoms: C17_26  and  O5_27 
ROOT
HETATM    1  C11 UNL     1      17.411  16.357  31.726  1.00  0.00     0.064 C 
HETATM    2  C12 UNL     1      16.049  15.774  31.579  1.00  0.00     0.016 C 
HETATM    3  C13 UNL     1      14.929  16.769  31.537  1.00  0.00     0.039 C 
HETATM    4  C14 UNL     1      15.233  17.965  30.612  1.00  0.00     0.068 C 
HETATM    5  C15 UNL     1      14.178  17.947  29.548  1.00  0.00     0.073 C 
HETATM    6  C16 UNL     1      13.060  18.924  29.760  1.00  0.00     0.150 C 
HETATM    7  C17 UNL     1      13.226  20.214  29.087  1.00  0.00     0.155 C 
HETATM    8  C18 UNL     1      14.260  21.163  29.456  1.00  0.00    -0.008 C 
HETATM    9  C19 UNL     1      14.105  22.414  28.564  1.00  0.00     0.019 C 
HETATM   10  C20 UNL     1      15.666  20.687  29.515  1.00  0.00     0.018 C 
HETATM   11  C21 UNL     1      15.496  20.497  30.998  1.00  0.00     0.002 C 
HETATM   12  C22 UNL     1      15.267  19.167  31.506  1.00  0.00     0.025 C 
HETATM   13  C23 UNL     1      16.407  18.852  32.509  1.00  0.00     0.010 C 
HETATM   14  C24 UNL     1      17.690  18.764  31.732  1.00  0.00     0.033 C 
HETATM   15  C25 UNL     1      17.523  17.543  30.814  1.00  0.00     0.132 C 
HETATM   16  O6  UNL     1      16.436  17.676  30.000  1.00  0.00    -0.374 OA
HETATM   17  C26 UNL     1      14.387  21.491  30.926  1.00  0.00    -0.034 C 
HETATM   18  C27 UNL     1      13.198  21.401  31.770  1.00  0.00     0.016 C 
HETATM   19  C28 UNL     1      14.910  22.947  31.004  1.00  0.00     0.016 C 
ENDROOT
BRANCH   1  20
HETATM   20  C2  UNL     1      18.396  15.274  31.371  1.00  0.00     0.011 C 
HETATM   21  C1  UNL     1      19.300  15.593  30.481  1.00  0.00     0.039 C 
BRANCH  20  22
HETATM   22  N1  UNL     1      18.313  14.015  31.985  1.00  0.00    -0.313 N 
HETATM   23  C3  UNL     1      18.815  13.622  33.228  1.00  0.00     0.320 C 
HETATM   24  O1  UNL     1      19.448  14.341  34.045  1.00  0.00    -0.247 OA
HETATM   25  N2  UNL     1      18.636  12.267  33.715  1.00  0.00    -0.343 N 
ATOM     26  H2  UNL     1      18.127  11.616  33.115  1.00  0.00     0.164 HD
ATOM     27  H1  UNL     1      17.822  13.294  31.455  1.00  0.00     0.170 HD
BRANCH  25  28
HETATM   28  C4  UNL     1      19.111  11.774  34.956  1.00  0.00     0.124 C 
BRANCH  28  29
HETATM   29  C5  UNL     1      18.876  10.287  35.185  1.00  0.00     0.020 C 
BRANCH  29  30
HETATM   30  C6  UNL     1      17.419   9.961  35.142  1.00  0.00     0.011 C 
BRANCH  30  31
HETATM   31  C7  UNL     1      16.607  10.466  36.279  1.00  0.00     0.111 C 
BRANCH  31  32
HETATM   32  C8  UNL     1      15.600  11.482  35.934  1.00  0.00     0.258 C 
HETATM   33  O2  UNL     1      14.368  11.305  36.068  1.00  0.00    -0.265 OA
BRANCH  32  34
HETATM   34  O3  UNL     1      15.981  12.727  35.426  1.00  0.00    -0.322 OA
BRANCH  34  35
HETATM   35  C9  UNL     1      15.420  13.928  35.963  1.00  0.00     0.174 C 
HETATM   36  C10 UNL     1      16.022  15.096  35.224  1.00  0.00     0.034 C 
ENDBRANCH  34  35
ENDBRANCH  32  34
ENDBRANCH  31  32
ENDBRANCH  30  31
ENDBRANCH  29  30
ENDBRANCH  28  29
ENDBRANCH  25  28
ENDBRANCH  20  22
ENDBRANCH   1  20
BRANCH   6  37
HETATM   37  O4  UNL     1      11.870  18.373  29.197  1.00  0.00    -0.393 OA
ATOM     38  H4  UNL     1      11.517  18.997  28.574  1.00  0.00     0.210 HD
ENDBRANCH   6  37
BRANCH   7  39
HETATM   39  O5  UNL     1      13.379  19.941  27.703  1.00  0.00    -0.392 OA
ATOM     40  H5  UNL     1      12.517  20.013  27.311  1.00  0.00     0.210 HD
ENDBRANCH   7  39
TORSDOF 11
ENDMDL
MODEL 2
REMARK VINA RESULT: -9.091789025      1.532      2.346
REMARK  11 active torsions:
REMARK  status: ('A' for Active; 'I' for Inactive)
REMARK    1  A    between atoms: C2_2  and  N1_3 
REMARK    2  A    between atoms: C2_2  and  C11_18 
REMARK       I    between atoms: N1_3  and  C3_5 
REMARK       I    between atoms: C3_5  and  N2_7 
REMARK    3  A    between atoms: N2_7  and  C4_9 
REMARK    4  A    between atoms: C4_9  and  C5_10 
REMARK    5  A    between atoms: C5_10  and  C6_11 
REMARK    6  A    between atoms: C6_11  and  C7_12 
REMARK    7  A    between atoms: C7_12  and  C8_13 
REMARK    8  A    between atoms: C8_13  and  O3_15 
REMARK    9  A    between atoms: O3_15  and  C9_16 
REMARK   10  A    between atoms: C16_23  and  O4_24 
REMARK   11  A    between atoms: C17_26  and  O5_27 
ROOT
HETATM    1  C11 UNL     1      17.662  16.313  31.777  1.00  0.00     0.064 C 
HETATM    2  C12 UNL     1      16.316  15.679  31.709  1.00  0.00     0.016 C 
HETATM    3  C13 UNL     1      15.161  16.633  31.689  1.00  0.00     0.039 C 
HETATM    4  C14 UNL     1      15.380  17.809  30.716  1.00  0.00     0.068 C 
HETATM    5  C15 UNL     1      14.280  17.722  29.703  1.00  0.00     0.073 C 
HETATM    6  C16 UNL     1      13.138  18.666  29.937  1.00  0.00     0.150 C 
HETATM    7  C17 UNL     1      13.228  19.940  29.219  1.00  0.00     0.155 C 
HETATM    8  C18 UNL     1      14.243  20.934  29.513  1.00  0.00    -0.008 C 
HETATM    9  C19 UNL     1      14.003  22.151  28.593  1.00  0.00     0.019 C 
HETATM   10  C20 UNL     1      15.665  20.510  29.521  1.00  0.00     0.018 C 
HETATM   11  C21 UNL     1      15.569  20.359  31.016  1.00  0.00     0.002 C 
HETATM   12  C22 UNL     1      15.410  19.039  31.573  1.00  0.00     0.025 C 
HETATM   13  C23 UNL     1      16.604  18.795  32.531  1.00  0.00     0.010 C 
HETATM   14  C24 UNL     1      17.854  18.727  31.700  1.00  0.00     0.033 C 
HETATM   15  C25 UNL     1      17.691  17.474  30.827  1.00  0.00     0.132 C 
HETATM   16  O6  UNL     1      16.564  17.543  30.059  1.00  0.00    -0.374 OA
HETATM   17  C26 UNL     1      14.422  21.312  30.965  1.00  0.00    -0.034 C 
HETATM   18  C27 UNL     1      13.276  21.207  31.865  1.00  0.00     0.016 C 
HETATM   19  C28 UNL     1      14.896  22.787  30.976  1.00  0.00     0.016 C 
ENDROOT
BRANCH   1  20
HETATM   20  C2  UNL     1      18.669  15.254  31.410  1.00  0.00     0.011 C 
HETATM   21  C1  UNL     1      19.644  15.640  30.629  1.00  0.00     0.039 C 
BRANCH  20  22
HETATM   22  N1  UNL     1      18.530  13.948  31.901  1.00  0.00    -0.313 N 
HETATM   23  C3  UNL     1      18.565  13.512  33.227  1.00  0.00     0.320 C 
HETATM   24  O1  UNL     1      18.731  14.227  34.250  1.00  0.00    -0.247 OA
HETATM   25  N2  UNL     1      18.401  12.109  33.561  1.00  0.00    -0.343 N 
ATOM     26  H2  UNL     1      18.255  11.457  32.789  1.00  0.00     0.164 HD
ATOM     27  H1  UNL     1      18.384  13.222  31.198  1.00  0.00     0.170 HD
BRANCH  25  28
HETATM   28  C4  UNL     1      18.426  11.572  34.872  1.00  0.00     0.124 C 
BRANCH  28  29
HETATM   29  C5  UNL     1      17.066  11.480  35.551  1.00  0.00     0.020 C 
BRANCH  29  30
HETATM   30  C6  UNL     1      16.688  10.058  35.806  1.00  0.00     0.011 C 
BRANCH  30  31
HETATM   31  C7  UNL     1      15.232   9.785  35.919  1.00  0.00     0.111 C 
BRANCH  31  32
HETATM   32  C8  UNL     1      14.804   8.446  35.483  1.00  0.00     0.258 C 
HETATM   33  O2  UNL     1      13.857   8.248  34.688  1.00  0.00    -0.265 OA
BRANCH  32  34
HETATM   34  O3  UNL     1      15.454   7.299  35.947  1.00  0.00    -0.322 OA
BRANCH  34  35
HETATM   35  C9  UNL     1      14.762   6.364  36.780  1.00  0.00     0.174 C 
HETATM   36  C10 UNL     1      14.701   6.935  38.174  1.00  0.00     0.034 C 
ENDBRANCH  34  35
ENDBRANCH  32  34
ENDBRANCH  31  32
ENDBRANCH  30  31
ENDBRANCH  29  30
ENDBRANCH  28  29
ENDBRANCH  25  28
ENDBRANCH  20  22
ENDBRANCH   1  20
BRANCH   6  37
HETATM   37  O4  UNL     1      11.945  18.056  29.445  1.00  0.00    -0.393 OA
ATOM     38  H4  UNL     1      11.232  18.279  30.031  1.00  0.00     0.210 HD
ENDBRANCH   6  37
BRANCH   7  39
HETATM   39  O5  UNL     1      13.329  19.629  27.838  1.00  0.00    -0.392 OA
ATOM     40  H5  UNL     1      14.071  20.116  27.500  1.00  0.00     0.210 HD
ENDBRANCH   7  39
TORSDOF 11
ENDMDL
MODEL 3
REMARK VINA RESULT: -9.045564784      1.222      1.580
REMARK  11 active torsions:
REMARK  status: ('A' for Active; 'I' for Inactive)
REMARK    1  A    between atoms: C2_2  and  N1_3 
REMARK    2  A    between atoms: C2_2  and  C11_18 
REMARK       I    between atoms: N1_3  and  C3_5 
REMARK       I    between atoms: C3_5  and  N2_7 
REMARK    3  A    between atoms: N2_7  and  C4_9 
REMARK    4  A    between atoms: C4_9  and  C5_10 
REMARK    5  A    between atoms: C5_10  and  C6_11 
REMARK    6  A    between atoms: C6_11  and  C7_12 
REMARK    7  A    between atoms: C7_12  and  C8_13 
REMARK    8  A    between atoms: C8_13  and  O3_15 
REMARK    9  A    between atoms: O3_15  and  C9_16 
REMARK   10  A    between atoms: C16_23  and  O4_24 
REMARK   11  A    between atoms: C17_26  and  O5_27 
ROOT
HETATM    1  C11 UNL     1      17.674  16.444  31.625  1.00  0.00     0.064 C 
HETATM    2  C12 UNL     1      16.308  15.851  31.607  1.00  0.00     0.016 C 
HETATM    3  C13 UNL     1      15.183  16.840  31.603  1.00  0.00     0.039 C 
HETATM    4  C14 UNL     1      15.409  17.993  30.606  1.00  0.00     0.068 C 
HETATM    5  C15 UNL     1      14.278  17.924  29.625  1.00  0.00     0.073 C 
HETATM    6  C16 UNL     1      13.173  18.906  29.876  1.00  0.00     0.150 C 
HETATM    7  C17 UNL     1      13.280  20.165  29.135  1.00  0.00     0.155 C 
HETATM    8  C18 UNL     1      14.333  21.132  29.383  1.00  0.00    -0.008 C 
HETATM    9  C19 UNL     1      14.103  22.341  28.450  1.00  0.00     0.019 C 
HETATM   10  C20 UNL     1      15.741  20.664  29.358  1.00  0.00     0.018 C 
HETATM   11  C21 UNL     1      15.684  20.541  30.857  1.00  0.00     0.002 C 
HETATM   12  C22 UNL     1      15.502  19.235  31.440  1.00  0.00     0.025 C 
HETATM   13  C23 UNL     1      16.715  18.969  32.368  1.00  0.00     0.010 C 
HETATM   14  C24 UNL     1      17.937  18.849  31.502  1.00  0.00     0.033 C 
HETATM   15  C25 UNL     1      17.711  17.588  30.655  1.00  0.00     0.132 C 
HETATM   16  O6  UNL     1      16.565  17.680  29.919  1.00  0.00    -0.374 OA
HETATM   17  C26 UNL     1      14.566  21.527  30.823  1.00  0.00    -0.034 C 
HETATM   18  C27 UNL     1      13.444  21.472  31.757  1.00  0.00     0.016 C 
HETATM   19  C28 UNL     1      15.085  22.987  30.795  1.00  0.00     0.016 C 
ENDROOT
BRANCH   1  20
HETATM   20  C2  UNL     1      18.638  15.349  31.248  1.00  0.00     0.011 C 
HETATM   21  C1  UNL     1      19.593  15.689  30.422  1.00  0.00     0.039 C 
BRANCH  20  22
HETATM   22  N1  UNL     1      18.481  14.059  31.775  1.00  0.00    -0.313 N 
HETATM   23  C3  UNL     1      18.669  13.632  33.092  1.00  0.00     0.320 C 
HETATM   24  O1  UNL     1      19.020  14.343  34.070  1.00  0.00    -0.247 OA
HETATM   25  N2  UNL     1      18.460  12.246  33.468  1.00  0.00    -0.343 N 
ATOM     26  H2  UNL     1      18.168  11.599  32.735  1.00  0.00     0.164 HD
ATOM     27  H1  UNL     1      18.193  13.339  31.111  1.00  0.00     0.170 HD
BRANCH  25  28
HETATM   28  C4  UNL     1      18.629  11.719  34.773  1.00  0.00     0.124 C 
BRANCH  28  29
HETATM   29  C5  UNL     1      17.335  11.484  35.540  1.00  0.00     0.020 C 
BRANCH  29  30
HETATM   30  C6  UNL     1      16.417  12.656  35.415  1.00  0.00     0.011 C 
BRANCH  30  31
HETATM   31  C7  UNL     1      15.269  12.683  36.358  1.00  0.00     0.111 C 
BRANCH  31  32
HETATM   32  C8  UNL     1      14.714  14.017  36.640  1.00  0.00     0.258 C 
HETATM   33  O2  UNL     1      14.897  15.011  35.902  1.00  0.00    -0.265 OA
BRANCH  32  34
HETATM   34  O3  UNL     1      13.934  14.244  37.777  1.00  0.00    -0.322 OA
BRANCH  34  35
HETATM   35  C9  UNL     1      12.805  13.412  38.056  1.00  0.00     0.174 C 
HETATM   36  C10 UNL     1      11.724  13.739  37.057  1.00  0.00     0.034 C 
ENDBRANCH  34  35
ENDBRANCH  32  34
ENDBRANCH  31  32
ENDBRANCH  30  31
ENDBRANCH  29  30
ENDBRANCH  28  29
ENDBRANCH  25  28
ENDBRANCH  20  22
ENDBRANCH   1  20
BRANCH   6  37
HETATM   37  O4  UNL     1      11.948  18.326  29.429  1.00  0.00    -0.393 OA
ATOM     38  H4  UNL     1      11.354  18.274  30.168  1.00  0.00     0.210 HD
ENDBRANCH   6  37
BRANCH   7  39
HETATM   39  O5  UNL     1      13.332  19.829  27.757  1.00  0.00    -0.392 OA
ATOM     40  H5  UNL     1      12.435  19.815  27.443  1.00  0.00     0.210 HD
ENDBRANCH   7  39
TORSDOF 11
ENDMDL
MODEL 4
REMARK VINA RESULT: -8.986830480      1.355      1.628
REMARK  11 active torsions:
REMARK  status: ('A' for Active; 'I' for Inactive)
REMARK    1  A    between atoms: C2_2  and  N1_3 
REMARK    2  A    between atoms: C2_2  and  C11_18 
REMARK       I    between atoms: N1_3  and  C3_5 
REMARK       I    between atoms: C3_5  and  N2_7 
REMARK    3  A    between atoms: N2_7  and  C4_9 
REMARK    4  A    between atoms: C4_9  and  C5_10 
REMARK    5  A    between atoms: C5_10  and  C6_11 
REMARK    6  A    between atoms: C6_11  and  C7_12 
REMARK    7  A    between atoms: C7_12  and  C8_13 
REMARK    8  A    between atoms: C8_13  and  O3_15 
REMARK    9  A    between atoms: O3_15  and  C9_16 
REMARK   10  A    between atoms: C16_23  and  O4_24 
REMARK   11  A    between atoms: C17_26  and  O5_27 
ROOT
HETATM    1  C11 UNL     1      16.506  16.081  31.245  1.00  0.00     0.064 C 
HETATM    2  C12 UNL     1      15.408  16.195  32.244  1.00  0.00     0.016 C 
HETATM    3  C13 UNL     1      14.891  17.583  32.472  1.00  0.00     0.039 C 
HETATM    4  C14 UNL     1      14.661  18.353  31.157  1.00  0.00     0.068 C 
HETATM    5  C15 UNL     1      13.201  18.686  31.118  1.00  0.00     0.073 C 
HETATM    6  C16 UNL     1      12.871  20.093  31.520  1.00  0.00     0.150 C 
HETATM    7  C17 UNL     1      12.762  21.046  30.413  1.00  0.00     0.155 C 
HETATM    8  C18 UNL     1      13.900  21.436  29.601  1.00  0.00    -0.008 C 
HETATM    9  C19 UNL     1      13.417  22.476  28.566  1.00  0.00     0.019 C 
HETATM   10  C20 UNL     1      14.724  20.369  28.981  1.00  0.00     0.018 C 
HETATM   11  C21 UNL     1      15.678  20.489  30.139  1.00  0.00     0.002 C 
HETATM   12  C22 UNL     1      15.615  19.509  31.195  1.00  0.00     0.025 C 
HETATM   13  C23 UNL     1      17.010  18.837  31.286  1.00  0.00     0.010 C 
HETATM   14  C24 UNL     1      17.222  18.048  30.024  1.00  0.00     0.033 C 
HETATM   15  C25 UNL     1      16.163  16.935  30.061  1.00  0.00     0.132 C 
HETATM   16  O6  UNL     1      14.901  17.450  30.140  1.00  0.00    -0.374 OA
HETATM   17  C26 UNL     1      15.145  21.867  30.342  1.00  0.00    -0.034 C 
HETATM   18  C27 UNL     1      15.003  22.466  31.666  1.00  0.00     0.016 C 
HETATM   19  C28 UNL     1      15.857  22.900  29.432  1.00  0.00     0.016 C 
ENDROOT
BRANCH   1  20
HETATM   20  C2  UNL     1      16.624  14.625  30.879  1.00  0.00     0.011 C 
HETATM   21  C1  UNL     1      15.813  14.204  29.944  1.00  0.00     0.039 C 
BRANCH  20  22
HETATM   22  N1  UNL     1      17.561  13.807  31.528  1.00  0.00    -0.313 N 
HETATM   23  C3  UNL     1      17.633  13.479  32.884  1.00  0.00     0.320 C 
HETATM   24  O1  UNL     1      16.852  13.865  33.794  1.00  0.00    -0.247 OA
HETATM   25  N2  UNL     1      18.678  12.610  33.392  1.00  0.00    -0.343 N 
ATOM     26  H2  UNL     1      19.354  12.246  32.719  1.00  0.00     0.164 HD
ATOM     27  H1  UNL     1      18.282  13.400  30.933  1.00  0.00     0.170 HD
BRANCH  25  28
HETATM   28  C4  UNL     1      18.836  12.225  34.746  1.00  0.00     0.124 C 
BRANCH  28  29
HETATM   29  C5  UNL     1      18.642  10.739  35.015  1.00  0.00     0.020 C 
BRANCH  29  30
HETATM   30  C6  UNL     1      17.267  10.460  35.527  1.00  0.00     0.011 C 
BRANCH  30  31
HETATM   31  C7  UNL     1      16.537  11.625  36.091  1.00  0.00     0.111 C 
BRANCH  31  32
HETATM   32  C8  UNL     1      15.069  11.521  36.069  1.00  0.00     0.258 C 
HETATM   33  O2  UNL     1      14.454  10.431  36.092  1.00  0.00    -0.265 OA
BRANCH  32  34
HETATM   34  O3  UNL     1      14.269  12.666  36.022  1.00  0.00    -0.322 OA
BRANCH  34  35
HETATM   35  C9  UNL     1      14.644  13.839  36.749  1.00  0.00     0.174 C 
HETATM   36  C10 UNL     1      14.299  15.042  35.908  1.00  0.00     0.034 C 
ENDBRANCH  34  35
ENDBRANCH  32  34
ENDBRANCH  31  32
ENDBRANCH  30  31
ENDBRANCH  29  30
ENDBRANCH  28  29
ENDBRANCH  25  28
ENDBRANCH  20  22
ENDBRANCH   1  20
BRANCH   6  37
HETATM   37  O4  UNL     1      11.579  20.095  32.126  1.00  0.00    -0.393 OA
ATOM     38  H4  UNL     1      11.456  20.928  32.566  1.00  0.00     0.210 HD
ENDBRANCH   6  37
BRANCH   7  39
HETATM   39  O5  UNL     1      11.769  20.543  29.532  1.00  0.00    -0.392 OA
ATOM     40  H5  UNL     1      10.995  21.080  29.654  1.00  0.00     0.210 HD
ENDBRANCH   7  39
TORSDOF 11
ENDMDL
MODEL 5
REMARK VINA RESULT: -8.890605678      2.162      3.597
REMARK  11 active torsions:
REMARK  status: ('A' for Active; 'I' for Inactive)
REMARK    1  A    between atoms: C2_2  and  N1_3 
REMARK    2  A    between atoms: C2_2  and  C11_18 
REMARK       I    between atoms: N1_3  and  C3_5 
REMARK       I    between atoms: C3_5  and  N2_7 
REMARK    3  A    between atoms: N2_7  and  C4_9 
REMARK    4  A    between atoms: C4_9  and  C5_10 
REMARK    5  A    between atoms: C5_10  and  C6_11 
REMARK    6  A    between atoms: C6_11  and  C7_12 
REMARK    7  A    between atoms: C7_12  and  C8_13 
REMARK    8  A    between atoms: C8_13  and  O3_15 
REMARK    9  A    between atoms: O3_15  and  C9_16 
REMARK   10  A    between atoms: C16_23  and  O4_24 
REMARK   11  A    between atoms: C17_26  and  O5_27 
ROOT
HETATM    1  C11 UNL     1      16.965  16.044  32.384  1.00  0.00     0.064 C 
HETATM    2  C12 UNL     1      17.823  17.221  32.695  1.00  0.00     0.016 C 
HETATM    3  C13 UNL     1      17.585  18.429  31.841  1.00  0.00     0.039 C 
HETATM    4  C14 UNL     1      16.086  18.742  31.660  1.00  0.00     0.068 C 
HETATM    5  C15 UNL     1      15.873  20.107  32.237  1.00  0.00     0.073 C 
HETATM    6  C16 UNL     1      15.803  21.210  31.224  1.00  0.00     0.150 C 
HETATM    7  C17 UNL     1      14.452  21.564  30.782  1.00  0.00     0.155 C 
HETATM    8  C18 UNL     1      13.619  20.663  30.009  1.00  0.00    -0.008 C 
HETATM    9  C19 UNL     1      12.290  21.386  29.697  1.00  0.00     0.019 C 
HETATM   10  C20 UNL     1      13.401  19.288  30.523  1.00  0.00     0.018 C 
HETATM   11  C21 UNL     1      14.513  18.819  29.624  1.00  0.00     0.002 C 
HETATM   12  C22 UNL     1      15.815  18.580  30.195  1.00  0.00     0.025 C 
HETATM   13  C23 UNL     1      16.179  17.100  29.911  1.00  0.00     0.010 C 
HETATM   14  C24 UNL     1      15.235  16.235  30.698  1.00  0.00     0.033 C 
HETATM   15  C25 UNL     1      15.559  16.522  32.173  1.00  0.00     0.132 C 
HETATM   16  O6  UNL     1      15.411  17.847  32.467  1.00  0.00    -0.374 OA
HETATM   17  C26 UNL     1      14.253  20.030  28.792  1.00  0.00    -0.034 C 
HETATM   18  C27 UNL     1      15.320  20.749  28.101  1.00  0.00     0.016 C 
HETATM   19  C28 UNL     1      13.107  19.796  27.776  1.00  0.00     0.016 C 
ENDROOT
BRANCH   1  20
HETATM   20  C2  UNL     1      17.073  15.098  33.551  1.00  0.00     0.011 C 
HETATM   21  C1  UNL     1      16.432  15.452  34.635  1.00  0.00     0.039 C 
BRANCH  20  22
HETATM   22  N1  UNL     1      17.824  13.918  33.437  1.00  0.00    -0.313 N 
HETATM   23  C3  UNL     1      17.938  12.871  34.354  1.00  0.00     0.320 C 
HETATM   24  O1  UNL     1      17.376  12.791  35.478  1.00  0.00    -0.247 OA
HETATM   25  N2  UNL     1      18.766  11.713  34.072  1.00  0.00    -0.343 N 
ATOM     26  H2  UNL     1      19.256  11.694  33.177  1.00  0.00     0.164 HD
ATOM     27  H1  UNL     1      18.354  13.812  32.571  1.00  0.00     0.170 HD
BRANCH  25  28
HETATM   28  C4  UNL     1      18.948  10.607  34.939  1.00  0.00     0.124 C 
BRANCH  28  29
HETATM   29  C5  UNL     1      17.884   9.524  34.825  1.00  0.00     0.020 C 
BRANCH  29  30
HETATM   30  C6  UNL     1      16.900   9.619  35.944  1.00  0.00     0.011 C 
BRANCH  30  31
HETATM   31  C7  UNL     1      15.469   9.679  35.546  1.00  0.00     0.111 C 
BRANCH  31  32
HETATM   32  C8  UNL     1      14.801   8.377  35.394  1.00  0.00     0.258 C 
HETATM   33  O2  UNL     1      13.705   8.228  34.808  1.00  0.00    -0.265 OA
BRANCH  32  34
HETATM   34  O3  UNL     1      15.374   7.211  35.910  1.00  0.00    -0.322 OA
BRANCH  34  35
HETATM   35  C9  UNL     1      14.683   6.443  36.897  1.00  0.00     0.174 C 
HETATM   36  C10 UNL     1      14.809   7.158  38.219  1.00  0.00     0.034 C 
ENDBRANCH  34  35
ENDBRANCH  32  34
ENDBRANCH  31  32
ENDBRANCH  30  31
ENDBRANCH  29  30
ENDBRANCH  28  29
ENDBRANCH  25  28
ENDBRANCH  20  22
ENDBRANCH   1  20
BRANCH   6  37
HETATM   37  O4  UNL     1      16.313  22.402  31.821  1.00  0.00    -0.393 OA
ATOM     38  H4  UNL     1      16.756  22.166  32.628  1.00  0.00     0.210 HD
ENDBRANCH   6  37
BRANCH   7  39
HETATM   39  O5  UNL     1      13.720  21.923  31.944  1.00  0.00    -0.392 OA
ATOM     40  H5  UNL     1      13.651  21.141  32.479  1.00  0.00     0.210 HD
ENDBRANCH   7  39
TORSDOF 11
ENDMDL
