MODEL 1
REMARK VINA RESULT: -9.220327328      0.000      0.000
REMARK  11 active torsions:
REMARK  status: ('A' for Active; 'I' for Inactive)
REMARK    1  A    between atoms: C5_6  and  C6_7 
REMARK    2  A    between atoms: C7_8  and  C9_10 
REMARK    3  A    between atoms: C10_11  and  C11_12 
REMARK    4  A    between atoms: C12_13  and  C13_14 
REMARK    5  A    between atoms: C12_13  and  C16_19 
REMARK    6  A    between atoms: C13_14  and  C14_15 
REMARK    7  A    between atoms: C14_15  and  C15_16 
REMARK    8  A    between atoms: C16_19  and  O4_20 
REMARK    9  A    between atoms: C18_22  and  O5_23 
REMARK   10  A    between atoms: C19_25  and  O6_27 
REMARK   11  A    between atoms: C27_35  and  O7_36 
ROOT
HETATM    1  C1  UNL     1      19.563  16.530  30.665  1.00  0.00     0.021 C 
HETATM    2  C2  UNL     1      18.503  16.988  31.269  1.00  0.00    -0.014 C 
HETATM    3  C3  UNL     1      18.234  17.149  32.704  1.00  0.00     0.118 A 
HETATM    4  O1  UNL     1      18.796  18.227  33.297  1.00  0.00    -0.363 OA
HETATM    5  C4  UNL     1      17.497  18.444  32.897  1.00  0.00     0.173 A 
HETATM    6  C5  UNL     1      17.170  18.799  31.463  1.00  0.00     0.083 C 
HETATM    7  C18 UNL     1      17.194  17.514  30.691  1.00  0.00     0.123 C 
HETATM    8  C19 UNL     1      16.225  16.463  30.920  1.00  0.00     0.090 C 
HETATM    9  C20 UNL     1      15.051  16.657  31.803  1.00  0.00     0.049 C 
HETATM   10  C21 UNL     1      16.797  15.089  31.182  1.00  0.00     0.046 C 
HETATM   11  C22 UNL     1      17.586  14.841  32.364  1.00  0.00    -0.003 C 
HETATM   12  C23 UNL     1      17.008  13.587  33.055  1.00  0.00     0.016 C 
HETATM   13  C24 UNL     1      17.596  13.385  34.416  1.00  0.00    -0.021 C 
HETATM   14  C25 UNL     1      17.827  11.873  34.566  1.00  0.00     0.017 C 
HETATM   15  C26 UNL     1      16.598  13.780  35.505  1.00  0.00     0.017 C 
HETATM   16  C27 UNL     1      18.899  14.055  34.646  1.00  0.00     0.126 C 
HETATM   17  C28 UNL     1      18.952  15.503  34.278  1.00  0.00     0.041 C 
HETATM   18  C29 UNL     1      17.781  15.916  33.373  1.00  0.00     0.034 C 
ENDROOT
BRANCH   6  19
HETATM   19  C6  UNL     1      16.058  19.676  31.280  1.00  0.00    -0.009 C 
HETATM   20  C7  UNL     1      15.994  21.016  31.397  1.00  0.00    -0.065 C 
HETATM   21  C8  UNL     1      17.168  21.822  31.763  1.00  0.00     0.048 C 
BRANCH  20  22
HETATM   22  C9  UNL     1      14.715  21.624  31.149  1.00  0.00     0.006 C 
HETATM   23  C10 UNL     1      14.193  22.253  30.157  1.00  0.00     0.001 C 
BRANCH  23  24
HETATM   24  C11 UNL     1      14.684  22.613  28.857  1.00  0.00     0.005 C 
HETATM   25  C12 UNL     1      14.958  21.772  27.892  1.00  0.00    -0.056 C 
BRANCH  25  26
HETATM   26  C13 UNL     1      14.812  20.327  27.980  1.00  0.00     0.047 C 
BRANCH  26  27
HETATM   27  C14 UNL     1      13.403  19.815  28.016  1.00  0.00     0.117 C 
BRANCH  27  28
HETATM   28  C15 UNL     1      13.099  18.808  29.033  1.00  0.00     0.172 C 
HETATM   29  O2  UNL     1      12.629  18.986  30.174  1.00  0.00    -0.648 OA
HETATM   30  O3  UNL     1      13.360  17.456  28.715  1.00  0.00    -0.648 OA
ENDBRANCH  27  28
ENDBRANCH  26  27
ENDBRANCH  25  26
BRANCH  25  31
HETATM   31  C16 UNL     1      15.472  22.321  26.564  1.00  0.00     0.201 C 
BRANCH  31  32
HETATM   32  O4  UNL     1      15.839  23.628  26.824  1.00  0.00    -0.392 OA
HETATM   33  C17 UNL     1      15.097  24.519  26.056  1.00  0.00     0.201 C 
ENDBRANCH  31  32
ENDBRANCH  25  31
ENDBRANCH  23  24
ENDBRANCH  20  22
ENDBRANCH   6  19
BRANCH   7  34
HETATM   34  O5  UNL     1      17.486  17.817  29.363  1.00  0.00    -0.381 OA
ATOM     35  H5  UNL     1      16.639  17.882  28.936  1.00  0.00     0.211 HD
ENDBRANCH   7  34
BRANCH   8  36
HETATM   36  O6  UNL     1      15.613  16.272  29.631  1.00  0.00    -0.387 OA
ATOM     37  H6  UNL     1      14.876  15.701  29.811  1.00  0.00     0.210 HD
ENDBRANCH   8  36
BRANCH  16  38
HETATM   38  O7  UNL     1      19.909  13.298  34.047  1.00  0.00    -0.395 OA
ATOM     39  H7  UNL     1      19.572  12.914  33.246  1.00  0.00     0.210 HD
ENDBRANCH  16  38
TORSDOF 11
ENDMDL
MODEL 2
REMARK VINA RESULT: -8.995118193      2.442      9.227
REMARK  11 active torsions:
REMARK  status: ('A' for Active; 'I' for Inactive)
REMARK    1  A    between atoms: C5_6  and  C6_7 
REMARK    2  A    between atoms: C7_8  and  C9_10 
REMARK    3  A    between atoms: C10_11  and  C11_12 
REMARK    4  A    between atoms: C12_13  and  C13_14 
REMARK    5  A    between atoms: C12_13  and  C16_19 
REMARK    6  A    between atoms: C13_14  and  C14_15 
REMARK    7  A    between atoms: C14_15  and  C15_16 
REMARK    8  A    between atoms: C16_19  and  O4_20 
REMARK    9  A    between atoms: C18_22  and  O5_23 
REMARK   10  A    between atoms: C19_25  and  O6_27 
REMARK   11  A    between atoms: C27_35  and  O7_36 
ROOT
HETATM    1  C1  UNL     1      17.581  16.991  29.245  1.00  0.00     0.021 C 
HETATM    2  C2  UNL     1      16.940  17.003  30.380  1.00  0.00    -0.014 C 
HETATM    3  C3  UNL     1      15.508  17.181  30.648  1.00  0.00     0.118 A 
HETATM    4  O1  UNL     1      14.725  16.097  30.445  1.00  0.00    -0.363 OA
HETATM    5  C4  UNL     1      15.122  16.241  31.755  1.00  0.00     0.173 A 
HETATM    6  C5  UNL     1      16.484  15.771  32.216  1.00  0.00     0.083 C 
HETATM    7  C18 UNL     1      17.460  16.832  31.802  1.00  0.00     0.123 C 
HETATM    8  C19 UNL     1      17.441  18.159  32.380  1.00  0.00     0.090 C 
HETATM    9  C20 UNL     1      16.573  18.502  33.531  1.00  0.00     0.049 C 
HETATM   10  C21 UNL     1      17.397  19.303  31.392  1.00  0.00     0.046 C 
HETATM   11  C22 UNL     1      16.250  19.483  30.536  1.00  0.00    -0.003 C 
HETATM   12  C23 UNL     1      15.798  20.953  30.666  1.00  0.00     0.016 C 
HETATM   13  C24 UNL     1      14.473  21.184  30.007  1.00  0.00    -0.021 C 
HETATM   14  C25 UNL     1      14.573  22.546  29.303  1.00  0.00     0.017 C 
HETATM   15  C26 UNL     1      13.363  21.317  31.051  1.00  0.00     0.017 C 
HETATM   16  C27 UNL     1      14.095  20.183  28.981  1.00  0.00     0.126 C 
HETATM   17  C28 UNL     1      14.213  18.754  29.403  1.00  0.00     0.041 C 
HETATM   18  C29 UNL     1      15.069  18.588  30.667  1.00  0.00     0.034 C 
ENDROOT
BRANCH   6  19
HETATM   19  C6  UNL     1      16.550  15.277  33.553  1.00  0.00    -0.009 C 
HETATM   20  C7  UNL     1      17.094  14.138  34.021  1.00  0.00    -0.065 C 
HETATM   21  C8  UNL     1      17.751  13.167  33.132  1.00  0.00     0.048 C 
BRANCH  20  22
HETATM   22  C9  UNL     1      17.001  13.912  35.438  1.00  0.00     0.006 C 
HETATM   23  C10 UNL     1      16.236  13.203  36.189  1.00  0.00     0.001 C 
BRANCH  23  24
HETATM   24  C11 UNL     1      15.135  12.324  35.916  1.00  0.00     0.005 C 
HETATM   25  C12 UNL     1      15.175  11.017  35.985  1.00  0.00    -0.056 C 
BRANCH  25  26
HETATM   26  C13 UNL     1      16.348  10.238  36.351  1.00  0.00     0.047 C 
BRANCH  26  27
HETATM   27  C14 UNL     1      17.010   9.491  35.233  1.00  0.00     0.117 C 
BRANCH  27  28
HETATM   28  C15 UNL     1      18.365   9.914  34.875  1.00  0.00     0.172 C 
HETATM   29  O2  UNL     1      19.151  10.616  35.540  1.00  0.00    -0.648 OA
HETATM   30  O3  UNL     1      18.875   9.491  33.627  1.00  0.00    -0.648 OA
ENDBRANCH  27  28
ENDBRANCH  26  27
ENDBRANCH  25  26
BRANCH  25  31
HETATM   31  C16 UNL     1      13.910  10.226  35.663  1.00  0.00     0.201 C 
BRANCH  31  32
HETATM   32  O4  UNL     1      12.862  11.091  35.915  1.00  0.00    -0.392 OA
HETATM   33  C17 UNL     1      11.679  10.622  35.356  1.00  0.00     0.201 C 
ENDBRANCH  31  32
ENDBRANCH  25  31
ENDBRANCH  23  24
ENDBRANCH  20  22
ENDBRANCH   6  19
BRANCH   7  34
HETATM   34  O5  UNL     1      18.710  16.232  31.658  1.00  0.00    -0.381 OA
ATOM     35  H5  UNL     1      18.606  15.362  32.024  1.00  0.00     0.211 HD
ENDBRANCH   7  34
BRANCH   8  36
HETATM   36  O6  UNL     1      18.761  18.315  32.932  1.00  0.00    -0.387 OA
ATOM     37  H6  UNL     1      18.725  19.154  33.376  1.00  0.00     0.210 HD
ENDBRANCH   8  36
BRANCH  16  38
HETATM   38  O7  UNL     1      14.783  20.466  27.798  1.00  0.00    -0.395 OA
ATOM     39  H7  UNL     1      15.118  19.655  27.435  1.00  0.00     0.210 HD
ENDBRANCH  16  38
TORSDOF 11
ENDMDL
MODEL 3
REMARK VINA RESULT: -8.987681938      1.490      2.262
REMARK  11 active torsions:
REMARK  status: ('A' for Active; 'I' for Inactive)
REMARK    1  A    between atoms: C5_6  and  C6_7 
REMARK    2  A    between atoms: C7_8  and  C9_10 
REMARK    3  A    between atoms: C10_11  and  C11_12 
REMARK    4  A    between atoms: C12_13  and  C13_14 
REMARK    5  A    between atoms: C12_13  and  C16_19 
REMARK    6  A    between atoms: C13_14  and  C14_15 
REMARK    7  A    between atoms: C14_15  and  C15_16 
REMARK    8  A    between atoms: C16_19  and  O4_20 
REMARK    9  A    between atoms: C18_22  and  O5_23 
REMARK   10  A    between atoms: C19_25  and  O6_27 
REMARK   11  A    between atoms: C27_35  and  O7_36 
ROOT
HETATM    1  C1  UNL     1      19.586  16.520  30.401  1.00  0.00     0.021 C 
HETATM    2  C2  UNL     1      18.381  16.762  30.833  1.00  0.00    -0.014 C 
HETATM    3  C3  UNL     1      17.905  17.016  32.199  1.00  0.00     0.118 A 
HETATM    4  O1  UNL     1      18.114  18.263  32.679  1.00  0.00    -0.363 OA
HETATM    5  C4  UNL     1      16.861  18.094  32.135  1.00  0.00     0.173 A 
HETATM    6  C5  UNL     1      16.639  18.185  30.641  1.00  0.00     0.083 C 
HETATM    7  C18 UNL     1      17.067  16.867  30.068  1.00  0.00     0.123 C 
HETATM    8  C19 UNL     1      16.356  15.639  30.356  1.00  0.00     0.090 C 
HETATM    9  C20 UNL     1      15.070  15.630  31.091  1.00  0.00     0.049 C 
HETATM   10  C21 UNL     1      17.204  14.496  30.864  1.00  0.00     0.046 C 
HETATM   11  C22 UNL     1      17.875  14.595  32.137  1.00  0.00    -0.003 C 
HETATM   12  C23 UNL     1      17.533  13.326  32.945  1.00  0.00     0.016 C 
HETATM   13  C24 UNL     1      17.979  13.439  34.369  1.00  0.00    -0.021 C 
HETATM   14  C25 UNL     1      18.544  12.064  34.756  1.00  0.00     0.017 C 
HETATM   15  C26 UNL     1      16.787  13.693  35.294  1.00  0.00     0.017 C 
HETATM   16  C27 UNL     1      19.044  14.440  34.618  1.00  0.00     0.126 C 
HETATM   17  C28 UNL     1      18.794  15.801  34.052  1.00  0.00     0.041 C 
HETATM   18  C29 UNL     1      17.680  15.795  32.995  1.00  0.00     0.034 C 
ENDROOT
BRANCH   6  19
HETATM   19  C6  UNL     1      15.382  18.724  30.233  1.00  0.00    -0.009 C 
HETATM   20  C7  UNL     1      14.345  19.144  30.982  1.00  0.00    -0.065 C 
HETATM   21  C8  UNL     1      14.377  19.097  32.452  1.00  0.00     0.048 C 
BRANCH  20  22
HETATM   22  C9  UNL     1      13.197  19.641  30.274  1.00  0.00     0.006 C 
HETATM   23  C10 UNL     1      13.012  20.181  29.122  1.00  0.00     0.001 C 
BRANCH  23  24
HETATM   24  C11 UNL     1      13.898  20.518  28.044  1.00  0.00     0.005 C 
HETATM   25  C12 UNL     1      14.662  21.580  27.996  1.00  0.00    -0.056 C 
BRANCH  25  26
HETATM   26  C13 UNL     1      14.738  22.598  29.032  1.00  0.00     0.047 C 
BRANCH  26  27
HETATM   27  C14 UNL     1      16.004  22.621  29.834  1.00  0.00     0.117 C 
BRANCH  27  28
HETATM   28  C15 UNL     1      15.859  22.573  31.289  1.00  0.00     0.172 C 
HETATM   29  O2  UNL     1      16.715  22.252  32.137  1.00  0.00    -0.648 OA
HETATM   30  O3  UNL     1      14.604  22.927  31.835  1.00  0.00    -0.648 OA
ENDBRANCH  27  28
ENDBRANCH  26  27
ENDBRANCH  25  26
BRANCH  25  31
HETATM   31  C16 UNL     1      15.551  21.790  26.774  1.00  0.00     0.201 C 
BRANCH  31  32
HETATM   32  O4  UNL     1      14.826  22.610  25.930  1.00  0.00    -0.392 OA
HETATM   33  C17 UNL     1      15.203  23.941  26.078  1.00  0.00     0.201 C 
ENDBRANCH  31  32
ENDBRANCH  25  31
ENDBRANCH  23  24
ENDBRANCH  20  22
ENDBRANCH   6  19
BRANCH   7  34
HETATM   34  O5  UNL     1      17.440  17.077  28.742  1.00  0.00    -0.381 OA
ATOM     35  H5  UNL     1      16.663  17.427  28.323  1.00  0.00     0.211 HD
ENDBRANCH   7  34
BRANCH   8  36
HETATM   36  O6  UNL     1      15.973  15.150  29.057  1.00  0.00    -0.387 OA
ATOM     37  H6  UNL     1      15.038  15.003  29.136  1.00  0.00     0.210 HD
ENDBRANCH   8  36
BRANCH  16  38
HETATM   38  O7  UNL     1      20.273  13.899  34.230  1.00  0.00    -0.395 OA
ATOM     39  H7  UNL     1      20.859  14.608  33.990  1.00  0.00     0.210 HD
ENDBRANCH  16  38
TORSDOF 11
ENDMDL
MODEL 4
REMARK VINA RESULT: -8.965116947      1.987      8.355
REMARK  11 active torsions:
REMARK  status: ('A' for Active; 'I' for Inactive)
REMARK    1  A    between atoms: C5_6  and  C6_7 
REMARK    2  A    between atoms: C7_8  and  C9_10 
REMARK    3  A    between atoms: C10_11  and  C11_12 
REMARK    4  A    between atoms: C12_13  and  C13_14 
REMARK    5  A    between atoms: C12_13  and  C16_19 
REMARK    6  A    between atoms: C13_14  and  C14_15 
REMARK    7  A    between atoms: C14_15  and  C15_16 
REMARK    8  A    between atoms: C16_19  and  O4_20 
REMARK    9  A    between atoms: C18_22  and  O5_23 
REMARK   10  A    between atoms: C19_25  and  O6_27 
REMARK   11  A    between atoms: C27_35  and  O7_36 
ROOT
HETATM    1  C1  UNL     1      12.809  17.184  29.899  1.00  0.00     0.021 C 
HETATM    2  C2  UNL     1      13.584  17.484  30.903  1.00  0.00    -0.014 C 
HETATM    3  C3  UNL     1      13.517  18.616  31.837  1.00  0.00     0.118 A 
HETATM    4  O1  UNL     1      12.603  18.516  32.828  1.00  0.00    -0.363 OA
HETATM    5  C4  UNL     1      13.861  18.109  33.208  1.00  0.00     0.173 A 
HETATM    6  C5  UNL     1      14.367  16.721  32.878  1.00  0.00     0.083 C 
HETATM    7  C18 UNL     1      14.811  16.761  31.447  1.00  0.00     0.123 C 
HETATM    8  C19 UNL     1      15.944  17.553  31.017  1.00  0.00     0.090 C 
HETATM    9  C20 UNL     1      16.837  18.235  31.983  1.00  0.00     0.049 C 
HETATM   10  C21 UNL     1      15.687  18.492  29.861  1.00  0.00     0.046 C 
HETATM   11  C22 UNL     1      14.767  19.593  30.007  1.00  0.00    -0.003 C 
HETATM   12  C23 UNL     1      15.488  20.870  29.523  1.00  0.00     0.016 C 
HETATM   13  C24 UNL     1      14.711  22.105  29.858  1.00  0.00    -0.021 C 
HETATM   14  C25 UNL     1      14.833  23.036  28.642  1.00  0.00     0.017 C 
HETATM   15  C26 UNL     1      15.347  22.845  31.036  1.00  0.00     0.017 C 
HETATM   16  C27 UNL     1      13.264  21.892  30.107  1.00  0.00     0.126 C 
HETATM   17  C28 UNL     1      12.931  20.802  31.074  1.00  0.00     0.041 C 
HETATM   18  C29 UNL     1      14.119  19.859  31.320  1.00  0.00     0.034 C 
ENDROOT
BRANCH   6  19
HETATM   19  C6  UNL     1      15.242  16.136  33.841  1.00  0.00    -0.009 C 
HETATM   20  C7  UNL     1      14.950  15.486  34.984  1.00  0.00    -0.065 C 
HETATM   21  C8  UNL     1      13.563  15.279  35.428  1.00  0.00     0.048 C 
BRANCH  20  22
HETATM   22  C9  UNL     1      16.063  15.005  35.756  1.00  0.00     0.006 C 
HETATM   23  C10 UNL     1      17.314  14.824  35.519  1.00  0.00     0.001 C 
BRANCH  23  24
HETATM   24  C11 UNL     1      18.132  15.034  34.358  1.00  0.00     0.005 C 
HETATM   25  C12 UNL     1      18.475  14.110  33.497  1.00  0.00    -0.056 C 
BRANCH  25  26
HETATM   26  C13 UNL     1      18.084  12.711  33.577  1.00  0.00     0.047 C 
BRANCH  26  27
HETATM   27  C14 UNL     1      18.806  11.888  34.601  1.00  0.00     0.117 C 
BRANCH  27  28
HETATM   28  C15 UNL     1      18.456  10.469  34.665  1.00  0.00     0.172 C 
HETATM   29  O2  UNL     1      18.802   9.556  33.890  1.00  0.00    -0.648 OA
HETATM   30  O3  UNL     1      17.623  10.046  35.726  1.00  0.00    -0.648 OA
ENDBRANCH  27  28
ENDBRANCH  26  27
ENDBRANCH  25  26
BRANCH  25  31
HETATM   31  C16 UNL     1      19.351  14.501  32.311  1.00  0.00     0.201 C 
BRANCH  31  32
HETATM   32  O4  UNL     1      19.239  15.875  32.209  1.00  0.00    -0.392 OA
HETATM   33  C17 UNL     1      19.910  16.351  31.088  1.00  0.00     0.201 C 
ENDBRANCH  31  32
ENDBRANCH  25  31
ENDBRANCH  23  24
ENDBRANCH  20  22
ENDBRANCH   6  19
BRANCH   7  34
HETATM   34  O5  UNL     1      14.721  15.469  30.934  1.00  0.00    -0.381 OA
ATOM     35  H5  UNL     1      14.760  14.901  31.695  1.00  0.00     0.211 HD
ENDBRANCH   7  34
BRANCH   8  36
HETATM   36  O6  UNL     1      16.825  16.592  30.407  1.00  0.00    -0.387 OA
ATOM     37  H6  UNL     1      17.670  17.026  30.405  1.00  0.00     0.210 HD
ENDBRANCH   8  36
BRANCH  16  38
HETATM   38  O7  UNL     1      12.609  21.758  28.880  1.00  0.00    -0.395 OA
ATOM     39  H7  UNL     1      11.684  21.611  29.039  1.00  0.00     0.210 HD
ENDBRANCH  16  38
TORSDOF 11
ENDMDL
MODEL 5
REMARK VINA RESULT: -8.961788147      2.777      9.371
REMARK  11 active torsions:
REMARK  status: ('A' for Active; 'I' for Inactive)
REMARK    1  A    between atoms: C5_6  and  C6_7 
REMARK    2  A    between atoms: C7_8  and  C9_10 
REMARK    3  A    between atoms: C10_11  and  C11_12 
REMARK    4  A    between atoms: C12_13  and  C13_14 
REMARK    5  A    between atoms: C12_13  and  C16_19 
REMARK    6  A    between atoms: C13_14  and  C14_15 
REMARK    7  A    between atoms: C14_15  and  C15_16 
REMARK    8  A    between atoms: C16_19  and  O4_20 
REMARK    9  A    between atoms: C18_22  and  O5_23 
REMARK   10  A    between atoms: C19_25  and  O6_27 
REMARK   11  A    between atoms: C27_35  and  O7_36 
ROOT
HETATM    1  C1  UNL     1      17.988  17.815  29.347  1.00  0.00     0.021 C 
HETATM    2  C2  UNL     1      17.090  17.692  30.283  1.00  0.00    -0.014 C 
HETATM    3  C3  UNL     1      15.624  17.705  30.188  1.00  0.00     0.118 A 
HETATM    4  O1  UNL     1      15.046  16.560  29.758  1.00  0.00    -0.363 OA
HETATM    5  C4  UNL     1      15.088  16.665  31.130  1.00  0.00     0.173 A 
HETATM    6  C5  UNL     1      16.339  16.311  31.903  1.00  0.00     0.083 C 
HETATM    7  C18 UNL     1      17.258  17.490  31.784  1.00  0.00     0.123 C 
HETATM    8  C19 UNL     1      16.944  18.771  32.381  1.00  0.00     0.090 C 
HETATM    9  C20 UNL     1      15.786  18.952  33.287  1.00  0.00     0.049 C 
HETATM   10  C21 UNL     1      17.014  19.961  31.453  1.00  0.00     0.046 C 
HETATM   11  C22 UNL     1      16.102  20.074  30.342  1.00  0.00    -0.003 C 
HETATM   12  C23 UNL     1      15.466  21.479  30.402  1.00  0.00     0.016 C 
HETATM   13  C24 UNL     1      14.327  21.612  29.439  1.00  0.00    -0.021 C 
HETATM   14  C25 UNL     1      14.440  23.017  28.827  1.00  0.00     0.017 C 
HETATM   15  C26 UNL     1      12.986  21.566  30.173  1.00  0.00     0.017 C 
HETATM   16  C27 UNL     1      14.332  20.641  28.318  1.00  0.00     0.126 C 
HETATM   17  C28 UNL     1      14.505  19.209  28.708  1.00  0.00     0.041 C 
HETATM   18  C29 UNL     1      15.035  19.056  30.142  1.00  0.00     0.034 C 
ENDROOT
BRANCH   6  19
HETATM   19  C6  UNL     1      16.129  15.746  33.197  1.00  0.00    -0.009 C 
HETATM   20  C7  UNL     1      16.771  14.729  33.804  1.00  0.00    -0.065 C 
HETATM   21  C8  UNL     1      17.871  14.003  33.151  1.00  0.00     0.048 C 
BRANCH  20  22
HETATM   22  C9  UNL     1      16.326  14.383  35.126  1.00  0.00     0.006 C 
HETATM   23  C10 UNL     1      16.365  13.314  35.839  1.00  0.00     0.001 C 
BRANCH  23  24
HETATM   24  C11 UNL     1      16.883  11.996  35.603  1.00  0.00     0.005 C 
HETATM   25  C12 UNL     1      16.280  10.879  35.922  1.00  0.00    -0.056 C 
BRANCH  25  26
HETATM   26  C13 UNL     1      14.982  10.788  36.572  1.00  0.00     0.047 C 
BRANCH  26  27
HETATM   27  C14 UNL     1      14.383   9.416  36.646  1.00  0.00     0.117 C 
BRANCH  27  28
HETATM   28  C15 UNL     1      13.529   9.014  35.529  1.00  0.00     0.172 C 
HETATM   29  O2  UNL     1      12.464   9.538  35.147  1.00  0.00    -0.648 OA
HETATM   30  O3  UNL     1      13.932   7.894  34.765  1.00  0.00    -0.648 OA
ENDBRANCH  27  28
ENDBRANCH  26  27
ENDBRANCH  25  26
BRANCH  25  31
HETATM   31  C16 UNL     1      16.968   9.556  35.597  1.00  0.00     0.201 C 
BRANCH  31  32
HETATM   32  O4  UNL     1      18.294   9.877  35.370  1.00  0.00    -0.392 OA
HETATM   33  C17 UNL     1      18.686   9.507  34.088  1.00  0.00     0.201 C 
ENDBRANCH  31  32
ENDBRANCH  25  31
ENDBRANCH  23  24
ENDBRANCH  20  22
ENDBRANCH   6  19
BRANCH   7  34
HETATM   34  O5  UNL     1      18.565  17.032  31.939  1.00  0.00    -0.381 OA
ATOM     35  H5  UNL     1      18.527  16.429  32.672  1.00  0.00     0.211 HD
ENDBRANCH   7  34
BRANCH   8  36
HETATM   36  O6  UNL     1      18.061  19.028  33.253  1.00  0.00    -0.387 OA
ATOM     37  H6  UNL     1      18.416  18.165  33.429  1.00  0.00     0.210 HD
ENDBRANCH   8  36
BRANCH  16  38
HETATM   38  O7  UNL     1      15.253  21.065  27.357  1.00  0.00    -0.395 OA
ATOM     39  H7  UNL     1      16.124  21.045  27.736  1.00  0.00     0.210 HD
ENDBRANCH  16  38
TORSDOF 11
ENDMDL
