MODEL 1
REMARK VINA RESULT: -7.311264011      0.000      0.000
REMARK  12 active torsions:
REMARK  status: ('A' for Active; 'I' for Inactive)
REMARK    1  A    between atoms: C3_3  and  C4_4 
REMARK    2  A    between atoms: C4_4  and  O1_5 
REMARK    3  A    between atoms: C7_9  and  C8_10 
REMARK    4  A    between atoms: C8_10  and  C9_11 
REMARK    5  A    between atoms: C8_10  and  C12_16 
REMARK    6  A    between atoms: C9_11  and  C10_12 
REMARK    7  A    between atoms: C10_12  and  C11_13 
REMARK    8  A    between atoms: C12_16  and  C13_17 
REMARK    9  A    between atoms: C13_17  and  O3_18 
REMARK   10  A    between atoms: C13_17  and  C14_20 
REMARK   11  A    between atoms: C14_20  and  O4_23 
REMARK   12  A    between atoms: C25_34  and  C26_35 
ROOT
HETATM    1  C1  UNL     1       9.230  16.045  29.382  1.00  0.00     0.112 C 
HETATM    2  C2  UNL     1      10.682  16.214  29.480  1.00  0.00    -0.108 C 
HETATM    3  C3  UNL     1      11.892  16.348  29.580  1.00  0.00    -0.068 C 
ENDROOT
BRANCH   3   4
HETATM    4  C4  UNL     1      13.322  16.490  29.669  1.00  0.00     0.126 C 
HETATM    5  C5  UNL     1      13.833  15.062  29.945  1.00  0.00     0.056 C 
HETATM    6  C6  UNL     1      15.278  15.222  29.498  1.00  0.00     0.039 C 
HETATM    7  C7  UNL     1      16.014  16.263  30.249  1.00  0.00    -0.064 C 
HETATM    8  C17 UNL     1      15.257  17.250  31.092  1.00  0.00    -0.006 C 
HETATM    9  C18 UNL     1      15.466  17.021  32.595  1.00  0.00     0.021 C 
HETATM   10  C19 UNL     1      15.820  18.682  30.902  1.00  0.00     0.093 C 
HETATM   11  C30 UNL     1      13.773  17.257  30.901  1.00  0.00     0.051 C 
HETATM   12  C20 UNL     1      15.089  19.444  29.862  1.00  0.00     0.132 C 
HETATM   13  O5  UNL     1      15.670  20.087  28.973  1.00  0.00    -0.298 OA
HETATM   14  C21 UNL     1      13.620  19.505  29.789  1.00  0.00     0.064 C 
HETATM   15  C22 UNL     1      13.145  20.883  30.206  1.00  0.00    -0.007 C 
HETATM   16  C29 UNL     1      13.087  18.577  30.851  1.00  0.00     0.010 C 
HETATM   17  C23 UNL     1      12.241  21.476  29.130  1.00  0.00     0.011 C 
HETATM   18  C24 UNL     1      12.393  20.701  31.503  1.00  0.00     0.010 C 
HETATM   19  C25 UNL     1      12.874  19.351  32.076  1.00  0.00    -0.005 C 
BRANCH   4  20
HETATM   20  O1  UNL     1      13.890  16.972  28.491  1.00  0.00    -0.377 OA
ATOM     21  H1  UNL     1      14.489  16.353  28.093  1.00  0.00     0.211 HD
ENDBRANCH   4  20
BRANCH   7  22
HETATM   22  C8  UNL     1      17.429  15.945  30.606  1.00  0.00    -0.052 C 
BRANCH  22  23
HETATM   23  C9  UNL     1      18.297  16.503  29.513  1.00  0.00     0.047 C 
BRANCH  23  24
HETATM   24  C10 UNL     1      19.017  17.773  29.788  1.00  0.00     0.104 C 
BRANCH  24  25
HETATM   25  C11 UNL     1      19.591  17.770  31.180  1.00  0.00     0.231 C 
HETATM   26  N1  UNL     1      19.002  18.689  32.091  1.00  0.00    -0.062 NA
HETATM   27  O2  UNL     1      20.518  16.993  31.453  1.00  0.00    -0.277 OA
ENDBRANCH  24  25
ENDBRANCH  23  24
ENDBRANCH  22  23
BRANCH  22  28
HETATM   28  C12 UNL     1      17.863  14.683  31.145  1.00  0.00     0.042 C 
BRANCH  28  29
HETATM   29  C13 UNL     1      18.644  14.307  32.285  1.00  0.00     0.077 C 
BRANCH  29  30
HETATM   30  O3  UNL     1      20.052  14.250  32.055  1.00  0.00    -0.362 OA
ATOM     31  H3  UNL     1      20.584  14.215  32.842  1.00  0.00     0.217 HD
ENDBRANCH  29  30
BRANCH  29  32
HETATM   32  C14 UNL     1      18.474  14.742  33.686  1.00  0.00     0.099 C 
HETATM   33  C15 UNL     1      19.614  13.916  34.438  1.00  0.00     0.053 C 
HETATM   34  C16 UNL     1      17.275  14.317  34.430  1.00  0.00     0.053 C 
BRANCH  32  35
HETATM   35  O4  UNL     1      18.889  16.011  34.018  1.00  0.00    -0.384 OA
ATOM     36  H4  UNL     1      18.235  16.620  34.339  1.00  0.00     0.211 HD
ENDBRANCH  32  35
ENDBRANCH  29  32
ENDBRANCH  28  29
ENDBRANCH  22  28
ENDBRANCH   7  22
BRANCH  19  37
HETATM   37  C26 UNL     1      11.854  18.872  33.050  1.00  0.00    -0.018 C 
HETATM   38  C27 UNL     1      12.559  17.995  34.106  1.00  0.00     0.010 C 
HETATM   39  C28 UNL     1      11.069  19.942  33.753  1.00  0.00     0.010 C 
ENDBRANCH  19  37
ENDBRANCH   3   4
TORSDOF 12
ENDMDL
MODEL 2
REMARK VINA RESULT: -7.179802805      5.693      8.607
REMARK  12 active torsions:
REMARK  status: ('A' for Active; 'I' for Inactive)
REMARK    1  A    between atoms: C3_3  and  C4_4 
REMARK    2  A    between atoms: C4_4  and  O1_5 
REMARK    3  A    between atoms: C7_9  and  C8_10 
REMARK    4  A    between atoms: C8_10  and  C9_11 
REMARK    5  A    between atoms: C8_10  and  C12_16 
REMARK    6  A    between atoms: C9_11  and  C10_12 
REMARK    7  A    between atoms: C10_12  and  C11_13 
REMARK    8  A    between atoms: C12_16  and  C13_17 
REMARK    9  A    between atoms: C13_17  and  O3_18 
REMARK   10  A    between atoms: C13_17  and  C14_20 
REMARK   11  A    between atoms: C14_20  and  O4_23 
REMARK   12  A    between atoms: C25_34  and  C26_35 
ROOT
HETATM    1  C1  UNL     1      13.834   7.159  39.061  1.00  0.00     0.112 C 
HETATM    2  C2  UNL     1      13.965   8.436  38.355  1.00  0.00    -0.108 C 
HETATM    3  C3  UNL     1      14.056   9.504  37.770  1.00  0.00    -0.068 C 
ENDROOT
BRANCH   3   4
HETATM    4  C4  UNL     1      14.189  10.771  37.100  1.00  0.00     0.126 C 
HETATM    5  C5  UNL     1      15.710  11.016  37.041  1.00  0.00     0.056 C 
HETATM    6  C6  UNL     1      15.757  12.029  35.905  1.00  0.00     0.039 C 
HETATM    7  C7  UNL     1      14.975  13.255  36.178  1.00  0.00    -0.064 C 
HETATM    8  C17 UNL     1      13.988  13.273  37.311  1.00  0.00    -0.006 C 
HETATM    9  C18 UNL     1      14.447  14.159  38.477  1.00  0.00     0.021 C 
HETATM   10  C19 UNL     1      12.669  13.966  36.880  1.00  0.00     0.093 C 
HETATM   11  C30 UNL     1      13.686  11.944  37.925  1.00  0.00     0.051 C 
HETATM   12  C20 UNL     1      11.657  13.001  36.391  1.00  0.00     0.132 C 
HETATM   13  O5  UNL     1      11.017  13.177  35.341  1.00  0.00    -0.298 OA
HETATM   14  C21 UNL     1      11.321  11.755  37.100  1.00  0.00     0.064 C 
HETATM   15  C22 UNL     1       9.947  11.880  37.729  1.00  0.00    -0.007 C 
HETATM   16  C29 UNL     1      12.269  11.643  38.266  1.00  0.00     0.010 C 
HETATM   17  C23 UNL     1       9.062  10.714  37.297  1.00  0.00     0.011 C 
HETATM   18  C24 UNL     1      10.159  11.872  39.224  1.00  0.00     0.010 C 
HETATM   19  C25 UNL     1      11.638  12.261  39.436  1.00  0.00    -0.005 C 
BRANCH   4  20
HETATM   20  O1  UNL     1      13.666  10.754  35.808  1.00  0.00    -0.377 OA
ATOM     21  H1  UNL     1      14.325  10.576  35.148  1.00  0.00     0.211 HD
ENDBRANCH   4  20
BRANCH   7  22
HETATM   22  C8  UNL     1      15.589  14.542  35.735  1.00  0.00    -0.052 C 
BRANCH  22  23
HETATM   23  C9  UNL     1      14.712  15.099  34.648  1.00  0.00     0.047 C 
BRANCH  23  24
HETATM   24  C10 UNL     1      14.312  16.526  34.751  1.00  0.00     0.104 C 
BRANCH  24  25
HETATM   25  C11 UNL     1      14.953  17.339  33.657  1.00  0.00     0.231 C 
HETATM   26  N1  UNL     1      15.316  16.620  32.487  1.00  0.00    -0.062 NA
HETATM   27  O2  UNL     1      15.125  18.555  33.827  1.00  0.00    -0.277 OA
ENDBRANCH  24  25
ENDBRANCH  23  24
ENDBRANCH  22  23
BRANCH  22  28
HETATM   28  C12 UNL     1      17.001  14.741  35.541  1.00  0.00     0.042 C 
BRANCH  28  29
HETATM   29  C13 UNL     1      17.839  14.846  34.384  1.00  0.00     0.077 C 
BRANCH  29  30
HETATM   30  O3  UNL     1      18.701  15.985  34.370  1.00  0.00    -0.362 OA
ATOM     31  H3  UNL     1      18.329  16.772  34.752  1.00  0.00     0.217 HD
ENDBRANCH  29  30
BRANCH  29  32
HETATM   32  C14 UNL     1      18.572  13.767  33.693  1.00  0.00     0.099 C 
HETATM   33  C15 UNL     1      17.751  13.616  32.333  1.00  0.00     0.053 C 
HETATM   34  C16 UNL     1      18.500  12.394  34.224  1.00  0.00     0.053 C 
BRANCH  32  35
HETATM   35  O4  UNL     1      19.802  14.070  33.155  1.00  0.00    -0.384 OA
ATOM     36  H4  UNL     1      20.394  13.350  32.971  1.00  0.00     0.211 HD
ENDBRANCH  32  35
ENDBRANCH  29  32
ENDBRANCH  28  29
ENDBRANCH  22  28
ENDBRANCH   7  22
BRANCH  19  37
HETATM   37  C26 UNL     1      12.049  11.798  40.791  1.00  0.00    -0.018 C 
HETATM   38  C27 UNL     1      12.126  10.257  40.778  1.00  0.00     0.010 C 
HETATM   39  C28 UNL     1      13.352  12.345  41.300  1.00  0.00     0.010 C 
ENDBRANCH  19  37
ENDBRANCH   3   4
TORSDOF 12
ENDMDL
MODEL 3
REMARK VINA RESULT: -7.149333854      5.682      8.824
REMARK  12 active torsions:
REMARK  status: ('A' for Active; 'I' for Inactive)
REMARK    1  A    between atoms: C3_3  and  C4_4 
REMARK    2  A    between atoms: C4_4  and  O1_5 
REMARK    3  A    between atoms: C7_9  and  C8_10 
REMARK    4  A    between atoms: C8_10  and  C9_11 
REMARK    5  A    between atoms: C8_10  and  C12_16 
REMARK    6  A    between atoms: C9_11  and  C10_12 
REMARK    7  A    between atoms: C10_12  and  C11_13 
REMARK    8  A    between atoms: C12_16  and  C13_17 
REMARK    9  A    between atoms: C13_17  and  O3_18 
REMARK   10  A    between atoms: C13_17  and  C14_20 
REMARK   11  A    between atoms: C14_20  and  O4_23 
REMARK   12  A    between atoms: C25_34  and  C26_35 
ROOT
HETATM    1  C1  UNL     1      14.533   7.507  39.618  1.00  0.00     0.112 C 
HETATM    2  C2  UNL     1      14.473   8.681  38.742  1.00  0.00    -0.108 C 
HETATM    3  C3  UNL     1      14.410   9.667  38.025  1.00  0.00    -0.068 C 
ENDROOT
BRANCH   3   4
HETATM    4  C4  UNL     1      14.369  10.831  37.179  1.00  0.00     0.126 C 
HETATM    5  C5  UNL     1      15.850  11.206  36.970  1.00  0.00     0.056 C 
HETATM    6  C6  UNL     1      15.721  12.045  35.707  1.00  0.00     0.039 C 
HETATM    7  C7  UNL     1      14.835  13.219  35.868  1.00  0.00    -0.064 C 
HETATM    8  C17 UNL     1      13.924  13.307  37.060  1.00  0.00    -0.006 C 
HETATM    9  C18 UNL     1      14.361  14.390  38.055  1.00  0.00     0.021 C 
HETATM   10  C19 UNL     1      12.517  13.804  36.640  1.00  0.00     0.093 C 
HETATM   11  C30 UNL     1      13.801  12.057  37.872  1.00  0.00     0.051 C 
HETATM   12  C20 UNL     1      11.581  12.688  36.366  1.00  0.00     0.132 C 
HETATM   13  O5  UNL     1      10.862  12.650  35.355  1.00  0.00    -0.298 OA
HETATM   14  C21 UNL     1      11.421  11.531  37.263  1.00  0.00     0.064 C 
HETATM   15  C22 UNL     1      10.084  11.616  37.972  1.00  0.00    -0.007 C 
HETATM   16  C29 UNL     1      12.446  11.678  38.358  1.00  0.00     0.010 C 
HETATM   17  C23 UNL     1       9.299  10.323  37.773  1.00  0.00     0.011 C 
HETATM   18  C24 UNL     1      10.388  11.843  39.434  1.00  0.00     0.010 C 
HETATM   19  C25 UNL     1      11.829  12.395  39.476  1.00  0.00    -0.005 C 
BRANCH   4  20
HETATM   20  O1  UNL     1      13.771  10.579  35.945  1.00  0.00    -0.377 OA
ATOM     21  H1  UNL     1      13.423   9.698  35.879  1.00  0.00     0.211 HD
ENDBRANCH   4  20
BRANCH   7  22
HETATM   22  C8  UNL     1      15.284  14.481  35.207  1.00  0.00    -0.052 C 
BRANCH  22  23
HETATM   23  C9  UNL     1      16.765  14.596  35.435  1.00  0.00     0.047 C 
BRANCH  23  24
HETATM   24  C10 UNL     1      17.666  13.990  34.421  1.00  0.00     0.104 C 
BRANCH  24  25
HETATM   25  C11 UNL     1      18.834  14.896  34.136  1.00  0.00     0.231 C 
HETATM   26  N1  UNL     1      18.507  16.245  33.832  1.00  0.00    -0.062 NA
HETATM   27  O2  UNL     1      19.985  14.435  34.179  1.00  0.00    -0.277 OA
ENDBRANCH  24  25
ENDBRANCH  23  24
ENDBRANCH  22  23
BRANCH  22  28
HETATM   28  C12 UNL     1      14.560  15.723  35.260  1.00  0.00     0.042 C 
BRANCH  28  29
HETATM   29  C13 UNL     1      14.259  16.739  34.296  1.00  0.00     0.077 C 
BRANCH  29  30
HETATM   30  O3  UNL     1      14.349  18.077  34.786  1.00  0.00    -0.362 OA
ATOM     31  H3  UNL     1      14.687  18.156  35.671  1.00  0.00     0.217 HD
ENDBRANCH  29  30
BRANCH  29  32
HETATM   32  C14 UNL     1      14.666  16.793  32.877  1.00  0.00     0.099 C 
HETATM   33  C15 UNL     1      15.089  18.323  32.705  1.00  0.00     0.053 C 
HETATM   34  C16 UNL     1      13.639  16.660  31.829  1.00  0.00     0.053 C 
BRANCH  32  35
HETATM   35  O4  UNL     1      15.864  16.211  32.531  1.00  0.00    -0.384 OA
ATOM     36  H4  UNL     1      16.193  15.514  33.087  1.00  0.00     0.211 HD
ENDBRANCH  32  35
ENDBRANCH  29  32
ENDBRANCH  28  29
ENDBRANCH  22  28
ENDBRANCH   7  22
BRANCH  19  37
HETATM   37  C26 UNL     1      12.369  12.173  40.847  1.00  0.00    -0.018 C 
HETATM   38  C27 UNL     1      12.662  10.668  41.018  1.00  0.00     0.010 C 
HETATM   39  C28 UNL     1      13.606  12.951  41.195  1.00  0.00     0.010 C 
ENDBRANCH  19  37
ENDBRANCH   3   4
TORSDOF 12
ENDMDL
MODEL 4
REMARK VINA RESULT: -6.986360512      2.807      6.654
REMARK  12 active torsions:
REMARK  status: ('A' for Active; 'I' for Inactive)
REMARK    1  A    between atoms: C3_3  and  C4_4 
REMARK    2  A    between atoms: C4_4  and  O1_5 
REMARK    3  A    between atoms: C7_9  and  C8_10 
REMARK    4  A    between atoms: C8_10  and  C9_11 
REMARK    5  A    between atoms: C8_10  and  C12_16 
REMARK    6  A    between atoms: C9_11  and  C10_12 
REMARK    7  A    between atoms: C10_12  and  C11_13 
REMARK    8  A    between atoms: C12_16  and  C13_17 
REMARK    9  A    between atoms: C13_17  and  O3_18 
REMARK   10  A    between atoms: C13_17  and  C14_20 
REMARK   11  A    between atoms: C14_20  and  O4_23 
REMARK   12  A    between atoms: C25_34  and  C26_35 
ROOT
HETATM    1  C1  UNL     1      11.312  13.778  29.898  1.00  0.00     0.112 C 
HETATM    2  C2  UNL     1      11.874  15.098  30.199  1.00  0.00    -0.108 C 
HETATM    3  C3  UNL     1      12.356  16.195  30.434  1.00  0.00    -0.068 C 
ENDROOT
BRANCH   3   4
HETATM    4  C4  UNL     1      12.893  17.501  30.711  1.00  0.00     0.126 C 
HETATM    5  C5  UNL     1      12.474  18.354  29.497  1.00  0.00     0.056 C 
HETATM    6  C6  UNL     1      12.600  19.742  30.110  1.00  0.00     0.039 C 
HETATM    7  C7  UNL     1      13.963  20.047  30.599  1.00  0.00    -0.064 C 
HETATM    8  C17 UNL     1      14.963  18.937  30.762  1.00  0.00    -0.006 C 
HETATM    9  C18 UNL     1      16.088  19.002  29.720  1.00  0.00     0.021 C 
HETATM   10  C19 UNL     1      15.745  19.092  32.091  1.00  0.00     0.093 C 
HETATM   11  C30 UNL     1      14.411  17.551  30.655  1.00  0.00     0.051 C 
HETATM   12  C20 UNL     1      15.135  18.320  33.200  1.00  0.00     0.132 C 
HETATM   13  O5  UNL     1      14.937  18.807  34.325  1.00  0.00    -0.298 OA
HETATM   14  C21 UNL     1      14.710  16.916  33.067  1.00  0.00     0.064 C 
HETATM   15  C22 UNL     1      15.661  16.020  33.835  1.00  0.00    -0.007 C 
HETATM   16  C29 UNL     1      14.903  16.533  31.622  1.00  0.00     0.010 C 
HETATM   17  C23 UNL     1      14.885  15.136  34.805  1.00  0.00     0.011 C 
HETATM   18  C24 UNL     1      16.388  15.186  32.807  1.00  0.00     0.010 C 
HETATM   19  C25 UNL     1      16.239  15.949  31.473  1.00  0.00    -0.005 C 
BRANCH   4  20
HETATM   20  O1  UNL     1      12.376  18.060  31.879  1.00  0.00    -0.377 OA
ATOM     21  H1  UNL     1      12.873  17.820  32.652  1.00  0.00     0.211 HD
ENDBRANCH   4  20
BRANCH   7  22
HETATM   22  C8  UNL     1      14.458  21.434  30.351  1.00  0.00    -0.052 C 
BRANCH  22  23
HETATM   23  C9  UNL     1      14.580  22.106  31.690  1.00  0.00     0.047 C 
BRANCH  23  24
HETATM   24  C10 UNL     1      15.762  22.977  31.917  1.00  0.00     0.104 C 
BRANCH  24  25
HETATM   25  C11 UNL     1      17.016  22.319  31.406  1.00  0.00     0.231 C 
HETATM   26  N1  UNL     1      17.696  21.485  32.334  1.00  0.00    -0.062 NA
HETATM   27  O2  UNL     1      17.380  22.530  30.239  1.00  0.00    -0.277 OA
ENDBRANCH  24  25
ENDBRANCH  23  24
ENDBRANCH  22  23
BRANCH  22  28
HETATM   28  C12 UNL     1      13.993  22.281  29.285  1.00  0.00     0.042 C 
BRANCH  28  29
HETATM   29  C13 UNL     1      14.621  23.259  28.448  1.00  0.00     0.077 C 
BRANCH  29  30
HETATM   30  O3  UNL     1      15.055  24.439  29.126  1.00  0.00    -0.362 OA
ATOM     31  H3  UNL     1      14.399  25.122  29.198  1.00  0.00     0.217 HD
ENDBRANCH  29  30
BRANCH  29  32
HETATM   32  C14 UNL     1      15.590  23.033  27.357  1.00  0.00     0.099 C 
HETATM   33  C15 UNL     1      15.134  24.110  26.271  1.00  0.00     0.053 C 
HETATM   34  C16 UNL     1      15.512  21.787  26.573  1.00  0.00     0.053 C 
BRANCH  32  35
HETATM   35  O4  UNL     1      16.881  23.467  27.546  1.00  0.00    -0.384 OA
ATOM     36  H4  UNL     1      17.575  23.004  27.091  1.00  0.00     0.211 HD
ENDBRANCH  32  35
ENDBRANCH  29  32
ENDBRANCH  28  29
ENDBRANCH  22  28
ENDBRANCH   7  22
BRANCH  19  37
HETATM   37  C26 UNL     1      16.472  14.987  30.361  1.00  0.00    -0.018 C 
HETATM   38  C27 UNL     1      17.187  13.744  30.932  1.00  0.00     0.010 C 
HETATM   39  C28 UNL     1      15.247  14.542  29.614  1.00  0.00     0.010 C 
ENDBRANCH  19  37
ENDBRANCH   3   4
TORSDOF 12
ENDMDL
MODEL 5
REMARK VINA RESULT: -6.950854538      8.943     11.406
REMARK  12 active torsions:
REMARK  status: ('A' for Active; 'I' for Inactive)
REMARK    1  A    between atoms: C3_3  and  C4_4 
REMARK    2  A    between atoms: C4_4  and  O1_5 
REMARK    3  A    between atoms: C7_9  and  C8_10 
REMARK    4  A    between atoms: C8_10  and  C9_11 
REMARK    5  A    between atoms: C8_10  and  C12_16 
REMARK    6  A    between atoms: C9_11  and  C10_12 
REMARK    7  A    between atoms: C10_12  and  C11_13 
REMARK    8  A    between atoms: C12_16  and  C13_17 
REMARK    9  A    between atoms: C13_17  and  O3_18 
REMARK   10  A    between atoms: C13_17  and  C14_20 
REMARK   11  A    between atoms: C14_20  and  O4_23 
REMARK   12  A    between atoms: C25_34  and  C26_35 
ROOT
HETATM    1  C1  UNL     1       7.790  12.614  39.167  1.00  0.00     0.112 C 
HETATM    2  C2  UNL     1       8.933  11.741  38.884  1.00  0.00    -0.108 C 
HETATM    3  C3  UNL     1       9.882  11.016  38.629  1.00  0.00    -0.068 C 
ENDROOT
BRANCH   3   4
HETATM    4  C4  UNL     1      11.019  10.180  38.349  1.00  0.00     0.126 C 
HETATM    5  C5  UNL     1      10.668   8.825  38.995  1.00  0.00     0.056 C 
HETATM    6  C6  UNL     1      11.615   7.923  38.218  1.00  0.00     0.039 C 
HETATM    7  C7  UNL     1      13.040   8.294  38.370  1.00  0.00    -0.064 C 
HETATM    8  C17 UNL     1      13.403   9.631  38.952  1.00  0.00    -0.006 C 
HETATM    9  C18 UNL     1      14.016   9.516  40.354  1.00  0.00     0.021 C 
HETATM   10  C19 UNL     1      14.557  10.284  38.148  1.00  0.00     0.093 C 
HETATM   11  C30 UNL     1      12.273  10.600  39.098  1.00  0.00     0.051 C 
HETATM   12  C20 UNL     1      14.063  11.198  37.091  1.00  0.00     0.132 C 
HETATM   13  O5  UNL     1      14.497  11.172  35.928  1.00  0.00    -0.298 OA
HETATM   14  C21 UNL     1      13.021  12.213  37.323  1.00  0.00     0.064 C 
HETATM   15  C22 UNL     1      13.644  13.595  37.316  1.00  0.00    -0.007 C 
HETATM   16  C29 UNL     1      12.526  12.020  38.733  1.00  0.00     0.010 C 
HETATM   17  C23 UNL     1      12.915  14.496  36.324  1.00  0.00     0.011 C 
HETATM   18  C24 UNL     1      13.517  14.128  38.723  1.00  0.00     0.010 C 
HETATM   19  C25 UNL     1      13.307  12.888  39.619  1.00  0.00    -0.005 C 
BRANCH   4  20
HETATM   20  O1  UNL     1      11.237  10.006  36.983  1.00  0.00    -0.377 OA
ATOM     21  H1  UNL     1      10.830  10.685  36.457  1.00  0.00     0.211 HD
ENDBRANCH   4  20
BRANCH   7  22
HETATM   22  C8  UNL     1      14.007   7.163  38.500  1.00  0.00    -0.052 C 
BRANCH  22  23
HETATM   23  C9  UNL     1      13.983   6.410  37.200  1.00  0.00     0.047 C 
BRANCH  23  24
HETATM   24  C10 UNL     1      15.139   6.584  36.283  1.00  0.00     0.104 C 
BRANCH  24  25
HETATM   25  C11 UNL     1      14.954   7.801  35.417  1.00  0.00     0.231 C 
HETATM   26  N1  UNL     1      16.097   8.633  35.270  1.00  0.00    -0.062 NA
HETATM   27  O2  UNL     1      13.850   8.011  34.892  1.00  0.00    -0.277 OA
ENDBRANCH  24  25
ENDBRANCH  23  24
ENDBRANCH  22  23
BRANCH  22  28
HETATM   28  C12 UNL     1      14.142   6.345  39.676  1.00  0.00     0.042 C 
BRANCH  28  29
HETATM   29  C13 UNL     1      14.048   4.938  39.922  1.00  0.00     0.077 C 
BRANCH  29  30
HETATM   30  O3  UNL     1      12.842   4.327  39.460  1.00  0.00    -0.362 OA
ATOM     31  H3  UNL     1      12.896   3.946  38.591  1.00  0.00     0.217 HD
ENDBRANCH  29  30
BRANCH  29  32
HETATM   32  C14 UNL     1      15.106   3.918  39.778  1.00  0.00     0.099 C 
HETATM   33  C15 UNL     1      16.421   4.812  39.636  1.00  0.00     0.053 C 
HETATM   34  C16 UNL     1      15.170   3.118  38.542  1.00  0.00     0.053 C 
BRANCH  32  35
HETATM   35  O4  UNL     1      15.465   3.204  40.898  1.00  0.00    -0.384 OA
ATOM     36  H4  UNL     1      16.365   2.905  40.962  1.00  0.00     0.211 HD
ENDBRANCH  32  35
ENDBRANCH  29  32
ENDBRANCH  28  29
ENDBRANCH  22  28
ENDBRANCH   7  22
BRANCH  19  37
HETATM   37  C26 UNL     1      12.687  13.339  40.896  1.00  0.00    -0.018 C 
HETATM   38  C27 UNL     1      13.568  14.454  41.500  1.00  0.00     0.010 C 
HETATM   39  C28 UNL     1      11.274  13.839  40.796  1.00  0.00     0.010 C 
ENDBRANCH  19  37
ENDBRANCH   3   4
TORSDOF 12
ENDMDL
