MODEL 1
REMARK VINA RESULT: -10.123907989      0.000      0.000
REMARK  12 active torsions:
REMARK  status: ('A' for Active; 'I' for Inactive)
REMARK    1  A    between atoms: C2_2  and  C3_4 
REMARK    2  A    between atoms: C4_5  and  O2_6 
REMARK    3  A    between atoms: C12_15  and  N1_16 
REMARK       I    between atoms: N1_16  and  C14_18 
REMARK    4  A    between atoms: C14_18  and  C15_20 
REMARK    5  A    between atoms: C15_20  and  C16_21 
REMARK    6  A    between atoms: C16_21  and  C17_22 
REMARK    7  A    between atoms: C17_22  and  C18_23 
REMARK    8  A    between atoms: C18_23  and  C19_24 
REMARK    9  A    between atoms: C19_24  and  C20_25 
REMARK   10  A    between atoms: C20_25  and  O4_26 
REMARK   11  A    between atoms: N2_28  and  O5_30 
REMARK   12  A    between atoms: C28_39  and  O6_40 
ROOT
HETATM    1  C3  UNL     1      15.060  22.022  29.468  1.00  0.00     0.082 A 
HETATM    2  C4  UNL     1      15.843  22.073  30.750  1.00  0.00     0.138 C 
HETATM    3  C5  UNL     1      16.468  20.807  31.171  1.00  0.00     0.038 C 
HETATM    4  C6  UNL     1      15.920  19.560  30.580  1.00  0.00    -0.002 C 
HETATM    5  C7  UNL     1      16.157  18.312  31.404  1.00  0.00     0.001 C 
HETATM    6  C8  UNL     1      16.762  17.206  30.611  1.00  0.00     0.010 C 
HETATM    7  C9  UNL     1      16.099  15.894  30.575  1.00  0.00    -0.016 C 
HETATM    8  C10 UNL     1      15.406  15.610  29.228  1.00  0.00     0.010 C 
HETATM    9  C11 UNL     1      15.191  15.567  31.702  1.00  0.00     0.030 C 
HETATM   10  C12 UNL     1      15.354  16.553  32.827  1.00  0.00     0.095 C 
HETATM   11  C21 UNL     1      15.036  17.944  32.338  1.00  0.00    -0.019 C 
HETATM   12  C22 UNL     1      15.118  18.824  33.606  1.00  0.00     0.018 C 
HETATM   13  C23 UNL     1      13.664  18.127  31.827  1.00  0.00     0.012 C 
HETATM   14  C24 UNL     1      13.477  19.461  31.152  1.00  0.00     0.007 C 
HETATM   15  C25 UNL     1      14.503  19.644  30.082  1.00  0.00     0.002 C 
HETATM   16  C26 UNL     1      14.301  20.819  29.201  1.00  0.00     0.007 A 
HETATM   17  C27 UNL     1      13.953  20.564  27.728  1.00  0.00     0.020 C 
HETATM   18  C28 UNL     1      13.533  22.023  29.744  1.00  0.00     0.147 A 
ENDROOT
BRANCH  10  19
HETATM   19  N1  UNL     1      14.733  16.140  34.035  1.00  0.00    -0.351 N 
HETATM   20  C13 UNL     1      13.331  16.427  34.250  1.00  0.00     0.153 C 
HETATM   21  C14 UNL     1      15.407  15.404  35.068  1.00  0.00     0.219 C 
HETATM   22  O3  UNL     1      14.777  15.088  36.109  1.00  0.00    -0.273 OA
BRANCH  21  23
HETATM   23  C15 UNL     1      16.815  14.999  34.961  1.00  0.00     0.103 C 
BRANCH  23  24
HETATM   24  C16 UNL     1      17.085  13.546  35.115  1.00  0.00     0.009 C 
BRANCH  24  25
HETATM   25  C17 UNL     1      17.751  12.870  33.968  1.00  0.00     0.001 C 
BRANCH  25  26
HETATM   26  C18 UNL     1      18.206  13.806  32.875  1.00  0.00     0.008 C 
BRANCH  26  27
HETATM   27  C19 UNL     1      19.564  14.402  33.162  1.00  0.00     0.086 C 
BRANCH  27  28
HETATM   28  C20 UNL     1      20.273  14.794  31.931  1.00  0.00     0.135 C 
HETATM   29  N2  UNL     1      19.691  15.453  30.995  1.00  0.00    -0.251 N 
ATOM     30  H2  UNL     1      18.711  15.706  31.120  1.00  0.00     0.196 HD
BRANCH  28  31
HETATM   31  O4  UNL     1      21.601  14.446  31.770  1.00  0.00    -0.348 OA
ATOM     32  H4  UNL     1      21.823  13.658  31.290  1.00  0.00     0.219 HD
ENDBRANCH  28  31
BRANCH  29  33
HETATM   33  O5  UNL     1      20.310  15.833  29.846  1.00  0.00    -0.288 OA
ATOM     34  H5  UNL     1      20.891  16.582  29.784  1.00  0.00     0.244 HD
ENDBRANCH  29  33
ENDBRANCH  27  28
ENDBRANCH  26  27
ENDBRANCH  25  26
ENDBRANCH  24  25
ENDBRANCH  23  24
ENDBRANCH  21  23
ENDBRANCH  10  19
BRANCH   2  35
HETATM   35  O2  UNL     1      15.073  22.633  31.799  1.00  0.00    -0.394 OA
ATOM     36  H2  UNL     1      15.520  22.554  32.634  1.00  0.00     0.210 HD
ENDBRANCH   2  35
BRANCH   1  37
HETATM   37  C2  UNL     1      15.474  22.934  28.364  1.00  0.00     0.137 C 
HETATM   38  C1  UNL     1      15.864  22.476  27.014  1.00  0.00     0.092 C 
HETATM   39  O1  UNL     1      15.489  24.130  28.590  1.00  0.00    -0.297 OA
ENDBRANCH   1  37
BRANCH  18  40
HETATM   40  O6  UNL     1      12.761  22.791  28.889  1.00  0.00    -0.393 OA
ATOM     41  H6  UNL     1      11.834  22.836  29.091  1.00  0.00     0.210 HD
ENDBRANCH  18  40
TORSDOF 12
ENDMDL
MODEL 2
REMARK VINA RESULT: -10.122729965      1.984      2.472
REMARK  12 active torsions:
REMARK  status: ('A' for Active; 'I' for Inactive)
REMARK    1  A    between atoms: C2_2  and  C3_4 
REMARK    2  A    between atoms: C4_5  and  O2_6 
REMARK    3  A    between atoms: C12_15  and  N1_16 
REMARK       I    between atoms: N1_16  and  C14_18 
REMARK    4  A    between atoms: C14_18  and  C15_20 
REMARK    5  A    between atoms: C15_20  and  C16_21 
REMARK    6  A    between atoms: C16_21  and  C17_22 
REMARK    7  A    between atoms: C17_22  and  C18_23 
REMARK    8  A    between atoms: C18_23  and  C19_24 
REMARK    9  A    between atoms: C19_24  and  C20_25 
REMARK   10  A    between atoms: C20_25  and  O4_26 
REMARK   11  A    between atoms: N2_28  and  O5_30 
REMARK   12  A    between atoms: C28_39  and  O6_40 
ROOT
HETATM    1  C3  UNL     1      15.010  21.973  29.503  1.00  0.00     0.082 A 
HETATM    2  C4  UNL     1      15.845  22.046  30.750  1.00  0.00     0.138 C 
HETATM    3  C5  UNL     1      16.536  20.801  31.134  1.00  0.00     0.038 C 
HETATM    4  C6  UNL     1      16.010  19.539  30.557  1.00  0.00    -0.002 C 
HETATM    5  C7  UNL     1      16.330  18.296  31.361  1.00  0.00     0.001 C 
HETATM    6  C8  UNL     1      16.941  17.219  30.533  1.00  0.00     0.010 C 
HETATM    7  C9  UNL     1      16.327  15.882  30.516  1.00  0.00    -0.016 C 
HETATM    8  C10 UNL     1      15.589  15.580  29.197  1.00  0.00     0.010 C 
HETATM    9  C11 UNL     1      15.482  15.514  31.677  1.00  0.00     0.030 C 
HETATM   10  C12 UNL     1      15.656  16.498  32.802  1.00  0.00     0.095 C 
HETATM   11  C21 UNL     1      15.265  17.879  32.338  1.00  0.00    -0.019 C 
HETATM   12  C22 UNL     1      15.367  18.753  33.608  1.00  0.00     0.018 C 
HETATM   13  C23 UNL     1      13.866  18.013  31.888  1.00  0.00     0.012 C 
HETATM   14  C24 UNL     1      13.600  19.342  31.232  1.00  0.00     0.007 C 
HETATM   15  C25 UNL     1      14.571  19.571  30.120  1.00  0.00     0.002 C 
HETATM   16  C26 UNL     1      14.287  20.743  29.258  1.00  0.00     0.007 A 
HETATM   17  C27 UNL     1      13.886  20.485  27.799  1.00  0.00     0.020 C 
HETATM   18  C28 UNL     1      13.497  21.913  29.844  1.00  0.00     0.147 A 
ENDROOT
BRANCH  10  19
HETATM   19  N1  UNL     1      15.104  16.054  34.032  1.00  0.00    -0.351 N 
HETATM   20  C13 UNL     1      13.687  16.219  34.278  1.00  0.00     0.153 C 
HETATM   21  C14 UNL     1      15.865  15.400  35.060  1.00  0.00     0.219 C 
HETATM   22  O3  UNL     1      15.291  15.049  36.121  1.00  0.00    -0.273 OA
BRANCH  21  23
HETATM   23  C15 UNL     1      17.301  15.120  34.924  1.00  0.00     0.103 C 
BRANCH  23  24
HETATM   24  C16 UNL     1      17.654  13.738  34.510  1.00  0.00     0.009 C 
BRANCH  24  25
HETATM   25  C17 UNL     1      16.628  12.688  34.761  1.00  0.00     0.001 C 
BRANCH  25  26
HETATM   26  C18 UNL     1      16.967  11.748  35.892  1.00  0.00     0.008 C 
BRANCH  26  27
HETATM   27  C19 UNL     1      17.210  10.338  35.408  1.00  0.00     0.086 C 
BRANCH  27  28
HETATM   28  C20 UNL     1      18.613  10.118  35.012  1.00  0.00     0.135 C 
HETATM   29  N2  UNL     1      19.580  10.764  35.556  1.00  0.00    -0.251 N 
ATOM     30  H2  UNL     1      19.357  11.445  36.282  1.00  0.00     0.196 HD
BRANCH  28  31
HETATM   31  O4  UNL     1      18.904   9.193  34.027  1.00  0.00    -0.348 OA
ATOM     32  H4  UNL     1      19.683   9.306  33.495  1.00  0.00     0.219 HD
ENDBRANCH  28  31
BRANCH  29  33
HETATM   33  O5  UNL     1      20.884  10.590  35.219  1.00  0.00    -0.288 OA
ATOM     34  H5  UNL     1      21.371   9.793  35.395  1.00  0.00     0.244 HD
ENDBRANCH  29  33
ENDBRANCH  27  28
ENDBRANCH  26  27
ENDBRANCH  25  26
ENDBRANCH  24  25
ENDBRANCH  23  24
ENDBRANCH  21  23
ENDBRANCH  10  19
BRANCH   2  35
HETATM   35  O2  UNL     1      15.100  22.569  31.836  1.00  0.00    -0.394 OA
ATOM     36  H2  UNL     1      15.140  21.992  32.590  1.00  0.00     0.210 HD
ENDBRANCH   2  35
BRANCH   1  37
HETATM   37  C2  UNL     1      15.341  22.907  28.389  1.00  0.00     0.137 C 
HETATM   38  C1  UNL     1      15.777  22.472  27.046  1.00  0.00     0.092 C 
HETATM   39  O1  UNL     1      15.246  24.102  28.602  1.00  0.00    -0.297 OA
ENDBRANCH   1  37
BRANCH  18  40
HETATM   40  O6  UNL     1      12.661  22.657  29.028  1.00  0.00    -0.393 OA
ATOM     41  H6  UNL     1      12.234  23.401  29.436  1.00  0.00     0.210 HD
ENDBRANCH  18  40
TORSDOF 12
ENDMDL
MODEL 3
REMARK VINA RESULT: -10.022902720      2.283      3.513
REMARK  12 active torsions:
REMARK  status: ('A' for Active; 'I' for Inactive)
REMARK    1  A    between atoms: C2_2  and  C3_4 
REMARK    2  A    between atoms: C4_5  and  O2_6 
REMARK    3  A    between atoms: C12_15  and  N1_16 
REMARK       I    between atoms: N1_16  and  C14_18 
REMARK    4  A    between atoms: C14_18  and  C15_20 
REMARK    5  A    between atoms: C15_20  and  C16_21 
REMARK    6  A    between atoms: C16_21  and  C17_22 
REMARK    7  A    between atoms: C17_22  and  C18_23 
REMARK    8  A    between atoms: C18_23  and  C19_24 
REMARK    9  A    between atoms: C19_24  and  C20_25 
REMARK   10  A    between atoms: C20_25  and  O4_26 
REMARK   11  A    between atoms: N2_28  and  O5_30 
REMARK   12  A    between atoms: C28_39  and  O6_40 
ROOT
HETATM    1  C3  UNL     1      14.992  21.938  29.475  1.00  0.00     0.082 A 
HETATM    2  C4  UNL     1      15.843  22.006  30.713  1.00  0.00     0.138 C 
HETATM    3  C5  UNL     1      16.517  20.752  31.097  1.00  0.00     0.038 C 
HETATM    4  C6  UNL     1      15.964  19.495  30.535  1.00  0.00    -0.002 C 
HETATM    5  C7  UNL     1      16.272  18.252  31.343  1.00  0.00     0.001 C 
HETATM    6  C8  UNL     1      16.856  17.159  30.516  1.00  0.00     0.010 C 
HETATM    7  C9  UNL     1      16.220  15.833  30.515  1.00  0.00    -0.016 C 
HETATM    8  C10 UNL     1      15.461  15.534  29.207  1.00  0.00     0.010 C 
HETATM    9  C11 UNL     1      15.383  15.487  31.689  1.00  0.00     0.030 C 
HETATM   10  C12 UNL     1      15.586  16.475  32.805  1.00  0.00     0.095 C 
HETATM   11  C21 UNL     1      15.212  17.859  32.336  1.00  0.00    -0.019 C 
HETATM   12  C22 UNL     1      15.344  18.740  33.599  1.00  0.00     0.018 C 
HETATM   13  C23 UNL     1      13.811  18.013  31.902  1.00  0.00     0.012 C 
HETATM   14  C24 UNL     1      13.559  19.343  31.239  1.00  0.00     0.007 C 
HETATM   15  C25 UNL     1      14.521  19.548  30.115  1.00  0.00     0.002 C 
HETATM   16  C26 UNL     1      14.246  20.719  29.248  1.00  0.00     0.007 A 
HETATM   17  C27 UNL     1      13.823  20.457  27.796  1.00  0.00     0.020 C 
HETATM   18  C28 UNL     1      13.483  21.906  29.835  1.00  0.00     0.147 A 
ENDROOT
BRANCH  10  19
HETATM   19  N1  UNL     1      15.041  16.049  34.044  1.00  0.00    -0.351 N 
HETATM   20  C13 UNL     1      13.688  16.426  34.395  1.00  0.00     0.153 C 
HETATM   21  C14 UNL     1      15.742  15.215  34.981  1.00  0.00     0.219 C 
HETATM   22  O3  UNL     1      15.181  14.895  36.059  1.00  0.00    -0.273 OA
BRANCH  21  23
HETATM   23  C15 UNL     1      17.101  14.715  34.731  1.00  0.00     0.103 C 
BRANCH  23  24
HETATM   24  C16 UNL     1      17.195  13.321  34.228  1.00  0.00     0.009 C 
BRANCH  24  25
HETATM   25  C17 UNL     1      17.490  12.269  35.240  1.00  0.00     0.001 C 
BRANCH  25  26
HETATM   26  C18 UNL     1      16.276  11.757  35.975  1.00  0.00     0.008 C 
BRANCH  26  27
HETATM   27  C19 UNL     1      16.345  10.269  36.224  1.00  0.00     0.086 C 
BRANCH  27  28
HETATM   28  C20 UNL     1      15.071   9.592  35.924  1.00  0.00     0.135 C 
HETATM   29  N2  UNL     1      15.002   8.609  35.100  1.00  0.00    -0.251 N 
ATOM     30  H2  UNL     1      15.862   8.299  34.649  1.00  0.00     0.196 HD
BRANCH  28  31
HETATM   31  O4  UNL     1      13.911  10.021  36.542  1.00  0.00    -0.348 OA
ATOM     32  H4  UNL     1      13.076   9.897  36.107  1.00  0.00     0.219 HD
ENDBRANCH  28  31
BRANCH  29  33
HETATM   33  O5  UNL     1      13.848   7.961  34.798  1.00  0.00    -0.288 OA
ATOM     34  H5  UNL     1      13.790   7.021  34.670  1.00  0.00     0.244 HD
ENDBRANCH  29  33
ENDBRANCH  27  28
ENDBRANCH  26  27
ENDBRANCH  25  26
ENDBRANCH  24  25
ENDBRANCH  23  24
ENDBRANCH  21  23
ENDBRANCH  10  19
BRANCH   2  35
HETATM   35  O2  UNL     1      15.120  22.548  31.803  1.00  0.00    -0.394 OA
ATOM     36  H2  UNL     1      15.191  21.995  32.573  1.00  0.00     0.210 HD
ENDBRANCH   2  35
BRANCH   1  37
HETATM   37  C2  UNL     1      15.325  22.859  28.352  1.00  0.00     0.137 C 
HETATM   38  C1  UNL     1      15.804  22.410  27.028  1.00  0.00     0.092 C 
HETATM   39  O1  UNL     1      15.194  24.055  28.539  1.00  0.00    -0.297 OA
ENDBRANCH   1  37
BRANCH  18  40
HETATM   40  O6  UNL     1      12.650  22.658  29.024  1.00  0.00    -0.393 OA
ATOM     41  H6  UNL     1      11.788  22.293  28.859  1.00  0.00     0.210 HD
ENDBRANCH  18  40
TORSDOF 12
ENDMDL
MODEL 4
REMARK VINA RESULT: -9.896713367      2.121      2.987
REMARK  12 active torsions:
REMARK  status: ('A' for Active; 'I' for Inactive)
REMARK    1  A    between atoms: C2_2  and  C3_4 
REMARK    2  A    between atoms: C4_5  and  O2_6 
REMARK    3  A    between atoms: C12_15  and  N1_16 
REMARK       I    between atoms: N1_16  and  C14_18 
REMARK    4  A    between atoms: C14_18  and  C15_20 
REMARK    5  A    between atoms: C15_20  and  C16_21 
REMARK    6  A    between atoms: C16_21  and  C17_22 
REMARK    7  A    between atoms: C17_22  and  C18_23 
REMARK    8  A    between atoms: C18_23  and  C19_24 
REMARK    9  A    between atoms: C19_24  and  C20_25 
REMARK   10  A    between atoms: C20_25  and  O4_26 
REMARK   11  A    between atoms: N2_28  and  O5_30 
REMARK   12  A    between atoms: C28_39  and  O6_40 
ROOT
HETATM    1  C3  UNL     1      14.787  21.518  29.219  1.00  0.00     0.082 A 
HETATM    2  C4  UNL     1      15.822  21.639  30.303  1.00  0.00     0.138 C 
HETATM    3  C5  UNL     1      16.568  20.407  30.617  1.00  0.00     0.038 C 
HETATM    4  C6  UNL     1      15.952  19.125  30.194  1.00  0.00    -0.002 C 
HETATM    5  C7  UNL     1      16.404  17.915  30.985  1.00  0.00     0.001 C 
HETATM    6  C8  UNL     1      16.866  16.799  30.113  1.00  0.00     0.010 C 
HETATM    7  C9  UNL     1      16.258  15.467  30.259  1.00  0.00    -0.016 C 
HETATM    8  C10 UNL     1      15.306  15.114  29.099  1.00  0.00     0.010 C 
HETATM    9  C11 UNL     1      15.624  15.156  31.562  1.00  0.00     0.030 C 
HETATM   10  C12 UNL     1      15.986  16.186  32.597  1.00  0.00     0.095 C 
HETATM   11  C21 UNL     1      15.521  17.549  32.147  1.00  0.00    -0.019 C 
HETATM   12  C22 UNL     1      15.839  18.476  33.341  1.00  0.00     0.018 C 
HETATM   13  C23 UNL     1      14.066  17.673  31.936  1.00  0.00     0.012 C 
HETATM   14  C24 UNL     1      13.692  18.975  31.277  1.00  0.00     0.007 C 
HETATM   15  C25 UNL     1      14.460  19.149  30.007  1.00  0.00     0.002 C 
HETATM   16  C26 UNL     1      14.033  20.285  29.156  1.00  0.00     0.007 A 
HETATM   17  C27 UNL     1      13.389  19.967  27.799  1.00  0.00     0.020 C 
HETATM   18  C28 UNL     1      13.355  21.485  29.815  1.00  0.00     0.147 A 
ENDROOT
BRANCH  10  19
HETATM   19  N1  UNL     1      15.651  15.800  33.921  1.00  0.00    -0.351 N 
HETATM   20  C13 UNL     1      14.314  16.043  34.418  1.00  0.00     0.153 C 
HETATM   21  C14 UNL     1      16.559  15.131  34.813  1.00  0.00     0.219 C 
HETATM   22  O3  UNL     1      16.176  14.835  35.972  1.00  0.00    -0.273 OA
BRANCH  21  23
HETATM   23  C15 UNL     1      17.930  14.775  34.423  1.00  0.00     0.103 C 
BRANCH  23  24
HETATM   24  C16 UNL     1      18.092  13.456  33.760  1.00  0.00     0.009 C 
BRANCH  24  25
HETATM   25  C17 UNL     1      18.884  12.434  34.500  1.00  0.00     0.001 C 
BRANCH  25  26
HETATM   26  C18 UNL     1      18.358  11.026  34.368  1.00  0.00     0.008 C 
BRANCH  26  27
HETATM   27  C19 UNL     1      17.846  10.483  35.681  1.00  0.00     0.086 C 
BRANCH  27  28
HETATM   28  C20 UNL     1      16.416  10.777  35.887  1.00  0.00     0.135 C 
HETATM   29  N2  UNL     1      16.014  11.917  36.320  1.00  0.00    -0.251 N 
ATOM     30  H2  UNL     1      16.714  12.630  36.522  1.00  0.00     0.196 HD
BRANCH  28  31
HETATM   31  O4  UNL     1      15.475   9.803  35.611  1.00  0.00    -0.348 OA
ATOM     32  H4  UNL     1      14.551  10.007  35.697  1.00  0.00     0.219 HD
ENDBRANCH  28  31
BRANCH  29  33
HETATM   33  O5  UNL     1      14.707  12.225  36.524  1.00  0.00    -0.288 OA
ATOM     34  H5  UNL     1      14.036  11.578  36.707  1.00  0.00     0.244 HD
ENDBRANCH  29  33
ENDBRANCH  27  28
ENDBRANCH  26  27
ENDBRANCH  25  26
ENDBRANCH  24  25
ENDBRANCH  23  24
ENDBRANCH  21  23
ENDBRANCH  10  19
BRANCH   2  35
HETATM   35  O2  UNL     1      15.273  22.214  31.475  1.00  0.00    -0.394 OA
ATOM     36  H2  UNL     1      15.774  22.972  31.754  1.00  0.00     0.210 HD
ENDBRANCH   2  35
BRANCH   1  37
HETATM   37  C2  UNL     1      14.924  22.401  28.026  1.00  0.00     0.137 C 
HETATM   38  C1  UNL     1      15.536  21.979  26.750  1.00  0.00     0.092 C 
HETATM   39  O1  UNL     1      14.503  23.540  28.111  1.00  0.00    -0.297 OA
ENDBRANCH   1  37
BRANCH  18  40
HETATM   40  O6  UNL     1      12.392  22.199  29.122  1.00  0.00    -0.393 OA
ATOM     41  H6  UNL     1      12.594  23.110  28.947  1.00  0.00     0.210 HD
ENDBRANCH  18  40
TORSDOF 12
ENDMDL
MODEL 5
REMARK VINA RESULT: -9.645576426      2.511      3.694
REMARK  12 active torsions:
REMARK  status: ('A' for Active; 'I' for Inactive)
REMARK    1  A    between atoms: C2_2  and  C3_4 
REMARK    2  A    between atoms: C4_5  and  O2_6 
REMARK    3  A    between atoms: C12_15  and  N1_16 
REMARK       I    between atoms: N1_16  and  C14_18 
REMARK    4  A    between atoms: C14_18  and  C15_20 
REMARK    5  A    between atoms: C15_20  and  C16_21 
REMARK    6  A    between atoms: C16_21  and  C17_22 
REMARK    7  A    between atoms: C17_22  and  C18_23 
REMARK    8  A    between atoms: C18_23  and  C19_24 
REMARK    9  A    between atoms: C19_24  and  C20_25 
REMARK   10  A    between atoms: C20_25  and  O4_26 
REMARK   11  A    between atoms: N2_28  and  O5_30 
REMARK   12  A    between atoms: C28_39  and  O6_40 
ROOT
HETATM    1  C3  UNL     1      14.016  21.183  29.841  1.00  0.00     0.082 A 
HETATM    2  C4  UNL     1      14.615  21.506  31.182  1.00  0.00     0.138 C 
HETATM    3  C5  UNL     1      15.581  20.523  31.706  1.00  0.00     0.038 C 
HETATM    4  C6  UNL     1      15.533  19.159  31.123  1.00  0.00    -0.002 C 
HETATM    5  C7  UNL     1      16.090  18.070  32.015  1.00  0.00     0.001 C 
HETATM    6  C8  UNL     1      17.098  17.220  31.321  1.00  0.00     0.010 C 
HETATM    7  C9  UNL     1      16.911  15.761  31.284  1.00  0.00    -0.016 C 
HETATM    8  C10 UNL     1      16.481  15.248  29.896  1.00  0.00     0.010 C 
HETATM    9  C11 UNL     1      16.061  15.163  32.342  1.00  0.00     0.030 C 
HETATM   10  C12 UNL     1      15.783  16.160  33.435  1.00  0.00     0.095 C 
HETATM   11  C21 UNL     1      15.072  17.360  32.864  1.00  0.00    -0.019 C 
HETATM   12  C22 UNL     1      14.739  18.230  34.097  1.00  0.00     0.018 C 
HETATM   13  C23 UNL     1      13.770  17.071  32.232  1.00  0.00     0.012 C 
HETATM   14  C24 UNL     1      13.218  18.260  31.489  1.00  0.00     0.007 C 
HETATM   15  C25 UNL     1      14.221  18.762  30.503  1.00  0.00     0.002 C 
HETATM   16  C26 UNL     1      13.726  19.794  29.560  1.00  0.00     0.007 A 
HETATM   17  C27 UNL     1      13.621  19.422  28.075  1.00  0.00     0.020 C 
HETATM   18  C28 UNL     1      12.556  20.679  29.987  1.00  0.00     0.147 A 
ENDROOT
BRANCH  10  19
HETATM   19  N1  UNL     1      15.223  15.577  34.602  1.00  0.00    -0.351 N 
HETATM   20  C13 UNL     1      13.879  15.934  35.002  1.00  0.00     0.153 C 
HETATM   21  C14 UNL     1      15.900  14.602  35.413  1.00  0.00     0.219 C 
HETATM   22  O3  UNL     1      15.327  14.148  36.434  1.00  0.00    -0.273 OA
BRANCH  21  23
HETATM   23  C15 UNL     1      17.247  14.109  35.096  1.00  0.00     0.103 C 
BRANCH  23  24
HETATM   24  C16 UNL     1      17.316  12.746  34.509  1.00  0.00     0.009 C 
BRANCH  24  25
HETATM   25  C17 UNL     1      17.977  11.700  35.339  1.00  0.00     0.001 C 
BRANCH  25  26
HETATM   26  C18 UNL     1      17.145  10.459  35.550  1.00  0.00     0.008 C 
BRANCH  26  27
HETATM   27  C19 UNL     1      15.919  10.729  36.389  1.00  0.00     0.086 C 
BRANCH  27  28
HETATM   28  C20 UNL     1      14.771   9.898  35.985  1.00  0.00     0.135 C 
HETATM   29  N2  UNL     1      14.916   8.852  35.254  1.00  0.00    -0.251 N 
ATOM     30  H2  UNL     1      15.857   8.601  34.953  1.00  0.00     0.196 HD
BRANCH  28  31
HETATM   31  O4  UNL     1      13.500  10.247  36.399  1.00  0.00    -0.348 OA
ATOM     32  H4  UNL     1      13.392  10.908  37.072  1.00  0.00     0.219 HD
ENDBRANCH  28  31
BRANCH  29  33
HETATM   33  O5  UNL     1      13.884   8.061  34.860  1.00  0.00    -0.288 OA
ATOM     34  H5  UNL     1      13.985   7.150  34.612  1.00  0.00     0.244 HD
ENDBRANCH  29  33
ENDBRANCH  27  28
ENDBRANCH  26  27
ENDBRANCH  25  26
ENDBRANCH  24  25
ENDBRANCH  23  24
ENDBRANCH  21  23
ENDBRANCH  10  19
BRANCH   2  35
HETATM   35  O2  UNL     1      13.609  21.789  32.138  1.00  0.00    -0.394 OA
ATOM     36  H2  UNL     1      13.823  22.564  32.643  1.00  0.00     0.210 HD
ENDBRANCH   2  35
BRANCH   1  37
HETATM   37  C2  UNL     1      14.208  22.169  28.739  1.00  0.00     0.137 C 
HETATM   38  C1  UNL     1      15.227  22.037  27.678  1.00  0.00     0.092 C 
HETATM   39  O1  UNL     1      13.477  23.142  28.715  1.00  0.00    -0.297 OA
ENDBRANCH   1  37
BRANCH  18  40
HETATM   40  O6  UNL     1      11.658  21.138  29.038  1.00  0.00    -0.393 OA
ATOM     41  H6  UNL     1      11.821  22.010  28.697  1.00  0.00     0.210 HD
ENDBRANCH  18  40
TORSDOF 12
ENDMDL
