MODEL 1
REMARK VINA RESULT: -9.460595799      0.000      0.000
REMARK  13 active torsions:
REMARK  status: ('A' for Active; 'I' for Inactive)
REMARK    1  A    between atoms: O1_2  and  N1_3 
REMARK    2  A    between atoms: N1_3  and  C3_5 
REMARK    3  A    between atoms: C3_5  and  C4_6 
REMARK    4  A    between atoms: C5_9  and  C6_10 
REMARK    5  A    between atoms: C6_10  and  C7_11 
REMARK    6  A    between atoms: C6_10  and  N3_15 
REMARK    7  A    between atoms: C7_11  and  O2_13 
REMARK    8  A    between atoms: N3_15  and  O3_16 
REMARK    9  A    between atoms: N3_15  and  C9_18 
REMARK   10  A    between atoms: C12_29  and  C13_30 
REMARK   11  A    between atoms: C16_36  and  N9_37 
REMARK   12  A    between atoms: C18_47  and  N13_48 
REMARK   13  A    between atoms: N13_48  and  N14_50 
ROOT
HETATM    1  C6  UNL     1      -8.706  41.005 -45.107  1.00  0.00     0.212 C 
ENDROOT
BRANCH   1   2
HETATM    2  C5  UNL     1      -7.816  40.196 -46.056  1.00  0.00     0.127 A 
HETATM    3  N2  UNL     1      -8.040  38.911 -46.237  1.00  0.00    -0.331 N 
HETATM    4  C4  UNL     1      -7.324  38.071 -47.062  1.00  0.00     0.140 A 
ATOM      5  H2  UNL     1      -8.816  38.499 -45.718  1.00  0.00     0.168 HD
HETATM    6  N17 UNL     1      -6.318  38.649 -47.722  1.00  0.00     0.036 N 
HETATM    7  C17 UNL     1      -6.063  39.986 -47.552  1.00  0.00     0.721 A 
HETATM    8  C19 UNL     1      -5.548  37.938 -48.552  1.00  0.00     0.713 A 
HETATM    9  N11 UNL     1      -6.807  40.755 -46.724  1.00  0.00    -0.176 N 
HETATM   10  N12 UNL     1      -5.040  40.540 -48.232  1.00  0.00    -0.019 N 
ATOM     11  H11 UNL     1      -6.599  41.747 -46.613  1.00  0.00     0.185 HD
HETATM   12  C18 UNL     1      -4.254  39.872 -49.064  1.00  0.00     0.725 A 
ATOM     13  H12 UNL     1      -4.859  41.535 -48.099  1.00  0.00     0.203 HD
HETATM   14  N15 UNL     1      -4.520  38.563 -49.217  1.00  0.00    -0.020 N 
ATOM     15  H15 UNL     1      -3.938  38.015 -49.850  1.00  0.00     0.203 HD
HETATM   16  N16 UNL     1      -5.746  36.684 -48.743  1.00  0.00    -0.233 N 
ATOM     17 2H16 UNL     1      -5.159  36.141 -49.376  1.00  0.00     0.174 HD
ATOM     18 1H16 UNL     1      -6.508  36.220 -48.250  1.00  0.00     0.174 HD
BRANCH   4  19
HETATM   19  C3  UNL     1      -7.665  36.677 -47.174  1.00  0.00     0.198 C 
BRANCH  19  20
HETATM   20  N1  UNL     1      -7.105  35.783 -46.159  1.00  0.00    -0.195 NA
HETATM   21  C2  UNL     1      -8.210  35.334 -45.320  1.00  0.00     0.144 C 
BRANCH  20  22
HETATM   22  O1  UNL     1      -6.237  36.471 -45.372  1.00  0.00    -0.308 OA
HETATM   23  C1  UNL     1      -6.515  36.424 -44.034  1.00  0.00     0.229 C 
ENDBRANCH  20  22
ENDBRANCH  19  20
ENDBRANCH   4  19
BRANCH  12  24
HETATM   24  N13 UNL     1      -3.269  40.407 -49.718  1.00  0.00    -0.138 N 
ATOM     25  H13 UNL     1      -3.013  41.383 -49.564  1.00  0.00     0.205 HD
BRANCH  24  26
HETATM   26  N14 UNL     1      -2.566  39.623 -50.636  1.00  0.00    -0.331 N 
ATOM     27 2H14 UNL     1      -2.826  39.646 -51.622  1.00  0.00     0.177 HD
ATOM     28 1H14 UNL     1      -1.799  39.040 -50.299  1.00  0.00     0.177 HD
ENDBRANCH  24  26
ENDBRANCH  12  24
ENDBRANCH   1   2
BRANCH   1  29
HETATM   29  C7  UNL     1      -9.557  41.835 -46.017  1.00  0.00     0.146 C 
HETATM   30  C8  UNL     1      -9.513  43.306 -45.778  1.00  0.00     0.042 C 
BRANCH  29  31
HETATM   31  O2  UNL     1      -9.342  41.529 -47.352  1.00  0.00    -0.393 OA
ATOM     32  H2  UNL     1      -9.056  40.631 -47.470  1.00  0.00     0.210 HD
ENDBRANCH  29  31
ENDBRANCH   1  29
BRANCH   1  33
HETATM   33  N3  UNL     1      -9.332  40.170 -44.176  1.00  0.00    -0.227 N 
BRANCH  33  34
HETATM   34  O3  UNL     1      -8.593  39.814 -43.063  1.00  0.00    -0.285 OA
ATOM     35  H3  UNL     1      -8.090  40.502 -42.645  1.00  0.00     0.245 HD
ENDBRANCH  33  34
BRANCH  33  36
HETATM   36  C9  UNL     1     -10.637  39.703 -44.214  1.00  0.00     0.170 A 
HETATM   37  N4  UNL     1     -11.273  39.128 -45.251  1.00  0.00    -0.267 N 
HETATM   38  N5  UNL     1     -12.499  38.806 -44.954  1.00  0.00    -0.236 N 
ATOM     39  H4  UNL     1     -10.845  38.965 -46.162  1.00  0.00     0.190 HD
HETATM   40  N6  UNL     1     -12.696  39.166 -43.701  1.00  0.00    -0.239 N 
ATOM     41  H5  UNL     1     -13.178  38.360 -45.572  1.00  0.00     0.208 HD
HETATM   42  C10 UNL     1     -11.585  39.722 -43.197  1.00  0.00     0.105 A 
HETATM   43  C12 UNL     1     -13.753  39.139 -42.710  1.00  0.00     0.359 C 
HETATM   44  C11 UNL     1     -11.929  40.063 -41.792  1.00  0.00     0.298 C 
HETATM   45  N7  UNL     1     -13.006  39.151 -41.465  1.00  0.00    -0.041 N 
ATOM     46  H72 UNL     1     -12.716  38.235 -41.122  1.00  0.00     0.280 HD
ATOM     47  H71 UNL     1     -13.546  39.392 -40.634  1.00  0.00     0.280 HD
BRANCH  43  48
HETATM   48  C13 UNL     1     -14.608  37.945 -42.837  1.00  0.00     0.083 A 
HETATM   49  C14 UNL     1     -14.084  36.678 -42.952  1.00  0.00     0.104 A 
HETATM   50  C15 UNL     1     -14.890  35.561 -43.071  1.00  0.00     0.261 A 
HETATM   51  O4  UNL     1     -14.443  34.395 -43.177  1.00  0.00    -0.268 OA
HETATM   52  N8  UNL     1     -16.220  35.728 -43.072  1.00  0.00    -0.156 N 
HETATM   53  C16 UNL     1     -16.744  36.952 -42.962  1.00  0.00     0.679 A 
ATOM     54  H8  UNL     1     -16.834  34.919 -43.157  1.00  0.00     0.187 HD
HETATM   55  N10 UNL     1     -15.943  38.042 -42.845  1.00  0.00    -0.192 N 
ATOM     56  H10 UNL     1     -16.373  38.963 -42.761  1.00  0.00     0.184 HD
BRANCH  53  57
HETATM   57  N9  UNL     1     -18.049  37.083 -42.966  1.00  0.00    -0.234 N 
ATOM     58  H92 UNL     1     -18.650  36.266 -43.066  1.00  0.00     0.174 HD
ATOM     59  H91 UNL     1     -18.449  38.017 -42.869  1.00  0.00     0.174 HD
ENDBRANCH  53  57
ENDBRANCH  43  48
ENDBRANCH  33  36
ENDBRANCH   1  33
TORSDOF 13
ENDMDL
MODEL 2
REMARK VINA RESULT: -9.443766798      1.767      2.247
REMARK  13 active torsions:
REMARK  status: ('A' for Active; 'I' for Inactive)
REMARK    1  A    between atoms: O1_2  and  N1_3 
REMARK    2  A    between atoms: N1_3  and  C3_5 
REMARK    3  A    between atoms: C3_5  and  C4_6 
REMARK    4  A    between atoms: C5_9  and  C6_10 
REMARK    5  A    between atoms: C6_10  and  C7_11 
REMARK    6  A    between atoms: C6_10  and  N3_15 
REMARK    7  A    between atoms: C7_11  and  O2_13 
REMARK    8  A    between atoms: N3_15  and  O3_16 
REMARK    9  A    between atoms: N3_15  and  C9_18 
REMARK   10  A    between atoms: C12_29  and  C13_30 
REMARK   11  A    between atoms: C16_36  and  N9_37 
REMARK   12  A    between atoms: C18_47  and  N13_48 
REMARK   13  A    between atoms: N13_48  and  N14_50 
ROOT
HETATM    1  C6  UNL     1      -9.415  40.937 -44.064  1.00  0.00     0.212 C 
ENDROOT
BRANCH   1   2
HETATM    2  C5  UNL     1      -8.159  40.304 -44.670  1.00  0.00     0.127 A 
HETATM    3  N2  UNL     1      -7.701  39.163 -44.199  1.00  0.00    -0.331 N 
HETATM    4  C4  UNL     1      -6.592  38.484 -44.655  1.00  0.00     0.140 A 
ATOM      5  H2  UNL     1      -8.214  38.743 -43.425  1.00  0.00     0.168 HD
HETATM    6  N17 UNL     1      -5.948  39.068 -45.669  1.00  0.00     0.036 N 
HETATM    7  C17 UNL     1      -6.404  40.256 -46.179  1.00  0.00     0.721 A 
HETATM    8  C19 UNL     1      -4.855  38.507 -46.197  1.00  0.00     0.713 A 
HETATM    9  N11 UNL     1      -7.503  40.871 -45.683  1.00  0.00    -0.176 N 
HETATM   10  N12 UNL     1      -5.733  40.821 -47.202  1.00  0.00    -0.019 N 
ATOM     11  H11 UNL     1      -7.824  41.755 -46.078  1.00  0.00     0.185 HD
HETATM   12  C18 UNL     1      -4.648  40.298 -47.754  1.00  0.00     0.725 A 
ATOM     13  H12 UNL     1      -6.081  41.704 -47.574  1.00  0.00     0.203 HD
HETATM   14  N15 UNL     1      -4.216  39.134 -47.240  1.00  0.00    -0.020 N 
ATOM     15  H15 UNL     1      -3.384  38.699 -47.639  1.00  0.00     0.203 HD
HETATM   16  N16 UNL     1      -4.388  37.397 -45.753  1.00  0.00    -0.233 N 
ATOM     17 2H16 UNL     1      -3.555  36.969 -46.155  1.00  0.00     0.174 HD
ATOM     18 1H16 UNL     1      -4.862  36.932 -44.979  1.00  0.00     0.174 HD
BRANCH   4  19
HETATM   19  C3  UNL     1      -6.186  37.241 -44.053  1.00  0.00     0.198 C 
BRANCH  19  20
HETATM   20  N1  UNL     1      -6.971  36.057 -44.407  1.00  0.00    -0.195 NA
HETATM   21  C2  UNL     1      -6.768  35.071 -43.351  1.00  0.00     0.144 C 
BRANCH  20  22
HETATM   22  O1  UNL     1      -6.503  35.527 -45.568  1.00  0.00    -0.308 OA
HETATM   23  C1  UNL     1      -7.421  35.459 -46.579  1.00  0.00     0.229 C 
ENDBRANCH  20  22
ENDBRANCH  19  20
ENDBRANCH   4  19
BRANCH  12  24
HETATM   24  N13 UNL     1      -4.001  40.843 -48.739  1.00  0.00    -0.138 N 
ATOM     25  H13 UNL     1      -3.990  41.857 -48.855  1.00  0.00     0.205 HD
BRANCH  24  26
HETATM   26  N14 UNL     1      -3.322  40.017 -49.638  1.00  0.00    -0.331 N 
ATOM     27 2H14 UNL     1      -2.316  39.879 -49.534  1.00  0.00     0.177 HD
ATOM     28 1H14 UNL     1      -3.849  39.565 -50.385  1.00  0.00     0.177 HD
ENDBRANCH  24  26
ENDBRANCH  12  24
ENDBRANCH   1   2
BRANCH   1  29
HETATM   29  C7  UNL     1      -9.015  42.352 -43.781  1.00  0.00     0.146 C 
HETATM   30  C8  UNL     1     -10.137  43.293 -43.495  1.00  0.00     0.042 C 
BRANCH  29  31
HETATM   31  O2  UNL     1      -8.026  42.430 -42.813  1.00  0.00    -0.393 OA
ATOM     32  H2  UNL     1      -8.118  43.205 -42.272  1.00  0.00     0.210 HD
ENDBRANCH  29  31
ENDBRANCH   1  29
BRANCH   1  33
HETATM   33  N3  UNL     1     -10.532  40.703 -44.872  1.00  0.00    -0.227 N 
BRANCH  33  34
HETATM   34  O3  UNL     1     -10.753  41.596 -45.904  1.00  0.00    -0.285 OA
ATOM     35  H3  UNL     1     -11.565  42.087 -45.878  1.00  0.00     0.245 HD
ENDBRANCH  33  34
BRANCH  33  36
HETATM   36  C9  UNL     1     -11.417  39.639 -44.790  1.00  0.00     0.170 A 
HETATM   37  N4  UNL     1     -11.674  38.711 -45.731  1.00  0.00    -0.267 N 
HETATM   38  N5  UNL     1     -12.565  37.848 -45.334  1.00  0.00    -0.236 N 
ATOM     39  H4  UNL     1     -11.225  38.688 -46.646  1.00  0.00     0.190 HD
HETATM   40  N6  UNL     1     -12.914  38.194 -44.111  1.00  0.00    -0.239 N 
ATOM     41  H5  UNL     1     -12.923  37.055 -45.868  1.00  0.00     0.208 HD
HETATM   42  C10 UNL     1     -12.240  39.287 -43.726  1.00  0.00     0.105 A 
HETATM   43  C12 UNL     1     -13.808  37.744 -43.063  1.00  0.00     0.359 C 
HETATM   44  C11 UNL     1     -12.706  39.559 -42.342  1.00  0.00     0.298 C 
HETATM   45  N7  UNL     1     -13.168  38.269 -41.870  1.00  0.00    -0.041 N 
ATOM     46  H72 UNL     1     -12.451  37.671 -41.460  1.00  0.00     0.280 HD
ATOM     47  H71 UNL     1     -13.753  38.293 -41.035  1.00  0.00     0.280 HD
BRANCH  43  48
HETATM   48  C13 UNL     1     -13.936  36.276 -43.028  1.00  0.00     0.083 A 
HETATM   49  C14 UNL     1     -12.864  35.454 -42.764  1.00  0.00     0.104 A 
HETATM   50  C15 UNL     1     -12.989  34.077 -42.733  1.00  0.00     0.261 A 
HETATM   51  O4  UNL     1     -12.033  33.303 -42.496  1.00  0.00    -0.268 OA
HETATM   52  N8  UNL     1     -14.194  33.538 -42.966  1.00  0.00    -0.156 N 
HETATM   53  C16 UNL     1     -15.243  34.323 -43.224  1.00  0.00     0.679 A 
ATOM     54  H8  UNL     1     -14.310  32.525 -42.947  1.00  0.00     0.187 HD
HETATM   55  N10 UNL     1     -15.110  35.673 -43.252  1.00  0.00    -0.192 N 
ATOM     56  H10 UNL     1     -15.930  36.247 -43.450  1.00  0.00     0.184 HD
BRANCH  53  57
HETATM   57  N9  UNL     1     -16.410  33.765 -43.449  1.00  0.00    -0.234 N 
ATOM     58  H92 UNL     1     -16.617  33.348 -44.356  1.00  0.00     0.174 HD
ATOM     59  H91 UNL     1     -17.103  33.759 -42.701  1.00  0.00     0.174 HD
ENDBRANCH  53  57
ENDBRANCH  43  48
ENDBRANCH  33  36
ENDBRANCH   1  33
TORSDOF 13
ENDMDL
MODEL 3
REMARK VINA RESULT: -9.398825930      1.704      2.214
REMARK  13 active torsions:
REMARK  status: ('A' for Active; 'I' for Inactive)
REMARK    1  A    between atoms: O1_2  and  N1_3 
REMARK    2  A    between atoms: N1_3  and  C3_5 
REMARK    3  A    between atoms: C3_5  and  C4_6 
REMARK    4  A    between atoms: C5_9  and  C6_10 
REMARK    5  A    between atoms: C6_10  and  C7_11 
REMARK    6  A    between atoms: C6_10  and  N3_15 
REMARK    7  A    between atoms: C7_11  and  O2_13 
REMARK    8  A    between atoms: N3_15  and  O3_16 
REMARK    9  A    between atoms: N3_15  and  C9_18 
REMARK   10  A    between atoms: C12_29  and  C13_30 
REMARK   11  A    between atoms: C16_36  and  N9_37 
REMARK   12  A    between atoms: C18_47  and  N13_48 
REMARK   13  A    between atoms: N13_48  and  N14_50 
ROOT
HETATM    1  C6  UNL     1      -9.243  41.112 -44.201  1.00  0.00     0.212 C 
ENDROOT
BRANCH   1   2
HETATM    2  C5  UNL     1      -8.035  40.392 -44.807  1.00  0.00     0.127 A 
HETATM    3  N2  UNL     1      -7.653  39.225 -44.331  1.00  0.00    -0.331 N 
HETATM    4  C4  UNL     1      -6.593  38.471 -44.786  1.00  0.00     0.140 A 
ATOM      5  H2  UNL     1      -8.191  38.845 -43.553  1.00  0.00     0.168 HD
HETATM    6  N17 UNL     1      -5.915  39.005 -45.805  1.00  0.00     0.036 N 
HETATM    7  C17 UNL     1      -6.291  40.219 -46.320  1.00  0.00     0.721 A 
HETATM    8  C19 UNL     1      -4.864  38.369 -46.333  1.00  0.00     0.713 A 
HETATM    9  N11 UNL     1      -7.345  40.909 -45.825  1.00  0.00    -0.176 N 
HETATM   10  N12 UNL     1      -5.587  40.731 -47.348  1.00  0.00    -0.019 N 
ATOM     11  H11 UNL     1      -7.607  41.810 -46.223  1.00  0.00     0.185 HD
HETATM   12  C18 UNL     1      -4.541  40.134 -47.900  1.00  0.00     0.725 A 
ATOM     13  H12 UNL     1      -5.876  41.634 -47.724  1.00  0.00     0.203 HD
HETATM   14  N15 UNL     1      -4.187  38.946 -47.381  1.00  0.00    -0.020 N 
ATOM     15  H15 UNL     1      -3.388  38.454 -47.780  1.00  0.00     0.203 HD
HETATM   16  N16 UNL     1      -4.472  37.232 -45.884  1.00  0.00    -0.233 N 
ATOM     17 2H16 UNL     1      -3.670  36.747 -46.286  1.00  0.00     0.174 HD
ATOM     18 1H16 UNL     1      -4.974  36.804 -45.106  1.00  0.00     0.174 HD
BRANCH   4  19
HETATM   19  C3  UNL     1      -6.271  37.206 -44.179  1.00  0.00     0.198 C 
BRANCH  19  20
HETATM   20  N1  UNL     1      -7.177  36.093 -44.468  1.00  0.00    -0.195 NA
HETATM   21  C2  UNL     1      -6.771  34.975 -43.623  1.00  0.00     0.144 C 
BRANCH  20  22
HETATM   22  O1  UNL     1      -7.034  35.710 -45.763  1.00  0.00    -0.308 OA
HETATM   23  C1  UNL     1      -6.817  34.372 -45.946  1.00  0.00     0.229 C 
ENDBRANCH  20  22
ENDBRANCH  19  20
ENDBRANCH   4  19
BRANCH  12  24
HETATM   24  N13 UNL     1      -3.862  40.629 -48.890  1.00  0.00    -0.138 N 
ATOM     25  H13 UNL     1      -3.802  41.639 -49.024  1.00  0.00     0.205 HD
BRANCH  24  26
HETATM   26  N14 UNL     1      -3.216  39.755 -49.767  1.00  0.00    -0.331 N 
ATOM     27 2H14 UNL     1      -3.146  38.765 -49.532  1.00  0.00     0.177 HD
ATOM     28 1H14 UNL     1      -2.824  40.128 -50.632  1.00  0.00     0.177 HD
ENDBRANCH  24  26
ENDBRANCH  12  24
ENDBRANCH   1   2
BRANCH   1  29
HETATM   29  C7  UNL     1      -8.719  42.464 -43.829  1.00  0.00     0.146 C 
HETATM   30  C8  UNL     1      -9.720  43.570 -43.849  1.00  0.00     0.042 C 
BRANCH  29  31
HETATM   31  O2  UNL     1      -8.014  42.438 -42.636  1.00  0.00    -0.393 OA
ATOM     32  H2  UNL     1      -7.926  43.304 -42.256  1.00  0.00     0.210 HD
ENDBRANCH  29  31
ENDBRANCH   1  29
BRANCH   1  33
HETATM   33  N3  UNL     1     -10.351  41.031 -45.051  1.00  0.00    -0.227 N 
BRANCH  33  34
HETATM   34  O3  UNL     1     -10.238  41.651 -46.282  1.00  0.00    -0.285 OA
ATOM     35  H3  UNL     1     -10.386  41.110 -47.048  1.00  0.00     0.245 HD
ENDBRANCH  33  34
BRANCH  33  36
HETATM   36  C9  UNL     1     -11.535  40.348 -44.821  1.00  0.00     0.170 A 
HETATM   37  N4  UNL     1     -12.442  39.950 -45.732  1.00  0.00    -0.267 N 
HETATM   38  N5  UNL     1     -13.448  39.332 -45.181  1.00  0.00    -0.236 N 
ATOM     39  H4  UNL     1     -12.353  40.112 -46.735  1.00  0.00     0.190 HD
HETATM   40  N6  UNL     1     -13.219  39.312 -43.883  1.00  0.00    -0.239 N 
ATOM     41  H5  UNL     1     -14.258  38.940 -45.662  1.00  0.00     0.208 HD
HETATM   42  C10 UNL     1     -12.058  39.921 -43.606  1.00  0.00     0.105 A 
HETATM   43  C12 UNL     1     -13.849  38.827 -42.671  1.00  0.00     0.359 C 
HETATM   44  C11 UNL     1     -11.910  39.815 -42.131  1.00  0.00     0.298 C 
HETATM   45  N7  UNL     1     -12.713  38.660 -41.782  1.00  0.00    -0.041 N 
ATOM     46  H72 UNL     1     -12.237  37.761 -41.847  1.00  0.00     0.280 HD
ATOM     47  H71 UNL     1     -12.942  38.570 -40.793  1.00  0.00     0.280 HD
BRANCH  43  48
HETATM   48  C13 UNL     1     -14.580  37.565 -42.886  1.00  0.00     0.083 A 
HETATM   49  C14 UNL     1     -15.952  37.494 -42.826  1.00  0.00     0.104 A 
HETATM   50  C15 UNL     1     -16.633  36.308 -43.027  1.00  0.00     0.261 A 
HETATM   51  O4  UNL     1     -17.882  36.211 -42.979  1.00  0.00    -0.268 OA
HETATM   52  N8  UNL     1     -15.925  35.200 -43.290  1.00  0.00    -0.156 N 
HETATM   53  C16 UNL     1     -14.592  35.253 -43.351  1.00  0.00     0.679 A 
ATOM     54  H8  UNL     1     -16.405  34.314 -43.443  1.00  0.00     0.187 HD
HETATM   55  N10 UNL     1     -13.934  36.423 -43.151  1.00  0.00    -0.192 N 
ATOM     56  H10 UNL     1     -12.915  36.432 -43.206  1.00  0.00     0.184 HD
BRANCH  53  57
HETATM   57  N9  UNL     1     -13.927  34.152 -43.609  1.00  0.00    -0.234 N 
ATOM     58  H92 UNL     1     -14.372  33.385 -44.113  1.00  0.00     0.174 HD
ATOM     59  H91 UNL     1     -12.959  34.077 -43.295  1.00  0.00     0.174 HD
ENDBRANCH  53  57
ENDBRANCH  43  48
ENDBRANCH  33  36
ENDBRANCH   1  33
TORSDOF 13
ENDMDL
MODEL 4
REMARK VINA RESULT: -9.391695839      5.141     10.728
REMARK  13 active torsions:
REMARK  status: ('A' for Active; 'I' for Inactive)
REMARK    1  A    between atoms: O1_2  and  N1_3 
REMARK    2  A    between atoms: N1_3  and  C3_5 
REMARK    3  A    between atoms: C3_5  and  C4_6 
REMARK    4  A    between atoms: C5_9  and  C6_10 
REMARK    5  A    between atoms: C6_10  and  C7_11 
REMARK    6  A    between atoms: C6_10  and  N3_15 
REMARK    7  A    between atoms: C7_11  and  O2_13 
REMARK    8  A    between atoms: N3_15  and  O3_16 
REMARK    9  A    between atoms: N3_15  and  C9_18 
REMARK   10  A    between atoms: C12_29  and  C13_30 
REMARK   11  A    between atoms: C16_36  and  N9_37 
REMARK   12  A    between atoms: C18_47  and  N13_48 
REMARK   13  A    between atoms: N13_48  and  N14_50 
ROOT
HETATM    1  C6  UNL     1      -7.198  33.786 -43.563  1.00  0.00     0.212 C 
ENDROOT
BRANCH   1   2
HETATM    2  C5  UNL     1      -8.372  32.943 -43.055  1.00  0.00     0.127 A 
HETATM    3  N2  UNL     1      -9.054  32.189 -43.891  1.00  0.00    -0.331 N 
HETATM    4  C4  UNL     1     -10.122  31.381 -43.567  1.00  0.00     0.140 A 
ATOM      5  H2  UNL     1      -8.765  32.203 -44.869  1.00  0.00     0.168 HD
HETATM    6  N17 UNL     1     -10.469  31.390 -42.277  1.00  0.00     0.036 N 
HETATM    7  C17 UNL     1      -9.774  32.167 -41.385  1.00  0.00     0.721 A 
HETATM    8  C19 UNL     1     -11.491  30.649 -41.840  1.00  0.00     0.713 A 
HETATM    9  N11 UNL     1      -8.732  32.939 -41.771  1.00  0.00    -0.176 N 
HETATM   10  N12 UNL     1     -10.148  32.155 -40.091  1.00  0.00    -0.019 N 
ATOM     11  H11 UNL     1      -8.230  33.509 -41.090  1.00  0.00     0.185 HD
HETATM   12  C18 UNL     1     -11.154  31.436 -39.616  1.00  0.00     0.725 A 
ATOM     13  H12 UNL     1      -9.625  32.736 -39.436  1.00  0.00     0.203 HD
HETATM   14  N15 UNL     1     -11.822  30.681 -40.506  1.00  0.00    -0.020 N 
ATOM     15  H15 UNL     1     -12.602  30.112 -40.179  1.00  0.00     0.203 HD
HETATM   16  N16 UNL     1     -12.173  29.907 -42.636  1.00  0.00    -0.233 N 
ATOM     17 2H16 UNL     1     -12.953  29.342 -42.302  1.00  0.00     0.174 HD
ATOM     18 1H16 UNL     1     -11.928  29.884 -43.625  1.00  0.00     0.174 HD
BRANCH   4  19
HETATM   19  C3  UNL     1     -10.793  30.601 -44.574  1.00  0.00     0.198 C 
BRANCH  19  20
HETATM   20  N1  UNL     1     -10.579  31.008 -45.965  1.00  0.00    -0.195 NA
HETATM   21  C2  UNL     1     -11.410  30.147 -46.800  1.00  0.00     0.144 C 
BRANCH  20  22
HETATM   22  O1  UNL     1      -9.282  30.797 -46.309  1.00  0.00    -0.308 OA
HETATM   23  C1  UNL     1      -9.075  29.730 -47.140  1.00  0.00     0.229 C 
ENDBRANCH  20  22
ENDBRANCH  19  20
ENDBRANCH   4  19
BRANCH  12  24
HETATM   24  N13 UNL     1     -11.513  31.425 -38.369  1.00  0.00    -0.138 N 
ATOM     25  H13 UNL     1     -11.427  32.266 -37.797  1.00  0.00     0.205 HD
BRANCH  24  26
HETATM   26  N14 UNL     1     -12.020  30.243 -37.823  1.00  0.00    -0.331 N 
ATOM     27 2H14 UNL     1     -11.393  29.455 -37.659  1.00  0.00     0.177 HD
ATOM     28 1H14 UNL     1     -13.014  30.192 -37.598  1.00  0.00     0.177 HD
ENDBRANCH  24  26
ENDBRANCH  12  24
ENDBRANCH   1   2
BRANCH   1  29
HETATM   29  C7  UNL     1      -6.250  32.785 -44.146  1.00  0.00     0.146 C 
HETATM   30  C8  UNL     1      -5.699  33.127 -45.490  1.00  0.00     0.042 C 
BRANCH  29  31
HETATM   31  O2  UNL     1      -5.244  32.441 -43.257  1.00  0.00    -0.393 OA
ATOM     32  H2  UNL     1      -5.081  31.506 -43.248  1.00  0.00     0.210 HD
ENDBRANCH  29  31
ENDBRANCH   1  29
BRANCH   1  33
HETATM   33  N3  UNL     1      -7.649  34.835 -44.370  1.00  0.00    -0.227 N 
BRANCH  33  34
HETATM   34  O3  UNL     1      -9.002  34.868 -44.651  1.00  0.00    -0.285 OA
ATOM     35  H3  UNL     1      -9.575  35.177 -43.959  1.00  0.00     0.245 HD
ENDBRANCH  33  34
BRANCH  33  36
HETATM   36  C9  UNL     1      -6.898  35.884 -44.878  1.00  0.00     0.170 A 
HETATM   37  N4  UNL     1      -5.907  36.556 -44.264  1.00  0.00    -0.267 N 
HETATM   38  N5  UNL     1      -5.408  37.491 -45.021  1.00  0.00    -0.236 N 
ATOM     39  H4  UNL     1      -5.584  36.357 -43.317  1.00  0.00     0.190 HD
HETATM   40  N6  UNL     1      -6.069  37.452 -46.161  1.00  0.00    -0.239 N 
ATOM     41  H5  UNL     1      -4.652  38.131 -44.779  1.00  0.00     0.208 HD
HETATM   42  C10 UNL     1      -6.996  36.483 -46.129  1.00  0.00     0.105 A 
HETATM   43  C12 UNL     1      -6.091  38.143 -47.435  1.00  0.00     0.359 C 
HETATM   44  C11 UNL     1      -7.650  36.531 -47.462  1.00  0.00     0.298 C 
HETATM   45  N7  UNL     1      -6.650  37.136 -48.319  1.00  0.00    -0.041 N 
ATOM     46  H72 UNL     1      -5.975  36.489 -48.727  1.00  0.00     0.280 HD
ATOM     47  H71 UNL     1      -6.994  37.483 -49.215  1.00  0.00     0.280 HD
BRANCH  43  48
HETATM   48  C13 UNL     1      -4.748  38.575 -47.860  1.00  0.00     0.083 A 
HETATM   49  C14 UNL     1      -3.814  37.690 -48.347  1.00  0.00     0.104 A 
HETATM   50  C15 UNL     1      -2.555  38.101 -48.744  1.00  0.00     0.261 A 
HETATM   51  O4  UNL     1      -1.683  37.318 -49.191  1.00  0.00    -0.268 OA
HETATM   52  N8  UNL     1      -2.246  39.401 -48.649  1.00  0.00    -0.156 N 
HETATM   53  C16 UNL     1      -3.141  40.272 -48.178  1.00  0.00     0.679 A 
ATOM     54  H8  UNL     1      -1.323  39.727 -48.938  1.00  0.00     0.187 HD
HETATM   55  N10 UNL     1      -4.375  39.859 -47.791  1.00  0.00    -0.192 N 
ATOM     56  H10 UNL     1      -5.038  40.548 -47.437  1.00  0.00     0.184 HD
BRANCH  53  57
HETATM   57  N9  UNL     1      -2.809  41.539 -48.097  1.00  0.00    -0.234 N 
ATOM     58  H92 UNL     1      -2.549  42.060 -48.934  1.00  0.00     0.174 HD
ATOM     59  H91 UNL     1      -2.813  41.990 -47.182  1.00  0.00     0.174 HD
ENDBRANCH  53  57
ENDBRANCH  43  48
ENDBRANCH  33  36
ENDBRANCH   1  33
TORSDOF 13
ENDMDL
MODEL 5
REMARK VINA RESULT: -9.367845093      2.162      4.205
REMARK  13 active torsions:
REMARK  status: ('A' for Active; 'I' for Inactive)
REMARK    1  A    between atoms: O1_2  and  N1_3 
REMARK    2  A    between atoms: N1_3  and  C3_5 
REMARK    3  A    between atoms: C3_5  and  C4_6 
REMARK    4  A    between atoms: C5_9  and  C6_10 
REMARK    5  A    between atoms: C6_10  and  C7_11 
REMARK    6  A    between atoms: C6_10  and  N3_15 
REMARK    7  A    between atoms: C7_11  and  O2_13 
REMARK    8  A    between atoms: N3_15  and  O3_16 
REMARK    9  A    between atoms: N3_15  and  C9_18 
REMARK   10  A    between atoms: C12_29  and  C13_30 
REMARK   11  A    between atoms: C16_36  and  N9_37 
REMARK   12  A    between atoms: C18_47  and  N13_48 
REMARK   13  A    between atoms: N13_48  and  N14_50 
ROOT
HETATM    1  C6  UNL     1     -10.104  39.235 -45.350  1.00  0.00     0.212 C 
ENDROOT
BRANCH   1   2
HETATM    2  C5  UNL     1      -8.913  38.322 -45.656  1.00  0.00     0.127 A 
HETATM    3  N2  UNL     1      -7.947  38.739 -46.447  1.00  0.00    -0.331 N 
HETATM    4  C4  UNL     1      -6.821  38.026 -46.797  1.00  0.00     0.140 A 
ATOM      5  H2  UNL     1      -8.039  39.677 -46.836  1.00  0.00     0.168 HD
HETATM    6  N17 UNL     1      -6.738  36.803 -46.267  1.00  0.00     0.036 N 
HETATM    7  C17 UNL     1      -7.731  36.344 -45.440  1.00  0.00     0.721 A 
HETATM    8  C19 UNL     1      -5.693  36.013 -46.534  1.00  0.00     0.713 A 
HETATM    9  N11 UNL     1      -8.812  37.099 -45.136  1.00  0.00    -0.176 N 
HETATM   10  N12 UNL     1      -7.619  35.106 -44.921  1.00  0.00    -0.019 N 
ATOM     11  H11 UNL     1      -9.539  36.737 -44.519  1.00  0.00     0.185 HD
HETATM   12  C18 UNL     1      -6.601  34.292 -45.159  1.00  0.00     0.725 A 
ATOM     13  H12 UNL     1      -8.362  34.775 -44.306  1.00  0.00     0.203 HD
HETATM   14  N15 UNL     1      -5.638  34.759 -45.972  1.00  0.00    -0.020 N 
ATOM     15  H15 UNL     1      -4.837  34.163 -46.179  1.00  0.00     0.203 HD
HETATM   16  N16 UNL     1      -4.740  36.396 -47.303  1.00  0.00    -0.233 N 
ATOM     17 2H16 UNL     1      -3.943  35.794 -47.508  1.00  0.00     0.174 HD
ATOM     18 1H16 UNL     1      -4.781  37.326 -47.721  1.00  0.00     0.174 HD
BRANCH   4  19
HETATM   19  C3  UNL     1      -5.831  38.591 -47.676  1.00  0.00     0.198 C 
BRANCH  19  20
HETATM   20  N1  UNL     1      -4.940  39.598 -47.097  1.00  0.00    -0.195 NA
HETATM   21  C2  UNL     1      -5.088  40.813 -47.890  1.00  0.00     0.144 C 
BRANCH  20  22
HETATM   22  O1  UNL     1      -3.651  39.184 -47.202  1.00  0.00    -0.308 OA
HETATM   23  C1  UNL     1      -3.041  39.504 -48.384  1.00  0.00     0.229 C 
ENDBRANCH  20  22
ENDBRANCH  19  20
ENDBRANCH   4  19
BRANCH  12  24
HETATM   24  N13 UNL     1      -6.494  33.099 -44.659  1.00  0.00    -0.138 N 
ATOM     25  H13 UNL     1      -7.327  32.561 -44.418  1.00  0.00     0.205 HD
BRANCH  24  26
HETATM   26  N14 UNL     1      -5.219  32.565 -44.455  1.00  0.00    -0.331 N 
ATOM     27 2H14 UNL     1      -5.013  31.616 -44.769  1.00  0.00     0.177 HD
ATOM     28 1H14 UNL     1      -4.513  33.140 -43.994  1.00  0.00     0.177 HD
ENDBRANCH  24  26
ENDBRANCH  12  24
ENDBRANCH   1   2
BRANCH   1  29
HETATM   29  C7  UNL     1      -9.854  40.459 -46.175  1.00  0.00     0.146 C 
HETATM   30  C8  UNL     1     -11.063  41.083 -46.786  1.00  0.00     0.042 C 
BRANCH  29  31
HETATM   31  O2  UNL     1      -9.085  41.394 -45.499  1.00  0.00    -0.393 OA
ATOM     32  H2  UNL     1      -9.105  41.258 -44.559  1.00  0.00     0.210 HD
ENDBRANCH  29  31
ENDBRANCH   1  29
BRANCH   1  33
HETATM   33  N3  UNL     1     -11.313  38.551 -45.514  1.00  0.00    -0.227 N 
BRANCH  33  34
HETATM   34  O3  UNL     1     -11.379  37.642 -46.554  1.00  0.00    -0.285 OA
ATOM     35  H3  UNL     1     -10.755  36.927 -46.537  1.00  0.00     0.245 HD
ENDBRANCH  33  34
BRANCH  33  36
HETATM   36  C9  UNL     1     -12.441  38.638 -44.712  1.00  0.00     0.170 A 
HETATM   37  N4  UNL     1     -13.191  39.729 -44.468  1.00  0.00    -0.267 N 
HETATM   38  N5  UNL     1     -14.183  39.469 -43.664  1.00  0.00    -0.236 N 
ATOM     39  H4  UNL     1     -13.005  40.649 -44.865  1.00  0.00     0.190 HD
HETATM   40  N6  UNL     1     -14.103  38.188 -43.361  1.00  0.00    -0.239 N 
ATOM     41  H5  UNL     1     -14.886  40.129 -43.333  1.00  0.00     0.208 HD
HETATM   42  C10 UNL     1     -13.052  37.628 -43.977  1.00  0.00     0.105 A 
HETATM   43  C12 UNL     1     -14.813  37.209 -42.562  1.00  0.00     0.359 C 
HETATM   44  C11 UNL     1     -13.085  36.199 -43.572  1.00  0.00     0.298 C 
HETATM   45  N7  UNL     1     -14.474  35.966 -43.230  1.00  0.00    -0.041 N 
ATOM     46  H72 UNL     1     -15.079  35.709 -44.009  1.00  0.00     0.280 HD
ATOM     47  H71 UNL     1     -14.655  35.118 -42.693  1.00  0.00     0.280 HD
BRANCH  43  48
HETATM   48  C13 UNL     1     -16.266  37.452 -42.540  1.00  0.00     0.083 A 
HETATM   49  C14 UNL     1     -17.145  36.705 -43.290  1.00  0.00     0.104 A 
HETATM   50  C15 UNL     1     -18.508  36.938 -43.267  1.00  0.00     0.261 A 
HETATM   51  O4  UNL     1     -19.333  36.275 -43.938  1.00  0.00    -0.268 OA
HETATM   52  N8  UNL     1     -18.976  37.922 -42.486  1.00  0.00    -0.156 N 
HETATM   53  C16 UNL     1     -18.136  38.656 -41.753  1.00  0.00     0.679 A 
ATOM     54  H8  UNL     1     -19.978  38.110 -42.451  1.00  0.00     0.187 HD
HETATM   55  N10 UNL     1     -16.800  38.419 -41.783  1.00  0.00    -0.192 N 
ATOM     56  H10 UNL     1     -16.183  38.996 -41.210  1.00  0.00     0.184 HD
BRANCH  53  57
HETATM   57  N9  UNL     1     -18.625  39.612 -40.999  1.00  0.00    -0.234 N 
ATOM     58  H92 UNL     1     -19.195  40.352 -41.408  1.00  0.00     0.174 HD
ATOM     59  H91 UNL     1     -18.422  39.601 -39.999  1.00  0.00     0.174 HD
ENDBRANCH  53  57
ENDBRANCH  43  48
ENDBRANCH  33  36
ENDBRANCH   1  33
TORSDOF 13
ENDMDL
