MODEL 1
REMARK VINA RESULT: -8.504692288      0.000      0.000
REMARK  16 active torsions:
REMARK  status: ('A' for Active; 'I' for Inactive)
REMARK    1  A    between atoms: C2_2  and  O1_3 
REMARK    2  A    between atoms: C2_2  and  C18_48 
REMARK    3  A    between atoms: O1_3  and  C3_4 
REMARK    4  A    between atoms: C5_6  and  O2_7 
REMARK    5  A    between atoms: C7_10  and  N1_11 
REMARK    6  A    between atoms: C8_14  and  C9_15 
REMARK    7  A    between atoms: C9_15  and  O3_16 
REMARK    8  A    between atoms: C9_15  and  O4_18 
REMARK    9  A    between atoms: C11_21  and  C12_22 
REMARK   10  A    between atoms: C14_31  and  N6_32 
REMARK   11  A    between atoms: C16_40  and  N9_41 
REMARK   12  A    between atoms: C18_48  and  N14_49 
REMARK   13  A    between atoms: C18_48  and  C19_53 
REMARK   14  A    between atoms: C19_53  and  C20_55 
REMARK   15  A    between atoms: C20_55  and  N15_56 
REMARK   16  A    between atoms: C20_55  and  O6_60 
ROOT
HETATM    1  C3  UNL     1      -8.768  39.781 -46.546  1.00  0.00     0.154 A 
HETATM    2  C4  UNL     1      -8.744  39.023 -47.693  1.00  0.00     0.095 A 
HETATM    3  C5  UNL     1      -7.424  38.620 -47.942  1.00  0.00     0.101 A 
HETATM    4  C6  UNL     1      -6.687  39.164 -46.910  1.00  0.00     0.122 A 
HETATM    5  C7  UNL     1      -5.336  39.081 -46.669  1.00  0.00     0.158 A 
HETATM    6  N8  UNL     1      -4.866  39.728 -45.563  1.00  0.00    -0.345 N 
ATOM      7  H8  UNL     1      -3.868  39.684 -45.358  1.00  0.00     0.167 HD
HETATM    8  C15 UNL     1      -5.650  40.410 -44.745  1.00  0.00     0.140 A 
HETATM    9  C16 UNL     1      -7.028  40.499 -44.985  1.00  0.00     0.151 A 
HETATM   10  N13 UNL     1      -7.518  39.871 -46.067  1.00  0.00    -0.269 N 
ENDROOT
BRANCH   5  11
HETATM   11  N1  UNL     1      -4.409  38.347 -47.454  1.00  0.00    -0.234 N 
HETATM   12  N2  UNL     1      -3.416  38.948 -48.170  1.00  0.00    -0.291 N 
HETATM   13  C8  UNL     1      -2.722  38.056 -48.836  1.00  0.00     0.083 A 
ATOM     14  H2  UNL     1      -3.238  39.952 -48.185  1.00  0.00     0.187 HD
HETATM   15  C10 UNL     1      -3.281  36.845 -48.542  1.00  0.00     0.067 A 
HETATM   16  C11 UNL     1      -4.364  37.032 -47.655  1.00  0.00     0.105 A 
BRANCH  13  17
HETATM   17  C9  UNL     1      -1.556  38.372 -49.725  1.00  0.00     0.306 C 
BRANCH  17  18
HETATM   18  O3  UNL     1      -0.650  39.119 -48.963  1.00  0.00    -0.366 OA
ATOM     19  H3  UNL     1      -0.561  39.965 -49.387  1.00  0.00     0.213 HD
ENDBRANCH  17  18
BRANCH  17  20
HETATM   20  O4  UNL     1      -2.048  39.238 -50.711  1.00  0.00    -0.366 OA
ATOM     21  H4  UNL     1      -2.376  38.681 -51.408  1.00  0.00     0.213 HD
ENDBRANCH  17  20
ENDBRANCH  13  17
BRANCH  16  22
HETATM   22  C12 UNL     1      -5.177  35.924 -47.178  1.00  0.00     0.165 A 
HETATM   23  N3  UNL     1      -5.773  35.154 -48.104  1.00  0.00    -0.173 N 
HETATM   24  C13 UNL     1      -6.589  34.102 -47.797  1.00  0.00     0.692 A 
ATOM     25  H3  UNL     1      -5.608  35.367 -49.087  1.00  0.00     0.186 HD
HETATM   26  N4  UNL     1      -7.107  33.441 -48.686  1.00  0.00    -0.234 N 
HETATM   27  N5  UNL     1      -6.807  33.819 -46.497  1.00  0.00    -0.023 N 
ATOM     28  H42 UNL     1      -6.942  33.655 -49.670  1.00  0.00     0.174 HD
ATOM     29  H41 UNL     1      -7.715  32.655 -48.458  1.00  0.00     0.174 HD
HETATM   30  C14 UNL     1      -6.233  34.557 -45.536  1.00  0.00     0.692 A 
ATOM     31  H5  UNL     1      -7.413  33.038 -46.242  1.00  0.00     0.203 HD
HETATM   32  N7  UNL     1      -5.422  35.606 -45.914  1.00  0.00    -0.173 N 
ATOM     33  H7  UNL     1      -4.986  36.168 -45.183  1.00  0.00     0.186 HD
BRANCH  30  34
HETATM   34  N6  UNL     1      -6.453  34.287 -44.356  1.00  0.00    -0.234 N 
ATOM     35  H62 UNL     1      -5.773  34.469 -43.618  1.00  0.00     0.174 HD
ATOM     36  H61 UNL     1      -7.350  33.874 -44.096  1.00  0.00     0.174 HD
ENDBRANCH  30  34
ENDBRANCH  16  22
ENDBRANCH   5  11
BRANCH   3  37
HETATM   37  O2  UNL     1      -7.084  37.850 -49.024  1.00  0.00    -0.358 OA
ATOM     38  H2  UNL     1      -7.103  36.901 -48.999  1.00  0.00     0.217 HD
ENDBRANCH   3  37
BRANCH   1  39
HETATM   39  O1  UNL     1      -9.881  40.373 -45.952  1.00  0.00    -0.328 OA
BRANCH  39  40
HETATM   40  C2  UNL     1     -11.121  39.715 -45.841  1.00  0.00     0.164 C 
HETATM   41  C1  UNL     1     -12.270  40.560 -46.289  1.00  0.00     0.042 C 
BRANCH  40  42
HETATM   42  C18 UNL     1     -11.333  39.325 -44.396  1.00  0.00     0.285 C 
BRANCH  42  43
HETATM   43  N14 UNL     1     -11.914  40.404 -43.605  1.00  0.00    -0.066 N 
ATOM     44 3H14 UNL     1     -12.913  40.497 -43.789  1.00  0.00     0.275 HD
ATOM     45 2H14 UNL     1     -11.952  40.154 -42.617  1.00  0.00     0.275 HD
ATOM     46 1H14 UNL     1     -11.433  41.292 -43.741  1.00  0.00     0.275 HD
ENDBRANCH  42  43
BRANCH  42  47
HETATM   47  C19 UNL     1     -12.268  38.172 -44.324  1.00  0.00     0.215 C 
HETATM   48  O5  UNL     1     -12.069  37.192 -45.054  1.00  0.00    -0.291 OA
BRANCH  47  49
HETATM   49  C20 UNL     1     -13.435  38.137 -43.414  1.00  0.00     0.389 C 
BRANCH  49  50
HETATM   50  N15 UNL     1     -14.086  36.857 -43.362  1.00  0.00    -0.046 N 
ATOM     51 3H15 UNL     1     -15.092  36.968 -43.237  1.00  0.00     0.277 HD
ATOM     52 2H15 UNL     1     -14.077  36.409 -44.278  1.00  0.00     0.277 HD
ATOM     53 1H15 UNL     1     -13.703  36.232 -42.652  1.00  0.00     0.277 HD
ENDBRANCH  49  50
BRANCH  49  54
HETATM   54  O6  UNL     1     -14.390  39.108 -43.799  1.00  0.00    -0.364 OA
ATOM     55  H6  UNL     1     -14.093  39.978 -43.558  1.00  0.00     0.212 HD
ENDBRANCH  49  54
ENDBRANCH  47  49
ENDBRANCH  42  47
ENDBRANCH  40  42
ENDBRANCH  39  40
ENDBRANCH   1  39
BRANCH   9  56
HETATM   56  N9  UNL     1      -7.866  41.230 -44.132  1.00  0.00    -0.218 N 
HETATM   57  C17 UNL     1      -8.459  40.904 -42.975  1.00  0.00     0.220 A 
HETATM   58  N10 UNL     1      -9.164  41.930 -42.476  1.00  0.00    -0.280 N 
HETATM   59  N11 UNL     1      -9.001  42.918 -43.354  1.00  0.00    -0.007 NA
ATOM     60  H10 UNL     1      -9.708  41.948 -41.613  1.00  0.00     0.184 HD
HETATM   61  N12 UNL     1      -8.225  42.497 -44.340  1.00  0.00     0.001 NA
ENDBRANCH   9  56
TORSDOF 16
ENDMDL
MODEL 2
REMARK VINA RESULT: -8.236527481      1.017      1.215
REMARK  16 active torsions:
REMARK  status: ('A' for Active; 'I' for Inactive)
REMARK    1  A    between atoms: C2_2  and  O1_3 
REMARK    2  A    between atoms: C2_2  and  C18_48 
REMARK    3  A    between atoms: O1_3  and  C3_4 
REMARK    4  A    between atoms: C5_6  and  O2_7 
REMARK    5  A    between atoms: C7_10  and  N1_11 
REMARK    6  A    between atoms: C8_14  and  C9_15 
REMARK    7  A    between atoms: C9_15  and  O3_16 
REMARK    8  A    between atoms: C9_15  and  O4_18 
REMARK    9  A    between atoms: C11_21  and  C12_22 
REMARK   10  A    between atoms: C14_31  and  N6_32 
REMARK   11  A    between atoms: C16_40  and  N9_41 
REMARK   12  A    between atoms: C18_48  and  N14_49 
REMARK   13  A    between atoms: C18_48  and  C19_53 
REMARK   14  A    between atoms: C19_53  and  C20_55 
REMARK   15  A    between atoms: C20_55  and  N15_56 
REMARK   16  A    between atoms: C20_55  and  O6_60 
ROOT
HETATM    1  C3  UNL     1      -9.090  39.976 -46.358  1.00  0.00     0.154 A 
HETATM    2  C4  UNL     1      -8.926  39.531 -47.649  1.00  0.00     0.095 A 
HETATM    3  C5  UNL     1      -7.620  39.046 -47.799  1.00  0.00     0.101 A 
HETATM    4  C6  UNL     1      -7.032  39.221 -46.563  1.00  0.00     0.122 A 
HETATM    5  C7  UNL     1      -5.755  38.917 -46.156  1.00  0.00     0.158 A 
HETATM    6  N8  UNL     1      -5.435  39.206 -44.861  1.00  0.00    -0.345 N 
ATOM      7  H8  UNL     1      -4.494  38.991 -44.530  1.00  0.00     0.167 HD
HETATM    8  C15 UNL     1      -6.293  39.752 -44.016  1.00  0.00     0.140 A 
HETATM    9  C16 UNL     1      -7.597  40.065 -44.424  1.00  0.00     0.151 A 
HETATM   10  N13 UNL     1      -7.938  39.791 -45.694  1.00  0.00    -0.269 N 
ENDROOT
BRANCH   5  11
HETATM   11  N1  UNL     1      -4.766  38.295 -46.963  1.00  0.00    -0.234 N 
HETATM   12  N2  UNL     1      -3.796  39.001 -47.609  1.00  0.00    -0.291 N 
HETATM   13  C8  UNL     1      -3.033  38.199 -48.314  1.00  0.00     0.083 A 
ATOM     14  H2  UNL     1      -3.680  40.013 -47.553  1.00  0.00     0.187 HD
HETATM   15  C10 UNL     1      -3.523  36.940 -48.115  1.00  0.00     0.067 A 
HETATM   16  C11 UNL     1      -4.636  37.002 -47.248  1.00  0.00     0.105 A 
BRANCH  13  17
HETATM   17  C9  UNL     1      -1.869  38.644 -49.147  1.00  0.00     0.306 C 
BRANCH  17  18
HETATM   18  O3  UNL     1      -2.389  39.123 -50.356  1.00  0.00    -0.366 OA
ATOM     19  H3  UNL     1      -2.957  38.444 -50.702  1.00  0.00     0.213 HD
ENDBRANCH  17  18
BRANCH  17  20
HETATM   20  O4  UNL     1      -1.153  37.480 -49.460  1.00  0.00    -0.366 OA
ATOM     21  H4  UNL     1      -0.540  37.351 -48.746  1.00  0.00     0.213 HD
ENDBRANCH  17  20
ENDBRANCH  13  17
BRANCH  16  22
HETATM   22  C12 UNL     1      -5.390  35.817 -46.868  1.00  0.00     0.165 A 
HETATM   23  N3  UNL     1      -5.927  35.085 -47.858  1.00  0.00    -0.173 N 
HETATM   24  C13 UNL     1      -6.685  33.968 -47.644  1.00  0.00     0.692 A 
ATOM     25  H3  UNL     1      -5.761  35.378 -48.820  1.00  0.00     0.186 HD
HETATM   26  N4  UNL     1      -7.151  33.346 -48.588  1.00  0.00    -0.234 N 
HETATM   27  N5  UNL     1      -6.905  33.578 -46.371  1.00  0.00    -0.023 N 
ATOM     28  H42 UNL     1      -6.985  33.641 -49.550  1.00  0.00     0.174 HD
ATOM     29  H41 UNL     1      -7.716  32.512 -48.428  1.00  0.00     0.174 HD
HETATM   30  C14 UNL     1      -6.389  34.275 -45.349  1.00  0.00     0.692 A 
ATOM     31  H5  UNL     1      -7.468  32.748 -46.186  1.00  0.00     0.203 HD
HETATM   32  N7  UNL     1      -5.634  35.394 -45.635  1.00  0.00    -0.173 N 
ATOM     33  H7  UNL     1      -5.241  35.924 -44.857  1.00  0.00     0.186 HD
BRANCH  30  34
HETATM   34  N6  UNL     1      -6.609  33.907 -44.196  1.00  0.00    -0.234 N 
ATOM     35  H62 UNL     1      -6.963  32.975 -43.979  1.00  0.00     0.174 HD
ATOM     36  H61 UNL     1      -6.426  34.547 -43.423  1.00  0.00     0.174 HD
ENDBRANCH  30  34
ENDBRANCH  16  22
ENDBRANCH   5  11
BRANCH   3  37
HETATM   37  O2  UNL     1      -7.158  38.534 -48.984  1.00  0.00    -0.358 OA
ATOM     38  H2  UNL     1      -7.245  37.615 -49.210  1.00  0.00     0.217 HD
ENDBRANCH   3  37
BRANCH   1  39
HETATM   39  O1  UNL     1     -10.238  40.532 -45.799  1.00  0.00    -0.328 OA
BRANCH  39  40
HETATM   40  C2  UNL     1     -11.523  39.994 -46.012  1.00  0.00     0.164 C 
HETATM   41  C1  UNL     1     -12.456  40.959 -46.670  1.00  0.00     0.042 C 
BRANCH  40  42
HETATM   42  C18 UNL     1     -12.101  39.584 -44.678  1.00  0.00     0.285 C 
BRANCH  42  43
HETATM   43  N14 UNL     1     -13.447  40.105 -44.468  1.00  0.00    -0.066 N 
ATOM     44 3H14 UNL     1     -14.127  39.348 -44.400  1.00  0.00     0.275 HD
ATOM     45 2H14 UNL     1     -13.545  40.498 -43.531  1.00  0.00     0.275 HD
ATOM     46 1H14 UNL     1     -13.721  40.781 -45.180  1.00  0.00     0.275 HD
ENDBRANCH  42  43
BRANCH  42  47
HETATM   47  C19 UNL     1     -12.186  38.102 -44.607  1.00  0.00     0.215 C 
HETATM   48  O5  UNL     1     -11.463  37.423 -45.349  1.00  0.00    -0.291 OA
BRANCH  47  49
HETATM   49  C20 UNL     1     -13.099  37.390 -43.685  1.00  0.00     0.389 C 
BRANCH  49  50
HETATM   50  N15 UNL     1     -12.880  37.706 -42.300  1.00  0.00    -0.046 N 
ATOM     51 3H15 UNL     1     -12.339  38.565 -42.206  1.00  0.00     0.277 HD
ATOM     52 2H15 UNL     1     -13.749  38.003 -41.856  1.00  0.00     0.277 HD
ATOM     53 1H15 UNL     1     -12.447  36.948 -41.771  1.00  0.00     0.277 HD
ENDBRANCH  49  50
BRANCH  49  54
HETATM   54  O6  UNL     1     -12.975  35.991 -43.849  1.00  0.00    -0.364 OA
ATOM     55  H6  UNL     1     -13.138  35.545 -43.026  1.00  0.00     0.212 HD
ENDBRANCH  49  54
ENDBRANCH  47  49
ENDBRANCH  42  47
ENDBRANCH  40  42
ENDBRANCH  39  40
ENDBRANCH   1  39
BRANCH   9  56
HETATM   56  N9  UNL     1      -8.509  40.657 -43.541  1.00  0.00    -0.218 N 
HETATM   57  C17 UNL     1      -8.847  41.939 -43.339  1.00  0.00     0.220 A 
HETATM   58  N10 UNL     1      -9.795  42.057 -42.399  1.00  0.00    -0.280 N 
HETATM   59  N11 UNL     1     -10.050  40.809 -42.009  1.00  0.00    -0.007 NA
ATOM     60  H10 UNL     1     -10.228  42.915 -42.057  1.00  0.00     0.184 HD
HETATM   61  N12 UNL     1      -9.281  39.977 -42.693  1.00  0.00     0.001 NA
ENDBRANCH   9  56
TORSDOF 16
ENDMDL
MODEL 3
REMARK VINA RESULT: -8.128922631      0.774      1.428
REMARK  16 active torsions:
REMARK  status: ('A' for Active; 'I' for Inactive)
REMARK    1  A    between atoms: C2_2  and  O1_3 
REMARK    2  A    between atoms: C2_2  and  C18_48 
REMARK    3  A    between atoms: O1_3  and  C3_4 
REMARK    4  A    between atoms: C5_6  and  O2_7 
REMARK    5  A    between atoms: C7_10  and  N1_11 
REMARK    6  A    between atoms: C8_14  and  C9_15 
REMARK    7  A    between atoms: C9_15  and  O3_16 
REMARK    8  A    between atoms: C9_15  and  O4_18 
REMARK    9  A    between atoms: C11_21  and  C12_22 
REMARK   10  A    between atoms: C14_31  and  N6_32 
REMARK   11  A    between atoms: C16_40  and  N9_41 
REMARK   12  A    between atoms: C18_48  and  N14_49 
REMARK   13  A    between atoms: C18_48  and  C19_53 
REMARK   14  A    between atoms: C19_53  and  C20_55 
REMARK   15  A    between atoms: C20_55  and  N15_56 
REMARK   16  A    between atoms: C20_55  and  O6_60 
ROOT
HETATM    1  C3  UNL     1      -8.940  39.858 -46.493  1.00  0.00     0.154 A 
HETATM    2  C4  UNL     1      -8.893  39.147 -47.669  1.00  0.00     0.095 A 
HETATM    3  C5  UNL     1      -7.579  38.708 -47.881  1.00  0.00     0.101 A 
HETATM    4  C6  UNL     1      -6.867  39.184 -46.799  1.00  0.00     0.122 A 
HETATM    5  C7  UNL     1      -5.531  39.043 -46.507  1.00  0.00     0.158 A 
HETATM    6  N8  UNL     1      -5.087  39.628 -45.357  1.00  0.00    -0.345 N 
ATOM      7  H8  UNL     1      -4.099  39.541 -45.114  1.00  0.00     0.167 HD
HETATM    8  C15 UNL     1      -5.881  40.304 -44.543  1.00  0.00     0.140 A 
HETATM    9  C16 UNL     1      -7.244  40.450 -44.835  1.00  0.00     0.151 A 
HETATM   10  N13 UNL     1      -7.708  39.884 -45.961  1.00  0.00    -0.269 N 
ENDROOT
BRANCH   5  11
HETATM   11  N1  UNL     1      -4.597  38.310 -47.284  1.00  0.00    -0.234 N 
HETATM   12  N2  UNL     1      -3.595  38.911 -47.986  1.00  0.00    -0.291 N 
HETATM   13  C8  UNL     1      -2.895  38.019 -48.648  1.00  0.00     0.083 A 
ATOM     14  H2  UNL     1      -3.414  39.914 -47.996  1.00  0.00     0.187 HD
HETATM   15  C10 UNL     1      -3.461  36.808 -48.364  1.00  0.00     0.067 A 
HETATM   16  C11 UNL     1      -4.554  36.996 -47.488  1.00  0.00     0.105 A 
BRANCH  13  17
HETATM   17  C9  UNL     1      -1.719  38.335 -49.522  1.00  0.00     0.306 C 
BRANCH  17  18
HETATM   18  O3  UNL     1      -0.838  39.111 -48.760  1.00  0.00    -0.366 OA
ATOM     19  H3  UNL     1      -0.025  39.169 -49.248  1.00  0.00     0.213 HD
ENDBRANCH  17  18
BRANCH  17  20
HETATM   20  O4  UNL     1      -2.206  39.172 -50.535  1.00  0.00    -0.366 OA
ATOM     21  H4  UNL     1      -1.900  38.798 -51.353  1.00  0.00     0.213 HD
ENDBRANCH  17  20
ENDBRANCH  13  17
BRANCH  16  22
HETATM   22  C12 UNL     1      -5.375  35.888 -47.024  1.00  0.00     0.165 A 
HETATM   23  N3  UNL     1      -5.656  35.837 -45.711  1.00  0.00    -0.173 N 
HETATM   24  C13 UNL     1      -6.388  34.837 -45.135  1.00  0.00     0.692 A 
ATOM     25  H3  UNL     1      -5.304  36.585 -45.113  1.00  0.00     0.186 HD
HETATM   26  N4  UNL     1      -6.606  34.845 -43.932  1.00  0.00    -0.234 N 
HETATM   27  N5  UNL     1      -6.854  33.849 -45.926  1.00  0.00    -0.023 N 
ATOM     28  H42 UNL     1      -6.253  35.592 -43.335  1.00  0.00     0.174 HD
ATOM     29  H41 UNL     1      -7.153  34.099 -43.502  1.00  0.00     0.174 HD
HETATM   30  C14 UNL     1      -6.602  33.856 -47.242  1.00  0.00     0.692 A 
ATOM     31  H5  UNL     1      -7.403  33.091 -45.519  1.00  0.00     0.203 HD
HETATM   32  N7  UNL     1      -5.855  34.895 -47.759  1.00  0.00    -0.173 N 
ATOM     33  H7  UNL     1      -5.663  34.900 -48.761  1.00  0.00     0.186 HD
BRANCH  30  34
HETATM   34  N6  UNL     1      -7.029  32.940 -47.943  1.00  0.00    -0.234 N 
ATOM     35  H62 UNL     1      -6.419  32.222 -48.336  1.00  0.00     0.174 HD
ATOM     36  H61 UNL     1      -8.029  32.882 -48.135  1.00  0.00     0.174 HD
ENDBRANCH  30  34
ENDBRANCH  16  22
ENDBRANCH   5  11
BRANCH   3  37
HETATM   37  O2  UNL     1      -7.219  37.970 -48.980  1.00  0.00    -0.358 OA
ATOM     38  H2  UNL     1      -7.835  37.414 -49.443  1.00  0.00     0.217 HD
ENDBRANCH   3  37
BRANCH   1  39
HETATM   39  O1  UNL     1     -10.056  40.464 -45.921  1.00  0.00    -0.328 OA
BRANCH  39  40
HETATM   40  C2  UNL     1     -11.363  39.969 -46.098  1.00  0.00     0.164 C 
HETATM   41  C1  UNL     1     -12.275  40.956 -46.754  1.00  0.00     0.042 C 
BRANCH  40  42
HETATM   42  C18 UNL     1     -11.928  39.603 -44.745  1.00  0.00     0.285 C 
BRANCH  42  43
HETATM   43  N14 UNL     1     -13.256  40.164 -44.523  1.00  0.00    -0.066 N 
ATOM     44 3H14 UNL     1     -13.227  41.183 -44.513  1.00  0.00     0.275 HD
ATOM     45 2H14 UNL     1     -13.854  40.024 -45.337  1.00  0.00     0.275 HD
ATOM     46 1H14 UNL     1     -13.697  39.802 -43.677  1.00  0.00     0.275 HD
ENDBRANCH  42  43
BRANCH  42  47
HETATM   47  C19 UNL     1     -12.051  38.126 -44.640  1.00  0.00     0.215 C 
HETATM   48  O5  UNL     1     -11.308  37.412 -45.329  1.00  0.00    -0.291 OA
BRANCH  47  49
HETATM   49  C20 UNL     1     -13.023  37.459 -43.746  1.00  0.00     0.389 C 
BRANCH  49  50
HETATM   50  N15 UNL     1     -12.836  37.773 -42.355  1.00  0.00    -0.046 N 
ATOM     51 3H15 UNL     1     -12.785  36.921 -41.797  1.00  0.00     0.277 HD
ATOM     52 2H15 UNL     1     -11.899  38.141 -42.191  1.00  0.00     0.277 HD
ATOM     53 1H15 UNL     1     -13.543  38.407 -41.981  1.00  0.00     0.277 HD
ENDBRANCH  49  50
BRANCH  49  54
HETATM   54  O6  UNL     1     -12.953  36.055 -43.899  1.00  0.00    -0.364 OA
ATOM     55  H6  UNL     1     -12.899  35.824 -44.819  1.00  0.00     0.212 HD
ENDBRANCH  49  54
ENDBRANCH  47  49
ENDBRANCH  42  47
ENDBRANCH  40  42
ENDBRANCH  39  40
ENDBRANCH   1  39
BRANCH   9  56
HETATM   56  N9  UNL     1      -8.092  41.176 -43.987  1.00  0.00    -0.218 N 
HETATM   57  C17 UNL     1      -8.834  40.797 -42.936  1.00  0.00     0.220 A 
HETATM   58  N10 UNL     1      -9.484  41.836 -42.392  1.00  0.00    -0.280 N 
HETATM   59  N11 UNL     1      -9.131  42.887 -43.130  1.00  0.00    -0.007 NA
ATOM     60  H10 UNL     1     -10.112  41.824 -41.588  1.00  0.00     0.184 HD
HETATM   61  N12 UNL     1      -8.300  42.489 -44.080  1.00  0.00     0.001 NA
ENDBRANCH   9  56
TORSDOF 16
ENDMDL
MODEL 4
REMARK VINA RESULT: -8.042355738      1.309      1.492
REMARK  16 active torsions:
REMARK  status: ('A' for Active; 'I' for Inactive)
REMARK    1  A    between atoms: C2_2  and  O1_3 
REMARK    2  A    between atoms: C2_2  and  C18_48 
REMARK    3  A    between atoms: O1_3  and  C3_4 
REMARK    4  A    between atoms: C5_6  and  O2_7 
REMARK    5  A    between atoms: C7_10  and  N1_11 
REMARK    6  A    between atoms: C8_14  and  C9_15 
REMARK    7  A    between atoms: C9_15  and  O3_16 
REMARK    8  A    between atoms: C9_15  and  O4_18 
REMARK    9  A    between atoms: C11_21  and  C12_22 
REMARK   10  A    between atoms: C14_31  and  N6_32 
REMARK   11  A    between atoms: C16_40  and  N9_41 
REMARK   12  A    between atoms: C18_48  and  N14_49 
REMARK   13  A    between atoms: C18_48  and  C19_53 
REMARK   14  A    between atoms: C19_53  and  C20_55 
REMARK   15  A    between atoms: C20_55  and  N15_56 
REMARK   16  A    between atoms: C20_55  and  O6_60 
ROOT
HETATM    1  C3  UNL     1      -9.510  38.700 -45.719  1.00  0.00     0.154 A 
HETATM    2  C4  UNL     1      -9.430  37.785 -46.743  1.00  0.00     0.095 A 
HETATM    3  C5  UNL     1      -8.089  37.654 -47.129  1.00  0.00     0.101 A 
HETATM    4  C6  UNL     1      -7.396  38.515 -46.303  1.00  0.00     0.122 A 
HETATM    5  C7  UNL     1      -6.048  38.779 -46.257  1.00  0.00     0.158 A 
HETATM    6  N8  UNL     1      -5.630  39.691 -45.331  1.00  0.00    -0.345 N 
ATOM      7  H8  UNL     1      -4.634  39.907 -45.274  1.00  0.00     0.167 HD
HETATM    8  C15 UNL     1      -6.460  40.306 -44.506  1.00  0.00     0.140 A 
HETATM    9  C16 UNL     1      -7.835  40.041 -44.548  1.00  0.00     0.151 A 
HETATM   10  N13 UNL     1      -8.274  39.147 -45.449  1.00  0.00    -0.269 N 
ENDROOT
BRANCH   5  11
HETATM   11  N1  UNL     1      -5.063  38.152 -47.065  1.00  0.00    -0.234 N 
HETATM   12  N2  UNL     1      -4.195  38.858 -47.842  1.00  0.00    -0.291 N 
HETATM   13  C8  UNL     1      -3.414  38.046 -48.516  1.00  0.00     0.083 A 
ATOM     14  H2  UNL     1      -4.156  39.875 -47.893  1.00  0.00     0.187 HD
HETATM   15  C10 UNL     1      -3.788  36.781 -48.162  1.00  0.00     0.067 A 
HETATM   16  C11 UNL     1      -4.848  36.849 -47.230  1.00  0.00     0.105 A 
BRANCH  13  17
HETATM   17  C9  UNL     1      -2.342  38.487 -49.467  1.00  0.00     0.306 C 
BRANCH  17  18
HETATM   18  O3  UNL     1      -1.336  39.087 -48.701  1.00  0.00    -0.366 OA
ATOM     19  H3  UNL     1      -0.628  39.308 -49.296  1.00  0.00     0.213 HD
ENDBRANCH  17  18
BRANCH  17  20
HETATM   20  O4  UNL     1      -2.910  39.509 -50.240  1.00  0.00    -0.366 OA
ATOM     21  H4  UNL     1      -2.274  40.215 -50.248  1.00  0.00     0.213 HD
ENDBRANCH  17  20
ENDBRANCH  13  17
BRANCH  16  22
HETATM   22  C12 UNL     1      -5.480  35.657 -46.685  1.00  0.00     0.165 A 
HETATM   23  N3  UNL     1      -5.904  34.730 -47.561  1.00  0.00    -0.173 N 
HETATM   24  C13 UNL     1      -6.543  33.580 -47.190  1.00  0.00     0.692 A 
ATOM     25  H3  UNL     1      -5.742  34.894 -48.554  1.00  0.00     0.186 HD
HETATM   26  N4  UNL     1      -6.909  32.776 -48.035  1.00  0.00    -0.234 N 
HETATM   27  N5  UNL     1      -6.757  33.362 -45.877  1.00  0.00    -0.023 N 
ATOM     28  H42 UNL     1      -6.747  32.941 -49.029  1.00  0.00     0.174 HD
ATOM     29  H41 UNL     1      -7.385  31.918 -47.759  1.00  0.00     0.174 HD
HETATM   30  C14 UNL     1      -6.350  34.257 -44.964  1.00  0.00     0.692 A 
ATOM     31  H5  UNL     1      -7.232  32.511 -45.575  1.00  0.00     0.203 HD
HETATM   32  N7  UNL     1      -5.713  35.398 -45.407  1.00  0.00    -0.173 N 
ATOM     33  H7  UNL     1      -5.405  36.079 -44.713  1.00  0.00     0.186 HD
BRANCH  30  34
HETATM   34  N6  UNL     1      -6.565  34.042 -43.772  1.00  0.00    -0.234 N 
ATOM     35  H62 UNL     1      -7.224  34.598 -43.227  1.00  0.00     0.174 HD
ATOM     36  H61 UNL     1      -6.077  33.277 -43.307  1.00  0.00     0.174 HD
ENDBRANCH  30  34
ENDBRANCH  16  22
ENDBRANCH   5  11
BRANCH   3  37
HETATM   37  O2  UNL     1      -7.694  36.810 -48.135  1.00  0.00    -0.358 OA
ATOM     38  H2  UNL     1      -8.293  36.499 -48.803  1.00  0.00     0.217 HD
ENDBRANCH   3  37
BRANCH   1  39
HETATM   39  O1  UNL     1     -10.660  39.117 -45.052  1.00  0.00    -0.328 OA
BRANCH  39  40
HETATM   40  C2  UNL     1     -11.932  39.115 -45.657  1.00  0.00     0.164 C 
HETATM   41  C1  UNL     1     -12.346  40.465 -46.146  1.00  0.00     0.042 C 
BRANCH  40  42
HETATM   42  C18 UNL     1     -12.945  38.625 -44.649  1.00  0.00     0.285 C 
BRANCH  42  43
HETATM   43  N14 UNL     1     -12.710  37.244 -44.245  1.00  0.00    -0.066 N 
ATOM     44 3H14 UNL     1     -12.350  37.197 -43.292  1.00  0.00     0.275 HD
ATOM     45 2H14 UNL     1     -13.591  36.746 -44.113  1.00  0.00     0.275 HD
ATOM     46 1H14 UNL     1     -12.100  36.745 -44.892  1.00  0.00     0.275 HD
ENDBRANCH  42  43
BRANCH  42  47
HETATM   47  C19 UNL     1     -12.872  39.461 -43.423  1.00  0.00     0.215 C 
HETATM   48  O5  UNL     1     -12.498  40.638 -43.521  1.00  0.00    -0.291 OA
BRANCH  47  49
HETATM   49  C20 UNL     1     -13.226  38.954 -42.079  1.00  0.00     0.389 C 
BRANCH  49  50
HETATM   50  N15 UNL     1     -14.522  39.380 -41.625  1.00  0.00    -0.046 N 
ATOM     51 3H15 UNL     1     -15.195  38.617 -41.688  1.00  0.00     0.277 HD
ATOM     52 2H15 UNL     1     -14.521  39.522 -40.615  1.00  0.00     0.277 HD
ATOM     53 1H15 UNL     1     -14.871  40.210 -42.105  1.00  0.00     0.277 HD
ENDBRANCH  49  50
BRANCH  49  54
HETATM   54  O6  UNL     1     -12.263  39.363 -41.127  1.00  0.00    -0.364 OA
ATOM     55  H6  UNL     1     -12.641  39.991 -40.522  1.00  0.00     0.212 HD
ENDBRANCH  49  54
ENDBRANCH  47  49
ENDBRANCH  42  47
ENDBRANCH  40  42
ENDBRANCH  39  40
ENDBRANCH   1  39
BRANCH   9  56
HETATM   56  N9  UNL     1      -8.725  40.697 -43.687  1.00  0.00    -0.218 N 
HETATM   57  C17 UNL     1      -9.191  40.371 -42.472  1.00  0.00     0.220 A 
HETATM   58  N10 UNL     1     -10.017  41.311 -41.992  1.00  0.00    -0.280 N 
HETATM   59  N11 UNL     1     -10.062  42.246 -42.939  1.00  0.00    -0.007 NA
ATOM     60  H10 UNL     1     -10.505  41.311 -41.096  1.00  0.00     0.184 HD
HETATM   61  N12 UNL     1      -9.288  41.877 -43.949  1.00  0.00     0.001 NA
ENDBRANCH   9  56
TORSDOF 16
ENDMDL
MODEL 5
REMARK VINA RESULT: -7.995228463      3.045      7.250
REMARK  16 active torsions:
REMARK  status: ('A' for Active; 'I' for Inactive)
REMARK    1  A    between atoms: C2_2  and  O1_3 
REMARK    2  A    between atoms: C2_2  and  C18_48 
REMARK    3  A    between atoms: O1_3  and  C3_4 
REMARK    4  A    between atoms: C5_6  and  O2_7 
REMARK    5  A    between atoms: C7_10  and  N1_11 
REMARK    6  A    between atoms: C8_14  and  C9_15 
REMARK    7  A    between atoms: C9_15  and  O3_16 
REMARK    8  A    between atoms: C9_15  and  O4_18 
REMARK    9  A    between atoms: C11_21  and  C12_22 
REMARK   10  A    between atoms: C14_31  and  N6_32 
REMARK   11  A    between atoms: C16_40  and  N9_41 
REMARK   12  A    between atoms: C18_48  and  N14_49 
REMARK   13  A    between atoms: C18_48  and  C19_53 
REMARK   14  A    between atoms: C19_53  and  C20_55 
REMARK   15  A    between atoms: C20_55  and  N15_56 
REMARK   16  A    between atoms: C20_55  and  O6_60 
ROOT
HETATM    1  C3  UNL     1      -7.169  34.486 -47.099  1.00  0.00     0.154 A 
HETATM    2  C4  UNL     1      -6.861  35.024 -48.327  1.00  0.00     0.095 A 
HETATM    3  C5  UNL     1      -6.439  36.348 -48.148  1.00  0.00     0.101 A 
HETATM    4  C6  UNL     1      -6.510  36.563 -46.787  1.00  0.00     0.122 A 
HETATM    5  C7  UNL     1      -6.210  37.696 -46.069  1.00  0.00     0.158 A 
HETATM    6  N8  UNL     1      -6.378  37.630 -44.716  1.00  0.00    -0.345 N 
ATOM      7  H8  UNL     1      -6.163  38.456 -44.156  1.00  0.00     0.167 HD
HETATM    8  C15 UNL     1      -6.808  36.542 -44.099  1.00  0.00     0.140 A 
HETATM    9  C16 UNL     1      -7.115  35.383 -44.826  1.00  0.00     0.151 A 
HETATM   10  N13 UNL     1      -6.958  35.420 -46.159  1.00  0.00    -0.269 N 
ENDROOT
BRANCH   5  11
HETATM   11  N1  UNL     1      -5.706  38.903 -46.618  1.00  0.00    -0.234 N 
HETATM   12  N2  UNL     1      -4.491  38.980 -47.230  1.00  0.00    -0.291 N 
HETATM   13  C8  UNL     1      -4.245  40.210 -47.616  1.00  0.00     0.083 A 
ATOM     14  H2  UNL     1      -3.860  38.191 -47.369  1.00  0.00     0.187 HD
HETATM   15  C10 UNL     1      -5.333  40.948 -47.244  1.00  0.00     0.067 A 
HETATM   16  C11 UNL     1      -6.271  40.108 -46.603  1.00  0.00     0.105 A 
BRANCH  13  17
HETATM   17  C9  UNL     1      -2.998  40.650 -48.323  1.00  0.00     0.306 C 
BRANCH  17  18
HETATM   18  O3  UNL     1      -3.360  40.963 -49.638  1.00  0.00    -0.366 OA
ATOM     19  H3  UNL     1      -2.926  40.334 -50.204  1.00  0.00     0.213 HD
ENDBRANCH  17  18
BRANCH  17  20
HETATM   20  O4  UNL     1      -2.179  39.515 -48.400  1.00  0.00    -0.366 OA
ATOM     21  H4  UNL     1      -2.500  39.011 -49.139  1.00  0.00     0.213 HD
ENDBRANCH  17  20
ENDBRANCH  13  17
BRANCH  16  22
HETATM   22  C12 UNL     1      -7.527  40.613 -46.069  1.00  0.00     0.165 A 
HETATM   23  N3  UNL     1      -7.529  41.033 -44.793  1.00  0.00    -0.173 N 
HETATM   24  C13 UNL     1      -8.643  41.500 -44.155  1.00  0.00     0.692 A 
ATOM     25  H3  UNL     1      -6.652  41.001 -44.273  1.00  0.00     0.186 HD
HETATM   26  N4  UNL     1      -8.582  41.864 -42.989  1.00  0.00    -0.234 N 
HETATM   27  N5  UNL     1      -9.803  41.544 -44.842  1.00  0.00    -0.023 N 
ATOM     28  H42 UNL     1      -7.706  41.830 -42.469  1.00  0.00     0.174 HD
ATOM     29  H41 UNL     1      -9.414  42.213 -42.513  1.00  0.00     0.174 HD
HETATM   30  C14 UNL     1      -9.851  41.138 -46.119  1.00  0.00     0.692 A 
ATOM     31  H5  UNL     1     -10.649  41.889 -44.388  1.00  0.00     0.203 HD
HETATM   32  N7  UNL     1      -8.689  40.676 -46.703  1.00  0.00    -0.173 N 
ATOM     33  H7  UNL     1      -8.726  40.367 -47.674  1.00  0.00     0.186 HD
BRANCH  30  34
HETATM   34  N6  UNL     1     -10.921  41.178 -46.725  1.00  0.00    -0.234 N 
ATOM     35  H62 UNL     1     -11.821  41.101 -46.249  1.00  0.00     0.174 HD
ATOM     36  H61 UNL     1     -10.919  41.303 -47.737  1.00  0.00     0.174 HD
ENDBRANCH  30  34
ENDBRANCH  16  22
ENDBRANCH   5  11
BRANCH   3  37
HETATM   37  O2  UNL     1      -6.064  37.147 -49.198  1.00  0.00    -0.358 OA
ATOM     38  H2  UNL     1      -6.242  38.080 -49.216  1.00  0.00     0.217 HD
ENDBRANCH   3  37
BRANCH   1  39
HETATM   39  O1  UNL     1      -7.626  33.197 -46.836  1.00  0.00    -0.328 OA
BRANCH  39  40
HETATM   40  C2  UNL     1      -6.838  32.051 -47.063  1.00  0.00     0.164 C 
HETATM   41  C1  UNL     1      -5.467  32.163 -46.476  1.00  0.00     0.042 C 
BRANCH  40  42
HETATM   42  C18 UNL     1      -6.719  31.834 -48.553  1.00  0.00     0.285 C 
BRANCH  42  43
HETATM   43  N14 UNL     1      -5.422  31.288 -48.937  1.00  0.00    -0.066 N 
ATOM     44 3H14 UNL     1      -4.720  31.472 -48.220  1.00  0.00     0.275 HD
ATOM     45 2H14 UNL     1      -5.429  30.268 -48.903  1.00  0.00     0.275 HD
ATOM     46 1H14 UNL     1      -5.111  31.622 -49.849  1.00  0.00     0.275 HD
ENDBRANCH  42  43
BRANCH  42  47
HETATM   47  C19 UNL     1      -7.754  30.866 -49.000  1.00  0.00     0.215 C 
HETATM   48  O5  UNL     1      -7.957  29.850 -48.322  1.00  0.00    -0.291 OA
BRANCH  47  49
HETATM   49  C20 UNL     1      -8.562  31.059 -50.225  1.00  0.00     0.389 C 
BRANCH  49  50
HETATM   50  N15 UNL     1      -7.858  30.737 -51.436  1.00  0.00    -0.046 N 
ATOM     51 3H15 UNL     1      -6.980  31.253 -51.492  1.00  0.00     0.277 HD
ATOM     52 2H15 UNL     1      -7.493  29.785 -51.399  1.00  0.00     0.277 HD
ATOM     53 1H15 UNL     1      -8.413  30.877 -52.281  1.00  0.00     0.277 HD
ENDBRANCH  49  50
BRANCH  49  54
HETATM   54  O6  UNL     1      -9.013  32.397 -50.314  1.00  0.00    -0.364 OA
ATOM     55  H6  UNL     1      -9.460  32.542 -51.139  1.00  0.00     0.212 HD
ENDBRANCH  49  54
ENDBRANCH  47  49
ENDBRANCH  42  47
ENDBRANCH  40  42
ENDBRANCH  39  40
ENDBRANCH   1  39
BRANCH   9  56
HETATM   56  N9  UNL     1      -7.583  34.229 -44.184  1.00  0.00    -0.218 N 
HETATM   57  C17 UNL     1      -8.811  33.695 -44.100  1.00  0.00     0.220 A 
HETATM   58  N10 UNL     1      -8.805  32.554 -43.396  1.00  0.00    -0.280 N 
HETATM   59  N11 UNL     1      -7.535  32.380 -43.035  1.00  0.00    -0.007 NA
ATOM     60  H10 UNL     1      -9.600  31.951 -43.183  1.00  0.00     0.184 HD
HETATM   61  N12 UNL     1      -6.809  33.381 -43.508  1.00  0.00     0.001 NA
ENDBRANCH   9  56
TORSDOF 16
ENDMDL
