MODEL 1
REMARK VINA RESULT: -4.624829614      0.000      0.000
REMARK  2 active torsions:
REMARK  status: ('A' for Active; 'I' for Inactive)
REMARK    1  A    between atoms: N1_2  and  C2_5 
REMARK    2  A    between atoms: C3_8  and  S1_9 
ROOT
HETATM    1  C2  UNL     1      27.791  17.054   8.285  1.00  0.00     0.454 C 
HETATM    2  N2  UNL     1      27.818  17.951   7.170  1.00  0.00    -0.319 N 
ATOM      3  H2  UNL     1      27.885  17.682   6.188  1.00  0.00     0.166 HD
HETATM    4  C3  UNL     1      27.744  19.147   7.617  1.00  0.00     0.163 C 
HETATM    5  N3  UNL     1      27.669  19.081   9.025  1.00  0.00    -0.241 N 
ATOM      6  H3  UNL     1      27.367  19.825   9.653  1.00  0.00     0.196 HD
HETATM    7  O1  UNL     1      28.078  17.824   9.385  1.00  0.00    -0.223 OA
ENDROOT
BRANCH   1   8
HETATM    8  N1  UNL     1      28.750  15.973   8.169  1.00  0.00    -0.033 N 
HETATM    9  C1  UNL     1      30.091  16.381   8.439  1.00  0.00     0.272 C 
ATOM     10  H12 UNL     1      28.684  15.525   7.255  1.00  0.00     0.281 HD
ATOM     11  H11 UNL     1      28.483  15.186   8.760  1.00  0.00     0.281 HD
ENDBRANCH   1   8
BRANCH   4  12
HETATM   12  S1  UNL     1      27.731  20.695   6.720  1.00  0.00    -0.097 SA
HETATM   13  C4  UNL     1      26.376  21.737   7.328  1.00  0.00     0.099 C 
ENDBRANCH   4  12
TORSDOF 2
ENDMDL
MODEL 2
REMARK VINA RESULT: -4.399483561      2.792      3.733
REMARK  2 active torsions:
REMARK  status: ('A' for Active; 'I' for Inactive)
REMARK    1  A    between atoms: N1_2  and  C2_5 
REMARK    2  A    between atoms: C3_8  and  S1_9 
ROOT
HETATM    1  C2  UNL     1      27.241  16.485   6.697  1.00  0.00     0.454 C 
HETATM    2  N2  UNL     1      27.415  16.982   8.028  1.00  0.00    -0.319 N 
ATOM      3  H2  UNL     1      26.668  17.223   8.679  1.00  0.00     0.166 HD
HETATM    4  C3  UNL     1      28.670  17.070   8.261  1.00  0.00     0.163 C 
HETATM    5  N3  UNL     1      29.358  16.642   7.104  1.00  0.00    -0.241 N 
ATOM      6  H3  UNL     1      30.339  16.371   7.046  1.00  0.00     0.196 HD
HETATM    7  O1  UNL     1      28.453  16.661   6.076  1.00  0.00    -0.223 OA
ENDROOT
BRANCH   1   8
HETATM    8  N1  UNL     1      26.200  17.178   5.964  1.00  0.00    -0.033 N 
HETATM    9  C1  UNL     1      26.706  18.181   5.082  1.00  0.00     0.272 C 
ATOM     10  H12 UNL     1      25.507  17.571   6.601  1.00  0.00     0.281 HD
ATOM     11  H11 UNL     1      25.609  16.517   5.460  1.00  0.00     0.281 HD
ENDBRANCH   1   8
BRANCH   4  12
HETATM   12  S1  UNL     1      29.515  17.620   9.739  1.00  0.00    -0.097 SA
HETATM   13  C4  UNL     1      30.610  19.008   9.332  1.00  0.00     0.099 C 
ENDBRANCH   4  12
TORSDOF 2
ENDMDL
MODEL 3
REMARK VINA RESULT: -4.396283653      2.973      4.118
REMARK  2 active torsions:
REMARK  status: ('A' for Active; 'I' for Inactive)
REMARK    1  A    between atoms: N1_2  and  C2_5 
REMARK    2  A    between atoms: C3_8  and  S1_9 
ROOT
HETATM    1  C2  UNL     1      26.837  17.251   5.593  1.00  0.00     0.454 C 
HETATM    2  N2  UNL     1      27.253  17.851   6.825  1.00  0.00    -0.319 N 
ATOM      3  H2  UNL     1      27.112  18.826   7.092  1.00  0.00     0.166 HD
HETATM    4  C3  UNL     1      27.830  16.955   7.532  1.00  0.00     0.163 C 
HETATM    5  N3  UNL     1      27.818  15.749   6.798  1.00  0.00    -0.241 N 
ATOM      6  H3  UNL     1      27.980  14.812   7.167  1.00  0.00     0.196 HD
HETATM    7  O1  UNL     1      27.546  16.078   5.497  1.00  0.00    -0.223 OA
ENDROOT
BRANCH   1   8
HETATM    8  N1  UNL     1      27.097  18.086   4.438  1.00  0.00    -0.033 N 
HETATM    9  C1  UNL     1      25.975  18.884   4.058  1.00  0.00     0.272 C 
ATOM     10  H12 UNL     1      27.427  17.527   3.652  1.00  0.00     0.281 HD
ATOM     11  H11 UNL     1      27.921  18.668   4.588  1.00  0.00     0.281 HD
ENDBRANCH   1   8
BRANCH   4  12
HETATM   12  S1  UNL     1      28.558  17.089   9.161  1.00  0.00    -0.097 SA
HETATM   13  C4  UNL     1      29.262  18.748   9.376  1.00  0.00     0.099 C 
ENDBRANCH   4  12
TORSDOF 2
ENDMDL
MODEL 4
REMARK VINA RESULT: -4.392266809      2.668      3.351
REMARK  2 active torsions:
REMARK  status: ('A' for Active; 'I' for Inactive)
REMARK    1  A    between atoms: N1_2  and  C2_5 
REMARK    2  A    between atoms: C3_8  and  S1_9 
ROOT
HETATM    1  C2  UNL     1      27.928  19.717   7.071  1.00  0.00     0.454 C 
HETATM    2  N2  UNL     1      26.791  19.921   6.226  1.00  0.00    -0.319 N 
ATOM      3  H2  UNL     1      25.973  20.489   6.450  1.00  0.00     0.166 HD
HETATM    4  C3  UNL     1      26.977  19.270   5.141  1.00  0.00     0.163 C 
HETATM    5  N3  UNL     1      28.227  18.619   5.234  1.00  0.00    -0.241 N 
ATOM      6  H3  UNL     1      28.765  18.225   4.463  1.00  0.00     0.196 HD
HETATM    7  O1  UNL     1      28.577  18.621   6.558  1.00  0.00    -0.223 OA
ENDROOT
BRANCH   1   8
HETATM    8  N1  UNL     1      27.571  19.481   8.456  1.00  0.00    -0.033 N 
HETATM    9  C1  UNL     1      28.233  18.348   9.022  1.00  0.00     0.272 C 
ATOM     10  H12 UNL     1      26.560  19.401   8.563  1.00  0.00     0.281 HD
ATOM     11  H11 UNL     1      27.734  20.315   9.020  1.00  0.00     0.281 HD
ENDBRANCH   1   8
BRANCH   4  12
HETATM   12  S1  UNL     1      25.920  19.133   3.703  1.00  0.00    -0.097 SA
HETATM   13  C4  UNL     1      25.570  20.789   3.048  1.00  0.00     0.099 C 
ENDBRANCH   4  12
TORSDOF 2
ENDMDL
MODEL 5
REMARK VINA RESULT: -4.369076917      2.125      2.551
REMARK  2 active torsions:
REMARK  status: ('A' for Active; 'I' for Inactive)
REMARK    1  A    between atoms: N1_2  and  C2_5 
REMARK    2  A    between atoms: C3_8  and  S1_9 
ROOT
HETATM    1  C2  UNL     1      29.587  17.518   7.039  1.00  0.00     0.454 C 
HETATM    2  N2  UNL     1      28.633  18.579   6.932  1.00  0.00    -0.319 N 
ATOM      3  H2  UNL     1      27.984  18.876   7.661  1.00  0.00     0.166 HD
HETATM    4  C3  UNL     1      28.734  19.092   5.764  1.00  0.00     0.163 C 
HETATM    5  N3  UNL     1      29.745  18.393   5.069  1.00  0.00    -0.241 N 
ATOM      6  H3  UNL     1      30.225  18.700   4.223  1.00  0.00     0.196 HD
HETATM    7  O1  UNL     1      29.958  17.224   5.750  1.00  0.00    -0.223 OA
ENDROOT
BRANCH   1   8
HETATM    8  N1  UNL     1      29.053  16.336   7.686  1.00  0.00    -0.033 N 
HETATM    9  C1  UNL     1      27.955  16.620   8.555  1.00  0.00     0.272 C 
ATOM     10  H12 UNL     1      29.787  15.831   8.182  1.00  0.00     0.281 HD
ATOM     11  H11 UNL     1      28.798  15.629   6.998  1.00  0.00     0.281 HD
ENDBRANCH   1   8
BRANCH   4  12
HETATM   12  S1  UNL     1      27.819  20.445   5.035  1.00  0.00    -0.097 SA
HETATM   13  C4  UNL     1      27.564  21.744   6.276  1.00  0.00     0.099 C 
ENDBRANCH   4  12
TORSDOF 2
ENDMDL
