MODEL 1
REMARK VINA RESULT: -4.245905847      0.000      0.000
REMARK  2 active torsions:
REMARK  status: ('A' for Active; 'I' for Inactive)
REMARK    1  A    between atoms: N1_2  and  S1_4 
REMARK    2  A    between atoms: S1_4  and  C3_5 
ROOT
HETATM    1  C3  UNL     1      27.749  20.207   7.205  1.00  0.00     0.156 C 
HETATM    2  N2  UNL     1      26.814  20.511   8.044  1.00  0.00    -0.368 N 
ATOM      3  H2  UNL     1      26.520  19.924   8.824  1.00  0.00     0.161 HD
HETATM    4  C4  UNL     1      26.242  21.800   7.724  1.00  0.00     0.141 C 
HETATM    5  C5  UNL     1      26.643  21.963   6.276  1.00  0.00     0.141 C 
HETATM    6  N3  UNL     1      27.901  21.242   6.245  1.00  0.00    -0.368 N 
ATOM      7  H3  UNL     1      28.716  21.437   5.662  1.00  0.00     0.161 HD
ENDROOT
BRANCH   1   8
HETATM    8  S1  UNL     1      28.719  18.711   7.227  1.00  0.00     0.019 SA
BRANCH   8   9
HETATM    9  N1  UNL     1      27.827  17.309   7.557  1.00  0.00    -0.358 N 
HETATM   10  C1  UNL     1      27.938  16.716   8.835  1.00  0.00     0.157 C 
HETATM   11  C2  UNL     1      27.433  16.483   6.483  1.00  0.00     0.157 C 
ENDBRANCH   8   9
ENDBRANCH   1   8
TORSDOF 2
ENDMDL
MODEL 2
REMARK VINA RESULT: -4.206494633      1.305      1.649
REMARK  2 active torsions:
REMARK  status: ('A' for Active; 'I' for Inactive)
REMARK    1  A    between atoms: N1_2  and  S1_4 
REMARK    2  A    between atoms: S1_4  and  C3_5 
ROOT
HETATM    1  C3  UNL     1      27.725  20.266   7.300  1.00  0.00     0.156 C 
HETATM    2  N2  UNL     1      26.778  20.593   8.117  1.00  0.00    -0.368 N 
ATOM      3  H2  UNL     1      26.515  20.059   8.945  1.00  0.00     0.161 HD
HETATM    4  C4  UNL     1      26.144  21.823   7.696  1.00  0.00     0.141 C 
HETATM    5  C5  UNL     1      26.534  21.884   6.236  1.00  0.00     0.141 C 
HETATM    6  N3  UNL     1      27.825  21.225   6.257  1.00  0.00    -0.368 N 
ATOM      7  H3  UNL     1      28.628  21.409   5.655  1.00  0.00     0.161 HD
ENDROOT
BRANCH   1   8
HETATM    8  S1  UNL     1      28.766  18.825   7.439  1.00  0.00     0.019 SA
BRANCH   8   9
HETATM    9  N1  UNL     1      29.000  18.286   9.027  1.00  0.00    -0.358 N 
HETATM   10  C1  UNL     1      30.031  18.868   9.799  1.00  0.00     0.157 C 
HETATM   11  C2  UNL     1      28.572  16.988   9.378  1.00  0.00     0.157 C 
ENDBRANCH   8   9
ENDBRANCH   1   8
TORSDOF 2
ENDMDL
MODEL 3
REMARK VINA RESULT: -4.092129941      1.899      2.209
REMARK  2 active torsions:
REMARK  status: ('A' for Active; 'I' for Inactive)
REMARK    1  A    between atoms: N1_2  and  S1_4 
REMARK    2  A    between atoms: S1_4  and  C3_5 
ROOT
HETATM    1  C3  UNL     1      27.586  20.117   7.592  1.00  0.00     0.156 C 
HETATM    2  N2  UNL     1      26.610  20.852   8.014  1.00  0.00    -0.368 N 
ATOM      3  H2  UNL     1      26.125  20.719   8.901  1.00  0.00     0.161 HD
HETATM    4  C4  UNL     1      26.300  21.888   7.054  1.00  0.00     0.141 C 
HETATM    5  C5  UNL     1      26.909  21.326   5.789  1.00  0.00     0.141 C 
HETATM    6  N3  UNL     1      28.028  20.573   6.321  1.00  0.00    -0.368 N 
ATOM      7  H3  UNL     1      28.933  20.407   5.881  1.00  0.00     0.161 HD
ENDROOT
BRANCH   1   8
HETATM    8  S1  UNL     1      28.291  18.727   8.459  1.00  0.00     0.019 SA
BRANCH   8   9
HETATM    9  N1  UNL     1      29.949  18.510   8.190  1.00  0.00    -0.358 N 
HETATM   10  C1  UNL     1      30.367  17.503   7.290  1.00  0.00     0.157 C 
HETATM   11  C2  UNL     1      30.861  18.919   9.186  1.00  0.00     0.157 C 
ENDBRANCH   8   9
ENDBRANCH   1   8
TORSDOF 2
ENDMDL
MODEL 4
REMARK VINA RESULT: -4.087255901      1.082      1.674
REMARK  2 active torsions:
REMARK  status: ('A' for Active; 'I' for Inactive)
REMARK    1  A    between atoms: N1_2  and  S1_4 
REMARK    2  A    between atoms: S1_4  and  C3_5 
ROOT
HETATM    1  C3  UNL     1      27.845  19.950   7.487  1.00  0.00     0.156 C 
HETATM    2  N2  UNL     1      27.804  20.137   6.209  1.00  0.00    -0.368 N 
ATOM      3  H2  UNL     1      28.475  19.753   5.544  1.00  0.00     0.161 HD
HETATM    4  C4  UNL     1      26.674  20.966   5.852  1.00  0.00     0.141 C 
HETATM    5  C5  UNL     1      26.363  21.645   7.166  1.00  0.00     0.141 C 
HETATM    6  N3  UNL     1      26.765  20.626   8.116  1.00  0.00    -0.368 N 
ATOM      7  H3  UNL     1      26.361  20.436   9.034  1.00  0.00     0.161 HD
ENDROOT
BRANCH   1   8
HETATM    8  S1  UNL     1      29.070  18.992   8.359  1.00  0.00     0.019 SA
BRANCH   8   9
HETATM    9  N1  UNL     1      28.491  17.528   8.984  1.00  0.00    -0.358 N 
HETATM   10  C1  UNL     1      29.202  16.908  10.037  1.00  0.00     0.157 C 
HETATM   11  C2  UNL     1      27.684  16.709   8.167  1.00  0.00     0.157 C 
ENDBRANCH   8   9
ENDBRANCH   1   8
TORSDOF 2
ENDMDL
MODEL 5
REMARK VINA RESULT: -4.081803285      2.124      2.758
REMARK  2 active torsions:
REMARK  status: ('A' for Active; 'I' for Inactive)
REMARK    1  A    between atoms: N1_2  and  S1_4 
REMARK    2  A    between atoms: S1_4  and  C3_5 
ROOT
HETATM    1  C3  UNL     1      28.201  18.785   5.662  1.00  0.00     0.156 C 
HETATM    2  N2  UNL     1      28.359  19.037   4.405  1.00  0.00    -0.368 N 
ATOM      3  H2  UNL     1      29.164  18.744   3.851  1.00  0.00     0.161 HD
HETATM    4  C4  UNL     1      27.238  19.791   3.891  1.00  0.00     0.141 C 
HETATM    5  C5  UNL     1      26.651  20.371   5.158  1.00  0.00     0.141 C 
HETATM    6  N3  UNL     1      26.974  19.337   6.121  1.00  0.00    -0.368 N 
ATOM      7  H3  UNL     1      26.439  19.065   6.946  1.00  0.00     0.161 HD
ENDROOT
BRANCH   1   8
HETATM    8  S1  UNL     1      29.340  17.880   6.694  1.00  0.00     0.019 SA
BRANCH   8   9
HETATM    9  N1  UNL     1      28.822  17.684   8.294  1.00  0.00    -0.358 N 
HETATM   10  C1  UNL     1      27.825  16.723   8.575  1.00  0.00     0.157 C 
HETATM   11  C2  UNL     1      28.967  18.761   9.195  1.00  0.00     0.157 C 
ENDBRANCH   8   9
ENDBRANCH   1   8
TORSDOF 2
ENDMDL
