MODEL 1
REMARK VINA RESULT: -6.068488015      0.000      0.000
REMARK  2 active torsions:
REMARK  status: ('A' for Active; 'I' for Inactive)
REMARK    1  A    between atoms: C2_2  and  N1_3 
REMARK    2  A    between atoms: C5_12  and  C6_13 
ROOT
HETATM    1  C1  UNL     1      27.802  16.510   7.522  1.00  0.00     0.073 C 
HETATM    2  C2  UNL     1      28.575  17.514   8.337  1.00  0.00     0.218 C 
HETATM    3  C4  UNL     1      29.366  18.505   7.483  1.00  0.00     0.101 C 
HETATM    4  C5  UNL     1      28.315  19.542   7.841  1.00  0.00     0.230 C 
HETATM    5  N6  UNL     1      27.840  18.609   8.863  1.00  0.00    -0.038 N 
ATOM      6  H61 UNL     1      27.971  18.855   9.844  1.00  0.00     0.281 HD
ATOM      7  H62 UNL     1      26.834  18.500   8.992  1.00  0.00     0.281 HD
ENDROOT
BRANCH   2   8
HETATM    8  N1  UNL     1      29.485  16.839   9.231  1.00  0.00    -0.234 N 
HETATM    9  C3  UNL     1      30.712  16.372   9.055  1.00  0.00     0.222 A 
HETATM   10  N2  UNL     1      31.124  15.820  10.227  1.00  0.00    -0.279 N 
HETATM   11  N3  UNL     1      30.136  15.969  11.076  1.00  0.00    -0.227 N 
ATOM     12  H2  UNL     1      32.024  15.378  10.410  1.00  0.00     0.189 HD
HETATM   13  N4  UNL     1      29.148  16.578  10.491  1.00  0.00    -0.223 N 
ATOM     14  H3  UNL     1      30.142  15.656  12.047  1.00  0.00     0.210 HD
ATOM     15  H4  UNL     1      28.258  16.816  10.928  1.00  0.00     0.210 HD
ENDBRANCH   2   8
BRANCH   4  16
HETATM   16  C6  UNL     1      27.380  19.708   6.703  1.00  0.00     0.086 C 
HETATM   17  N5  UNL     1      26.524  20.646   6.697  1.00  0.00    -0.409 N 
ATOM     18  H52 UNL     1      26.492  21.284   7.492  1.00  0.00     0.155 HD
ATOM     19  H51 UNL     1      25.881  20.761   5.913  1.00  0.00     0.155 HD
ENDBRANCH   4  16
TORSDOF 2
ENDMDL
MODEL 2
REMARK VINA RESULT: -5.992700515      1.561      4.660
REMARK  2 active torsions:
REMARK  status: ('A' for Active; 'I' for Inactive)
REMARK    1  A    between atoms: C2_2  and  N1_3 
REMARK    2  A    between atoms: C5_12  and  C6_13 
ROOT
HETATM    1  C1  UNL     1      28.224  16.267   8.085  1.00  0.00     0.073 C 
HETATM    2  C2  UNL     1      29.025  17.541   8.152  1.00  0.00     0.218 C 
HETATM    3  C4  UNL     1      29.643  17.795   9.527  1.00  0.00     0.101 C 
HETATM    4  C5  UNL     1      30.978  17.397   8.921  1.00  0.00     0.230 C 
HETATM    5  N6  UNL     1      30.337  17.499   7.609  1.00  0.00    -0.038 N 
ATOM      6  H61 UNL     1      30.628  18.250   6.984  1.00  0.00     0.281 HD
ATOM      7  H62 UNL     1      30.549  16.789   6.908  1.00  0.00     0.281 HD
ENDROOT
BRANCH   2   8
HETATM    8  N1  UNL     1      28.200  18.671   7.795  1.00  0.00    -0.234 N 
HETATM    9  C3  UNL     1      27.871  19.187   6.620  1.00  0.00     0.222 A 
HETATM   10  N2  UNL     1      27.062  20.257   6.843  1.00  0.00    -0.279 N 
HETATM   11  N3  UNL     1      26.926  20.356   8.143  1.00  0.00    -0.227 N 
ATOM     12  H2  UNL     1      26.643  20.863   6.138  1.00  0.00     0.189 HD
HETATM   13  N4  UNL     1      27.604  19.412   8.724  1.00  0.00    -0.223 N 
ATOM     14  H3  UNL     1      26.373  21.066   8.625  1.00  0.00     0.210 HD
ATOM     15  H4  UNL     1      27.668  19.263   9.732  1.00  0.00     0.210 HD
ENDBRANCH   2   8
BRANCH   4  16
HETATM   16  C6  UNL     1      31.304  16.007   9.320  1.00  0.00     0.086 C 
HETATM   17  N5  UNL     1      32.418  15.731   9.863  1.00  0.00    -0.409 N 
ATOM     18  H52 UNL     1      33.085  16.486  10.020  1.00  0.00     0.155 HD
ATOM     19  H51 UNL     1      32.642  14.775  10.138  1.00  0.00     0.155 HD
ENDBRANCH   4  16
TORSDOF 2
ENDMDL
MODEL 3
REMARK VINA RESULT: -5.981045324      2.254      5.009
REMARK  2 active torsions:
REMARK  status: ('A' for Active; 'I' for Inactive)
REMARK    1  A    between atoms: C2_2  and  N1_3 
REMARK    2  A    between atoms: C5_12  and  C6_13 
ROOT
HETATM    1  C1  UNL     1      28.244  19.522   8.013  1.00  0.00     0.073 C 
HETATM    2  C2  UNL     1      28.167  18.168   7.356  1.00  0.00     0.218 C 
HETATM    3  C4  UNL     1      29.453  17.354   7.494  1.00  0.00     0.101 C 
HETATM    4  C5  UNL     1      28.723  16.510   8.525  1.00  0.00     0.230 C 
HETATM    5  N6  UNL     1      27.486  17.149   8.073  1.00  0.00    -0.038 N 
ATOM      6  H61 UNL     1      26.800  16.581   7.577  1.00  0.00     0.281 HD
ATOM      7  H62 UNL     1      26.799  17.426   8.774  1.00  0.00     0.281 HD
ENDROOT
BRANCH   2   8
HETATM    8  N1  UNL     1      27.852  18.310   5.954  1.00  0.00    -0.234 N 
HETATM    9  C3  UNL     1      26.778  17.978   5.253  1.00  0.00     0.222 A 
HETATM   10  N2  UNL     1      26.996  18.332   3.958  1.00  0.00    -0.279 N 
HETATM   11  N3  UNL     1      28.193  18.865   3.914  1.00  0.00    -0.227 N 
ATOM     12  H2  UNL     1      26.355  18.208   3.175  1.00  0.00     0.189 HD
HETATM   13  N4  UNL     1      28.716  18.857   5.104  1.00  0.00    -0.223 N 
ATOM     14  H3  UNL     1      28.644  19.231   3.076  1.00  0.00     0.210 HD
ATOM     15  H4  UNL     1      29.641  19.212   5.347  1.00  0.00     0.210 HD
ENDBRANCH   2   8
BRANCH   4  16
HETATM   16  C6  UNL     1      29.146  16.922   9.885  1.00  0.00     0.086 C 
HETATM   17  N5  UNL     1      29.531  16.060  10.734  1.00  0.00    -0.409 N 
ATOM     18  H52 UNL     1      29.544  15.077  10.461  1.00  0.00     0.155 HD
ATOM     19  H51 UNL     1      29.822  16.343  11.670  1.00  0.00     0.155 HD
ENDBRANCH   4  16
TORSDOF 2
ENDMDL
MODEL 4
REMARK VINA RESULT: -5.946117294      1.569      1.945
REMARK  2 active torsions:
REMARK  status: ('A' for Active; 'I' for Inactive)
REMARK    1  A    between atoms: C2_2  and  N1_3 
REMARK    2  A    between atoms: C5_12  and  C6_13 
ROOT
HETATM    1  C1  UNL     1      30.279  17.505   6.657  1.00  0.00     0.073 C 
HETATM    2  C2  UNL     1      29.285  16.887   7.607  1.00  0.00     0.218 C 
HETATM    3  C4  UNL     1      28.133  17.823   7.969  1.00  0.00     0.101 C 
HETATM    4  C5  UNL     1      27.258  16.982   7.054  1.00  0.00     0.230 C 
HETATM    5  N6  UNL     1      28.337  15.994   7.044  1.00  0.00    -0.038 N 
ATOM      6  H61 UNL     1      28.180  15.098   7.506  1.00  0.00     0.281 HD
ATOM      7  H62 UNL     1      28.567  15.535   6.162  1.00  0.00     0.281 HD
ENDROOT
BRANCH   2   8
HETATM    8  N1  UNL     1      29.946  16.470   8.820  1.00  0.00    -0.234 N 
HETATM    9  C3  UNL     1      31.171  16.019   9.048  1.00  0.00     0.222 A 
HETATM   10  N2  UNL     1      31.286  15.767  10.380  1.00  0.00    -0.279 N 
HETATM   11  N3  UNL     1      30.129  16.072  10.916  1.00  0.00    -0.227 N 
ATOM     12  H2  UNL     1      32.109  15.411  10.864  1.00  0.00     0.189 HD
HETATM   13  N4  UNL     1      29.319  16.493   9.992  1.00  0.00    -0.223 N 
ATOM     14  H3  UNL     1      29.901  15.991  11.907  1.00  0.00     0.210 HD
ATOM     15  H4  UNL     1      28.355  16.794  10.142  1.00  0.00     0.210 HD
ENDBRANCH   2   8
BRANCH   4  16
HETATM   16  C6  UNL     1      27.079  17.685   5.762  1.00  0.00     0.086 C 
HETATM   17  N5  UNL     1      25.924  18.041   5.371  1.00  0.00    -0.409 N 
ATOM     18  H52 UNL     1      25.122  17.833   5.964  1.00  0.00     0.155 HD
ATOM     19  H51 UNL     1      25.801  18.525   4.481  1.00  0.00     0.155 HD
ENDBRANCH   4  16
TORSDOF 2
ENDMDL
MODEL 5
REMARK VINA RESULT: -5.894045990      1.522      2.075
REMARK  2 active torsions:
REMARK  status: ('A' for Active; 'I' for Inactive)
REMARK    1  A    between atoms: C2_2  and  N1_3 
REMARK    2  A    between atoms: C5_12  and  C6_13 
ROOT
HETATM    1  C1  UNL     1      29.001  18.919   8.280  1.00  0.00     0.073 C 
HETATM    2  C2  UNL     1      29.037  17.433   8.035  1.00  0.00     0.218 C 
HETATM    3  C4  UNL     1      27.648  16.800   7.952  1.00  0.00     0.101 C 
HETATM    4  C5  UNL     1      27.862  16.701   6.451  1.00  0.00     0.230 C 
HETATM    5  N6  UNL     1      29.270  17.012   6.699  1.00  0.00    -0.038 N 
ATOM      6  H61 UNL     1      29.964  16.284   6.534  1.00  0.00     0.281 HD
ATOM      7  H62 UNL     1      29.745  17.654   6.065  1.00  0.00     0.281 HD
ENDROOT
BRANCH   2   8
HETATM    8  N1  UNL     1      29.789  16.772   9.075  1.00  0.00    -0.234 N 
HETATM    9  C3  UNL     1      30.997  16.229   9.081  1.00  0.00     0.222 A 
HETATM   10  N2  UNL     1      31.231  15.737  10.328  1.00  0.00    -0.279 N 
HETATM   11  N3  UNL     1      30.159  15.996  11.036  1.00  0.00    -0.227 N 
ATOM     12  H2  UNL     1      32.074  15.261  10.647  1.00  0.00     0.189 HD
HETATM   13  N4  UNL     1      29.288  16.615  10.296  1.00  0.00    -0.223 N 
ATOM     14  H3  UNL     1      30.029  15.750  12.018  1.00  0.00     0.210 HD
ATOM     15  H4  UNL     1      28.368  16.930  10.604  1.00  0.00     0.210 HD
ENDBRANCH   2   8
BRANCH   4  16
HETATM   16  C6  UNL     1      27.119  17.793   5.776  1.00  0.00     0.086 C 
HETATM   17  N5  UNL     1      26.983  17.801   4.514  1.00  0.00    -0.409 N 
ATOM     18  H52 UNL     1      27.395  17.042   3.972  1.00  0.00     0.155 HD
ATOM     19  H51 UNL     1      26.471  18.552   4.049  1.00  0.00     0.155 HD
ENDBRANCH   4  16
TORSDOF 2
ENDMDL
