MODEL 1
REMARK VINA RESULT: -4.675487656      0.000      0.000
REMARK  3 active torsions:
REMARK  status: ('A' for Active; 'I' for Inactive)
REMARK    1  A    between atoms: N1_1  and  S1_4 
REMARK    2  A    between atoms: S1_4  and  N2_5 
REMARK    3  A    between atoms: N2_5  and  C1_7 
ROOT
HETATM    1  C1  UNL     1      28.497  18.878   5.593  1.00  0.00     0.681 C 
HETATM    2  N3  UNL     1      28.259  19.892   6.387  1.00  0.00    -0.226 N 
ATOM      3  H3  UNL     1      28.421  19.781   7.388  1.00  0.00     0.177 HD
HETATM    4  C2  UNL     1      27.781  21.150   5.904  1.00  0.00     0.139 C 
HETATM    5  C3  UNL     1      26.904  21.076   4.705  1.00  0.00     0.040 C 
HETATM    6  C4  UNL     1      27.181  19.930   3.798  1.00  0.00     0.139 C 
HETATM    7  N4  UNL     1      28.256  19.084   4.208  1.00  0.00    -0.226 N 
ATOM      8  H4  UNL     1      28.848  18.631   3.511  1.00  0.00     0.177 HD
ENDROOT
BRANCH   1   9
HETATM    9  N2  UNL     1      28.967  17.661   6.127  1.00  0.00    -0.146 N 
ATOM     10  H2  UNL     1      29.954  17.416   6.056  1.00  0.00     0.194 HD
BRANCH   9  11
HETATM   11  S1  UNL     1      27.845  16.577   6.909  1.00  0.00     0.074 SA
BRANCH  11  12
HETATM   12  N1  UNL     1      27.416  15.315   5.727  1.00  0.00    -0.356 N 
ATOM     13  H12 UNL     1      26.925  15.470   4.846  1.00  0.00     0.165 HD
ATOM     14  H11 UNL     1      27.750  14.426   6.098  1.00  0.00     0.165 HD
ENDBRANCH  11  12
ENDBRANCH   9  11
ENDBRANCH   1   9
TORSDOF 3
ENDMDL
MODEL 2
REMARK VINA RESULT: -4.656660938      1.875      2.267
REMARK  3 active torsions:
REMARK  status: ('A' for Active; 'I' for Inactive)
REMARK    1  A    between atoms: N1_1  and  S1_4 
REMARK    2  A    between atoms: S1_4  and  N2_5 
REMARK    3  A    between atoms: N2_5  and  C1_7 
ROOT
HETATM    1  C1  UNL     1      27.600  19.893   7.885  1.00  0.00     0.681 C 
HETATM    2  N3  UNL     1      26.662  20.801   7.981  1.00  0.00    -0.226 N 
ATOM      3  H3  UNL     1      26.044  20.785   8.793  1.00  0.00     0.177 HD
HETATM    4  C2  UNL     1      26.470  21.815   6.991  1.00  0.00     0.139 C 
HETATM    5  C3  UNL     1      26.811  21.414   5.601  1.00  0.00     0.040 C 
HETATM    6  C4  UNL     1      27.885  20.390   5.491  1.00  0.00     0.139 C 
HETATM    7  N4  UNL     1      28.434  19.959   6.737  1.00  0.00    -0.226 N 
ATOM      8  H4  UNL     1      29.419  19.700   6.802  1.00  0.00     0.177 HD
ENDROOT
BRANCH   1   9
HETATM    9  N2  UNL     1      27.742  18.917   8.893  1.00  0.00    -0.146 N 
ATOM     10  H2  UNL     1      27.658  19.177   9.876  1.00  0.00     0.194 HD
BRANCH   9  11
HETATM   11  S1  UNL     1      28.064  17.261   8.444  1.00  0.00     0.074 SA
BRANCH  11  12
HETATM   12  N1  UNL     1      26.897  16.822   7.171  1.00  0.00    -0.356 N 
ATOM     13  H12 UNL     1      25.986  17.257   7.026  1.00  0.00     0.165 HD
ATOM     14  H11 UNL     1      27.312  16.065   6.629  1.00  0.00     0.165 HD
ENDBRANCH  11  12
ENDBRANCH   9  11
ENDBRANCH   1   9
TORSDOF 3
ENDMDL
MODEL 3
REMARK VINA RESULT: -4.623233374      2.403      3.132
REMARK  3 active torsions:
REMARK  status: ('A' for Active; 'I' for Inactive)
REMARK    1  A    between atoms: N1_1  and  S1_4 
REMARK    2  A    between atoms: S1_4  and  N2_5 
REMARK    3  A    between atoms: N2_5  and  C1_7 
ROOT
HETATM    1  C1  UNL     1      27.599  19.886   7.895  1.00  0.00     0.681 C 
HETATM    2  N3  UNL     1      26.690  20.827   7.958  1.00  0.00    -0.226 N 
ATOM      3  H3  UNL     1      26.078  20.864   8.774  1.00  0.00     0.177 HD
HETATM    4  C2  UNL     1      26.523  21.805   6.928  1.00  0.00     0.139 C 
HETATM    5  C3  UNL     1      26.842  21.337   5.554  1.00  0.00     0.040 C 
HETATM    6  C4  UNL     1      27.882  20.275   5.480  1.00  0.00     0.139 C 
HETATM    7  N4  UNL     1      28.426  19.878   6.740  1.00  0.00    -0.226 N 
ATOM      8  H4  UNL     1      29.403  19.591   6.809  1.00  0.00     0.177 HD
ENDROOT
BRANCH   1   9
HETATM    9  N2  UNL     1      27.717  18.949   8.941  1.00  0.00    -0.146 N 
ATOM     10  H2  UNL     1      26.948  18.809   9.596  1.00  0.00     0.194 HD
BRANCH   9  11
HETATM   11  S1  UNL     1      29.193  18.030   9.106  1.00  0.00     0.074 SA
BRANCH  11  12
HETATM   12  N1  UNL     1      30.297  18.981  10.130  1.00  0.00    -0.356 N 
ATOM     13  H12 UNL     1      31.176  19.398   9.827  1.00  0.00     0.165 HD
ATOM     14  H11 UNL     1      29.883  19.024  11.062  1.00  0.00     0.165 HD
ENDBRANCH  11  12
ENDBRANCH   9  11
ENDBRANCH   1   9
TORSDOF 3
ENDMDL
MODEL 4
REMARK VINA RESULT: -4.551066806      0.718      1.662
REMARK  3 active torsions:
REMARK  status: ('A' for Active; 'I' for Inactive)
REMARK    1  A    between atoms: N1_1  and  S1_4 
REMARK    2  A    between atoms: S1_4  and  N2_5 
REMARK    3  A    between atoms: N2_5  and  C1_7 
ROOT
HETATM    1  C1  UNL     1      27.827  18.737   5.467  1.00  0.00     0.681 C 
HETATM    2  N3  UNL     1      27.943  19.104   4.216  1.00  0.00    -0.226 N 
ATOM      3  H3  UNL     1      28.632  18.634   3.628  1.00  0.00     0.177 HD
HETATM    4  C2  UNL     1      27.141  20.138   3.640  1.00  0.00     0.139 C 
HETATM    5  C3  UNL     1      26.742  21.224   4.575  1.00  0.00     0.040 C 
HETATM    6  C4  UNL     1      26.600  20.805   5.996  1.00  0.00     0.139 C 
HETATM    7  N4  UNL     1      26.853  19.422   6.243  1.00  0.00    -0.226 N 
ATOM      8  H4  UNL     1      26.337  18.928   6.972  1.00  0.00     0.177 HD
ENDROOT
BRANCH   1   9
HETATM    9  N2  UNL     1      28.646  17.711   5.980  1.00  0.00    -0.146 N 
ATOM     10  H2  UNL     1      29.652  17.722   5.810  1.00  0.00     0.194 HD
BRANCH   9  11
HETATM   11  S1  UNL     1      27.924  16.421   6.909  1.00  0.00     0.074 SA
BRANCH  11  12
HETATM   12  N1  UNL     1      27.316  15.212   5.751  1.00  0.00    -0.356 N 
ATOM     13  H12 UNL     1      26.888  15.417   4.848  1.00  0.00     0.165 HD
ATOM     14  H11 UNL     1      27.476  14.292   6.162  1.00  0.00     0.165 HD
ENDBRANCH  11  12
ENDBRANCH   9  11
ENDBRANCH   1   9
TORSDOF 3
ENDMDL
MODEL 5
REMARK VINA RESULT: -4.539204374      2.340      3.079
REMARK  3 active torsions:
REMARK  status: ('A' for Active; 'I' for Inactive)
REMARK    1  A    between atoms: N1_1  and  S1_4 
REMARK    2  A    between atoms: S1_4  and  N2_5 
REMARK    3  A    between atoms: N2_5  and  C1_7 
ROOT
HETATM    1  C1  UNL     1      27.820  19.607   7.973  1.00  0.00     0.681 C 
HETATM    2  N3  UNL     1      28.429  19.510   6.817  1.00  0.00    -0.226 N 
ATOM      3  H3  UNL     1      29.209  18.860   6.726  1.00  0.00     0.177 HD
HETATM    4  C2  UNL     1      28.040  20.282   5.678  1.00  0.00     0.139 C 
HETATM    5  C3  UNL     1      27.488  21.628   5.983  1.00  0.00     0.040 C 
HETATM    6  C4  UNL     1      26.787  21.735   7.292  1.00  0.00     0.139 C 
HETATM    7  N4  UNL     1      26.739  20.525   8.048  1.00  0.00    -0.226 N 
ATOM      8  H4  UNL     1      25.932  20.321   8.638  1.00  0.00     0.177 HD
ENDROOT
BRANCH   1   9
HETATM    9  N2  UNL     1      28.248  18.821   9.062  1.00  0.00    -0.146 N 
ATOM     10  H2  UNL     1      28.562  19.265   9.925  1.00  0.00     0.194 HD
BRANCH   9  11
HETATM   11  S1  UNL     1      28.237  17.081   8.921  1.00  0.00     0.074 SA
BRANCH  11  12
HETATM   12  N1  UNL     1      29.027  16.427  10.378  1.00  0.00    -0.356 N 
ATOM     13  H12 UNL     1      29.107  15.439  10.617  1.00  0.00     0.165 HD
ATOM     14  H11 UNL     1      29.378  17.221  10.914  1.00  0.00     0.165 HD
ENDBRANCH  11  12
ENDBRANCH   9  11
ENDBRANCH   1   9
TORSDOF 3
ENDMDL
