MODEL 1
REMARK VINA RESULT: -4.798331912      0.000      0.000
REMARK  2 active torsions:
REMARK  status: ('A' for Active; 'I' for Inactive)
REMARK    1  A    between atoms: N1_1  and  C1_4 
REMARK    2  A    between atoms: N2_8  and  N3_9 
ROOT
HETATM    1  C1  UNL     1      26.739  21.065   7.552  1.00  0.00     0.163 A 
HETATM    2  S1  UNL     1      26.940  21.784   6.021  1.00  0.00    -0.063 SA
HETATM    3  C2  UNL     1      28.057  20.669   5.361  1.00  0.00     0.072 A 
HETATM    4  C3  UNL     1      28.208  19.789   6.393  1.00  0.00     0.126 A 
HETATM    5  N2  UNL     1      27.540  19.999   7.492  1.00  0.00    -0.244 N 
ENDROOT
BRANCH   5   6
HETATM    6  N3  UNL     1      27.604  19.156   8.654  1.00  0.00    -0.290 N 
HETATM    7  C4  UNL     1      28.138  18.007   8.593  1.00  0.00     0.207 C 
HETATM    8  N4  UNL     1      28.186  17.204   9.749  1.00  0.00    -0.095 NA
ATOM      9  H3  UNL     1      27.215  19.485   9.537  1.00  0.00     0.188 HD
ENDBRANCH   5   6
BRANCH   1  10
HETATM   10  N1  UNL     1      25.974  21.505   8.505  1.00  0.00    -0.378 N 
ATOM     11  H12 UNL     1      24.958  21.539   8.586  1.00  0.00     0.158 HD
ATOM     12  H11 UNL     1      26.290  21.911   9.386  1.00  0.00     0.158 HD
ENDBRANCH   1  10
TORSDOF 2
ENDMDL
MODEL 2
REMARK VINA RESULT: -4.603493500      1.689      3.394
REMARK  2 active torsions:
REMARK  status: ('A' for Active; 'I' for Inactive)
REMARK    1  A    between atoms: N1_1  and  C1_4 
REMARK    2  A    between atoms: N2_8  and  N3_9 
ROOT
HETATM    1  C1  UNL     1      28.218  19.112   7.985  1.00  0.00     0.163 A 
HETATM    2  S1  UNL     1      29.097  18.369   6.730  1.00  0.00    -0.063 SA
HETATM    3  C2  UNL     1      28.526  19.315   5.424  1.00  0.00     0.072 A 
HETATM    4  C3  UNL     1      27.670  20.168   6.058  1.00  0.00     0.126 A 
HETATM    5  N2  UNL     1      27.521  20.056   7.348  1.00  0.00    -0.244 N 
ENDROOT
BRANCH   5   6
HETATM    6  N3  UNL     1      26.655  20.885   8.140  1.00  0.00    -0.290 N 
HETATM    7  C4  UNL     1      26.059  21.879   7.624  1.00  0.00     0.207 C 
HETATM    8  N4  UNL     1      25.216  22.672   8.426  1.00  0.00    -0.095 NA
ATOM      9  H3  UNL     1      26.519  20.672   9.128  1.00  0.00     0.188 HD
ENDBRANCH   5   6
BRANCH   1  10
HETATM   10  N1  UNL     1      28.260  18.787   9.241  1.00  0.00    -0.378 N 
ATOM     11  H12 UNL     1      27.901  19.263  10.069  1.00  0.00     0.158 HD
ATOM     12  H11 UNL     1      28.688  17.944   9.627  1.00  0.00     0.158 HD
ENDBRANCH   1  10
TORSDOF 2
ENDMDL
MODEL 3
REMARK VINA RESULT: -4.513209028      2.547      3.667
REMARK  2 active torsions:
REMARK  status: ('A' for Active; 'I' for Inactive)
REMARK    1  A    between atoms: N1_1  and  C1_4 
REMARK    2  A    between atoms: N2_8  and  N3_9 
ROOT
HETATM    1  C1  UNL     1      28.122  19.040   7.738  1.00  0.00     0.163 A 
HETATM    2  S1  UNL     1      29.656  18.303   7.691  1.00  0.00    -0.063 SA
HETATM    3  C2  UNL     1      29.813  18.152   5.994  1.00  0.00     0.072 A 
HETATM    4  C3  UNL     1      28.640  18.695   5.560  1.00  0.00     0.126 A 
HETATM    5  N2  UNL     1      27.795  19.139   6.448  1.00  0.00    -0.244 N 
ENDROOT
BRANCH   5   6
HETATM    6  N3  UNL     1      26.525  19.734   6.132  1.00  0.00    -0.290 N 
HETATM    7  C4  UNL     1      25.904  19.414   5.074  1.00  0.00     0.207 C 
HETATM    8  N4  UNL     1      24.662  20.014   4.792  1.00  0.00    -0.095 NA
ATOM      9  H3  UNL     1      26.119  20.421   6.767  1.00  0.00     0.188 HD
ENDBRANCH   5   6
BRANCH   1  10
HETATM   10  N1  UNL     1      27.480  19.395   8.809  1.00  0.00    -0.378 N 
ATOM     11  H12 UNL     1      27.588  19.105   9.781  1.00  0.00     0.158 HD
ATOM     12  H11 UNL     1      26.713  20.066   8.853  1.00  0.00     0.158 HD
ENDBRANCH   1  10
TORSDOF 2
ENDMDL
MODEL 4
REMARK VINA RESULT: -4.470949890      3.373      4.015
REMARK  2 active torsions:
REMARK  status: ('A' for Active; 'I' for Inactive)
REMARK    1  A    between atoms: N1_1  and  C1_4 
REMARK    2  A    between atoms: N2_8  and  N3_9 
ROOT
HETATM    1  C1  UNL     1      28.631  18.952   5.636  1.00  0.00     0.163 A 
HETATM    2  S1  UNL     1      27.767  19.937   6.725  1.00  0.00    -0.063 SA
HETATM    3  C2  UNL     1      28.382  19.298   8.188  1.00  0.00     0.072 A 
HETATM    4  C3  UNL     1      29.239  18.340   7.730  1.00  0.00     0.126 A 
HETATM    5  N2  UNL     1      29.355  18.174   6.442  1.00  0.00    -0.244 N 
ENDROOT
BRANCH   5   6
HETATM    6  N3  UNL     1      30.217  17.204   5.825  1.00  0.00    -0.290 N 
HETATM    7  C4  UNL     1      31.476  17.356   5.834  1.00  0.00     0.207 C 
HETATM    8  N4  UNL     1      32.295  16.389   5.221  1.00  0.00    -0.095 NA
ATOM      9  H3  UNL     1      29.811  16.384   5.374  1.00  0.00     0.188 HD
ENDBRANCH   5   6
BRANCH   1  10
HETATM   10  N1  UNL     1      28.553  19.000   4.341  1.00  0.00    -0.378 N 
ATOM     11  H12 UNL     1      29.191  19.389   3.646  1.00  0.00     0.158 HD
ATOM     12  H11 UNL     1      27.792  18.628   3.773  1.00  0.00     0.158 HD
ENDBRANCH   1  10
TORSDOF 2
ENDMDL
MODEL 5
REMARK VINA RESULT: -4.454299056      1.163      1.178
REMARK  2 active torsions:
REMARK  status: ('A' for Active; 'I' for Inactive)
REMARK    1  A    between atoms: N1_1  and  C1_4 
REMARK    2  A    between atoms: N2_8  and  N3_9 
ROOT
HETATM    1  C1  UNL     1      27.406  20.181   7.244  1.00  0.00     0.163 A 
HETATM    2  S1  UNL     1      27.783  20.629   5.645  1.00  0.00    -0.063 SA
HETATM    3  C2  UNL     1      28.686  19.245   5.200  1.00  0.00     0.072 A 
HETATM    4  C3  UNL     1      28.636  18.505   6.345  1.00  0.00     0.126 A 
HETATM    5  N2  UNL     1      27.990  18.987   7.369  1.00  0.00    -0.244 N 
ENDROOT
BRANCH   5   6
HETATM    6  N3  UNL     1      27.858  18.317   8.633  1.00  0.00    -0.290 N 
HETATM    7  C4  UNL     1      28.087  17.074   8.736  1.00  0.00     0.207 C 
HETATM    8  N4  UNL     1      27.951  16.445   9.988  1.00  0.00    -0.095 NA
ATOM      9  H3  UNL     1      27.578  18.848   9.458  1.00  0.00     0.188 HD
ENDBRANCH   5   6
BRANCH   1  10
HETATM   10  N1  UNL     1      26.713  20.883   8.088  1.00  0.00    -0.378 N 
ATOM     11  H12 UNL     1      25.782  20.733   8.479  1.00  0.00     0.158 HD
ATOM     12  H11 UNL     1      27.009  21.755   8.527  1.00  0.00     0.158 HD
ENDBRANCH   1  10
TORSDOF 2
ENDMDL
