MODEL 1
REMARK VINA RESULT: -4.483610401      0.000      0.000
REMARK  2 active torsions:
REMARK  status: ('A' for Active; 'I' for Inactive)
REMARK    1  A    between atoms: N1_2  and  N2_4 
REMARK    2  A    between atoms: N3_7  and  N4_8 
ROOT
HETATM    1  N2  UNL     1      27.055  20.704   6.975  1.00  0.00    -0.243 N 
HETATM    2  C2  UNL     1      26.890  21.250   5.744  1.00  0.00     0.138 A 
HETATM    3  C3  UNL     1      27.707  20.602   4.850  1.00  0.00     0.138 A 
HETATM    4  N3  UNL     1      28.381  19.654   5.520  1.00  0.00    -0.245 N 
HETATM    5  C4  UNL     1      27.969  19.737   6.796  1.00  0.00     0.217 A 
HETATM    6  S1  UNL     1      28.512  18.775   8.007  1.00  0.00    -0.037 SA
ENDROOT
BRANCH   1   7
HETATM    7  N1  UNL     1      26.417  21.066   8.165  1.00  0.00    -0.332 N 
HETATM    8  C1  UNL     1      25.685  22.302   8.241  1.00  0.00     0.168 C 
ATOM      9  H1  UNL     1      26.470  20.453   8.979  1.00  0.00     0.180 HD
ENDBRANCH   1   7
BRANCH   4  10
HETATM   10  N4  UNL     1      29.328  18.746   5.012  1.00  0.00    -0.337 N 
ATOM     11  H42 UNL     1      29.363  18.385   4.059  1.00  0.00     0.177 HD
ATOM     12  H41 UNL     1      30.111  18.318   5.505  1.00  0.00     0.177 HD
ENDBRANCH   4  10
TORSDOF 2
ENDMDL
MODEL 2
REMARK VINA RESULT: -4.479618102      1.272      1.332
REMARK  2 active torsions:
REMARK  status: ('A' for Active; 'I' for Inactive)
REMARK    1  A    between atoms: N1_2  and  N2_4 
REMARK    2  A    between atoms: N3_7  and  N4_8 
ROOT
HETATM    1  N2  UNL     1      27.581  19.928   7.165  1.00  0.00    -0.243 N 
HETATM    2  C2  UNL     1      27.803  20.208   5.857  1.00  0.00     0.138 A 
HETATM    3  C3  UNL     1      28.592  19.225   5.312  1.00  0.00     0.138 A 
HETATM    4  N3  UNL     1      28.864  18.334   6.277  1.00  0.00    -0.245 N 
HETATM    5  C4  UNL     1      28.243  18.781   7.382  1.00  0.00     0.217 A 
HETATM    6  S1  UNL     1      28.282  18.022   8.834  1.00  0.00    -0.037 SA
ENDROOT
BRANCH   1   7
HETATM    7  N1  UNL     1      26.831  20.668   8.085  1.00  0.00    -0.332 N 
HETATM    8  C1  UNL     1      26.114  21.836   7.652  1.00  0.00     0.168 C 
ATOM      9  H1  UNL     1      26.794  20.378   9.062  1.00  0.00     0.180 HD
ENDBRANCH   1   7
BRANCH   4  10
HETATM   10  N4  UNL     1      29.637  17.162   6.178  1.00  0.00    -0.337 N 
ATOM     11  H42 UNL     1      29.985  16.605   6.958  1.00  0.00     0.177 HD
ATOM     12  H41 UNL     1      29.963  16.697   5.331  1.00  0.00     0.177 HD
ENDBRANCH   4  10
TORSDOF 2
ENDMDL
MODEL 3
REMARK VINA RESULT: -4.376367438      1.774      3.789
REMARK  2 active torsions:
REMARK  status: ('A' for Active; 'I' for Inactive)
REMARK    1  A    between atoms: N1_2  and  N2_4 
REMARK    2  A    between atoms: N3_7  and  N4_8 
ROOT
HETATM    1  N2  UNL     1      28.900  18.424   6.282  1.00  0.00    -0.243 N 
HETATM    2  C2  UNL     1      28.555  19.285   5.292  1.00  0.00     0.138 A 
HETATM    3  C3  UNL     1      27.725  20.251   5.804  1.00  0.00     0.138 A 
HETATM    4  N3  UNL     1      27.550  19.995   7.109  1.00  0.00    -0.245 N 
HETATM    5  C4  UNL     1      28.269  18.890   7.371  1.00  0.00     0.217 A 
HETATM    6  S1  UNL     1      28.373  18.182   8.845  1.00  0.00    -0.037 SA
ENDROOT
BRANCH   1   7
HETATM    7  N1  UNL     1      29.729  17.301   6.190  1.00  0.00    -0.332 N 
HETATM    8  C1  UNL     1      31.148  17.467   6.025  1.00  0.00     0.168 C 
ATOM      9  H1  UNL     1      29.326  16.365   6.241  1.00  0.00     0.180 HD
ENDBRANCH   1   7
BRANCH   4  10
HETATM   10  N4  UNL     1      26.779  20.720   8.036  1.00  0.00    -0.337 N 
ATOM     11  H42 UNL     1      26.604  21.725   8.016  1.00  0.00     0.177 HD
ATOM     12  H41 UNL     1      26.285  20.364   8.854  1.00  0.00     0.177 HD
ENDBRANCH   4  10
TORSDOF 2
ENDMDL
MODEL 4
REMARK VINA RESULT: -4.370453433      2.553      4.449
REMARK  2 active torsions:
REMARK  status: ('A' for Active; 'I' for Inactive)
REMARK    1  A    between atoms: N1_2  and  N2_4 
REMARK    2  A    between atoms: N3_7  and  N4_8 
ROOT
HETATM    1  N2  UNL     1      29.767  17.880   6.243  1.00  0.00    -0.243 N 
HETATM    2  C2  UNL     1      28.992  18.825   5.657  1.00  0.00     0.138 A 
HETATM    3  C3  UNL     1      28.124  19.339   6.589  1.00  0.00     0.138 A 
HETATM    4  N3  UNL     1      28.355  18.716   7.754  1.00  0.00    -0.245 N 
HETATM    5  C4  UNL     1      29.350  17.843   7.518  1.00  0.00     0.217 A 
HETATM    6  S1  UNL     1      29.989  16.843   8.648  1.00  0.00    -0.037 SA
ENDROOT
BRANCH   1   7
HETATM    7  N1  UNL     1      30.778  17.114   5.653  1.00  0.00    -0.332 N 
HETATM    8  C1  UNL     1      31.900  17.762   5.030  1.00  0.00     0.168 C 
ATOM      9  H1  UNL     1      30.718  16.095   5.665  1.00  0.00     0.180 HD
ENDBRANCH   1   7
BRANCH   4  10
HETATM   10  N4  UNL     1      27.706  18.918   8.986  1.00  0.00    -0.337 N 
ATOM     11  H42 UNL     1      26.772  18.589   9.233  1.00  0.00     0.177 HD
ATOM     12  H41 UNL     1      28.057  19.410   9.806  1.00  0.00     0.177 HD
ENDBRANCH   4  10
TORSDOF 2
ENDMDL
MODEL 5
REMARK VINA RESULT: -4.368634412      2.531      4.533
REMARK  2 active torsions:
REMARK  status: ('A' for Active; 'I' for Inactive)
REMARK    1  A    between atoms: N1_2  and  N2_4 
REMARK    2  A    between atoms: N3_7  and  N4_8 
ROOT
HETATM    1  N2  UNL     1      29.255  17.893   6.983  1.00  0.00    -0.243 N 
HETATM    2  C2  UNL     1      29.213  17.672   8.321  1.00  0.00     0.138 A 
HETATM    3  C3  UNL     1      28.367  18.584   8.902  1.00  0.00     0.138 A 
HETATM    4  N3  UNL     1      27.881  19.373   7.932  1.00  0.00    -0.245 N 
HETATM    5  C4  UNL     1      28.432  18.934   6.787  1.00  0.00     0.217 A 
HETATM    6  S1  UNL     1      28.141  19.588   5.312  1.00  0.00    -0.037 SA
ENDROOT
BRANCH   1   7
HETATM    7  N1  UNL     1      29.991  17.193   6.022  1.00  0.00    -0.332 N 
HETATM    8  C1  UNL     1      31.379  17.505   5.812  1.00  0.00     0.168 C 
ATOM      9  H1  UNL     1      29.543  16.461   5.469  1.00  0.00     0.180 HD
ENDBRANCH   1   7
BRANCH   4  10
HETATM   10  N4  UNL     1      26.979  20.444   8.060  1.00  0.00    -0.337 N 
ATOM     11  H42 UNL     1      26.146  20.460   8.649  1.00  0.00     0.177 HD
ATOM     12  H41 UNL     1      27.014  21.352   7.597  1.00  0.00     0.177 HD
ENDBRANCH   4  10
TORSDOF 2
ENDMDL
