MODEL 1
REMARK VINA RESULT: -7.243497809      0.000      0.000
REMARK  10 active torsions:
REMARK  status: ('A' for Active; 'I' for Inactive)
REMARK    1  A    between atoms: C4_4  and  O1_5 
REMARK    2  A    between atoms: O1_5  and  C5_6 
REMARK       I    between atoms: C5_6  and  N1_8 
REMARK    3  A    between atoms: N1_8  and  C6_10 
REMARK    4  A    between atoms: C6_10  and  C7_11 
REMARK    5  A    between atoms: C7_11  and  C8_12 
REMARK    6  A    between atoms: C8_12  and  N2_13 
REMARK    7  A    between atoms: N2_13  and  C9_15 
REMARK    8  A    between atoms: C9_15  and  N3_17 
REMARK    9  A    between atoms: N3_17  and  C10_19 
REMARK   10  A    between atoms: C10_19  and  C11_20 
ROOT
HETATM    1  C1  UNL     1       0.084  27.289  21.773  1.00  0.00     0.010 C 
HETATM    2  C2  UNL     1       0.242  28.817  21.756  1.00  0.00    -0.012 C 
HETATM    3  C3  UNL     1       1.311  29.156  22.724  1.00  0.00     0.038 C 
HETATM    4  C4  UNL     1       0.730  29.054  24.111  1.00  0.00     0.142 C 
HETATM    5  C15 UNL     1      -0.454  29.944  24.334  1.00  0.00    -0.012 C 
HETATM    6  C16 UNL     1      -1.043  29.398  25.659  1.00  0.00     0.018 C 
HETATM    7  C17 UNL     1       0.080  31.299  24.757  1.00  0.00     0.012 C 
HETATM    8  C18 UNL     1       0.035  32.207  23.603  1.00  0.00     0.007 C 
HETATM    9  C19 UNL     1      -1.449  32.545  23.375  1.00  0.00    -0.002 C 
HETATM   10  C20 UNL     1      -1.441  33.594  22.288  1.00  0.00    -0.005 C 
HETATM   11  C21 UNL     1      -0.869  34.844  22.894  1.00  0.00     0.006 C 
HETATM   12  C22 UNL     1      -1.616  36.100  22.719  1.00  0.00     0.007 C 
HETATM   13  C23 UNL     1      -3.039  35.974  22.303  1.00  0.00     0.009 C 
HETATM   14  C24 UNL     1      -3.749  37.281  22.200  1.00  0.00     0.017 C 
HETATM   15  C25 UNL     1      -3.243  38.226  21.181  1.00  0.00     0.023 C 
HETATM   16  C26 UNL     1      -3.691  37.950  23.576  1.00  0.00     0.023 C 
HETATM   17  C27 UNL     1      -5.181  36.987  21.918  1.00  0.00     0.135 C 
HETATM   18  O4  UNL     1      -6.064  37.822  21.947  1.00  0.00    -0.297 OA
HETATM   19  C28 UNL     1      -5.533  35.592  21.585  1.00  0.00     0.080 C 
HETATM   20  C29 UNL     1      -4.514  35.102  20.571  1.00  0.00     0.017 C 
HETATM   21  C30 UNL     1      -3.113  35.100  21.111  1.00  0.00    -0.035 C 
HETATM   22  C31 UNL     1      -2.204  35.539  19.964  1.00  0.00     0.016 C 
HETATM   23  C32 UNL     1      -2.653  33.733  21.473  1.00  0.00    -0.002 C 
HETATM   24  C33 UNL     1      -3.737  32.881  22.160  1.00  0.00     0.006 C 
HETATM   25  C34 UNL     1      -3.150  31.456  22.049  1.00  0.00     0.010 C 
HETATM   26  C35 UNL     1      -2.236  31.326  23.222  1.00  0.00    -0.035 C 
HETATM   27  C36 UNL     1      -3.200  31.229  24.430  1.00  0.00     0.016 C 
HETATM   28  C37 UNL     1      -1.454  30.007  23.244  1.00  0.00     0.009 C 
HETATM   29  C38 UNL     1      -1.048  29.537  21.892  1.00  0.00    -0.009 C 
HETATM   30  C39 UNL     1      -2.077  28.588  21.252  1.00  0.00     0.011 C 
ENDROOT
BRANCH   4  31
HETATM   31  O1  UNL     1       0.440  27.702  24.391  1.00  0.00    -0.298 OA
BRANCH  31  32
HETATM   32  C5  UNL     1       1.315  26.795  25.008  1.00  0.00     0.360 C 
HETATM   33  O2  UNL     1       1.223  25.591  24.667  1.00  0.00    -0.239 OA
HETATM   34  N1  UNL     1       2.227  27.303  25.958  1.00  0.00    -0.337 N 
ATOM     35  H1  UNL     1       2.232  28.300  26.172  1.00  0.00     0.164 HD
BRANCH  34  36
HETATM   36  C6  UNL     1       3.151  26.425  26.629  1.00  0.00     0.126 C 
BRANCH  36  37
HETATM   37  C7  UNL     1       4.466  26.420  25.930  1.00  0.00     0.039 C 
BRANCH  37  38
HETATM   38  C8  UNL     1       5.572  26.057  26.932  1.00  0.00     0.123 C 
BRANCH  38  39
HETATM   39  N2  UNL     1       6.434  27.168  27.144  1.00  0.00    -0.367 N 
ATOM     40  H2  UNL     1       7.430  26.952  27.100  1.00  0.00     0.161 HD
BRANCH  39  41
HETATM   41  C9  UNL     1       6.137  28.499  27.402  1.00  0.00     0.167 C 
HETATM   42  S1  UNL     1       5.668  28.842  28.998  1.00  0.00    -0.041 SA
BRANCH  41  43
HETATM   43  N3  UNL     1       6.164  29.588  26.563  1.00  0.00    -0.365 N 
ATOM     44  H3  UNL     1       6.933  29.551  25.895  1.00  0.00     0.161 HD
BRANCH  43  45
HETATM   45  C10 UNL     1       5.367  30.746  26.415  1.00  0.00     0.154 C 
BRANCH  45  46
HETATM   46  C11 UNL     1       4.076  30.581  25.678  1.00  0.00     0.139 C 
HETATM   47  C12 UNL     1       3.537  31.995  25.419  1.00  0.00     0.035 C 
HETATM   48  C13 UNL     1       2.986  32.342  26.804  1.00  0.00     0.029 C 
HETATM   49  C14 UNL     1       2.882  31.012  27.495  1.00  0.00     0.168 C 
HETATM   50  O3  UNL     1       3.093  30.043  26.529  1.00  0.00    -0.384 OA
ENDBRANCH  45  46
ENDBRANCH  43  45
ENDBRANCH  41  43
ENDBRANCH  39  41
ENDBRANCH  38  39
ENDBRANCH  37  38
ENDBRANCH  36  37
ENDBRANCH  34  36
ENDBRANCH  31  32
ENDBRANCH   4  31
TORSDOF 10
ENDMDL
MODEL 2
REMARK VINA RESULT: -7.124872943      6.549     12.413
REMARK  10 active torsions:
REMARK  status: ('A' for Active; 'I' for Inactive)
REMARK    1  A    between atoms: C4_4  and  O1_5 
REMARK    2  A    between atoms: O1_5  and  C5_6 
REMARK       I    between atoms: C5_6  and  N1_8 
REMARK    3  A    between atoms: N1_8  and  C6_10 
REMARK    4  A    between atoms: C6_10  and  C7_11 
REMARK    5  A    between atoms: C7_11  and  C8_12 
REMARK    6  A    between atoms: C8_12  and  N2_13 
REMARK    7  A    between atoms: N2_13  and  C9_15 
REMARK    8  A    between atoms: C9_15  and  N3_17 
REMARK    9  A    between atoms: N3_17  and  C10_19 
REMARK   10  A    between atoms: C10_19  and  C11_20 
ROOT
HETATM    1  C1  UNL     1      -5.588  38.327  23.322  1.00  0.00     0.010 C 
HETATM    2  C2  UNL     1      -4.518  37.365  23.858  1.00  0.00    -0.012 C 
HETATM    3  C3  UNL     1      -3.291  38.163  24.090  1.00  0.00     0.038 C 
HETATM    4  C4  UNL     1      -2.644  38.419  22.753  1.00  0.00     0.142 C 
HETATM    5  C15 UNL     1      -2.300  37.169  22.002  1.00  0.00    -0.012 C 
HETATM    6  C16 UNL     1      -1.996  37.701  20.579  1.00  0.00     0.018 C 
HETATM    7  C17 UNL     1      -0.929  36.728  22.477  1.00  0.00     0.012 C 
HETATM    8  C18 UNL     1      -1.091  35.625  23.434  1.00  0.00     0.007 C 
HETATM    9  C19 UNL     1      -1.516  34.396  22.611  1.00  0.00    -0.002 C 
HETATM   10  C20 UNL     1      -1.521  33.255  23.600  1.00  0.00    -0.005 C 
HETATM   11  C21 UNL     1      -0.087  32.981  23.956  1.00  0.00     0.006 C 
HETATM   12  C22 UNL     1       0.390  31.590  23.873  1.00  0.00     0.007 C 
HETATM   13  C23 UNL     1      -0.450  30.645  23.090  1.00  0.00     0.009 C 
HETATM   14  C24 UNL     1       0.122  29.271  23.001  1.00  0.00     0.017 C 
HETATM   15  C25 UNL     1       0.259  28.532  24.275  1.00  0.00     0.023 C 
HETATM   16  C26 UNL     1       1.496  29.382  22.336  1.00  0.00     0.023 C 
HETATM   17  C27 UNL     1      -0.747  28.487  22.080  1.00  0.00     0.135 C 
HETATM   18  O4  UNL     1      -0.464  27.384  21.655  1.00  0.00    -0.297 OA
HETATM   19  C28 UNL     1      -2.024  29.103  21.667  1.00  0.00     0.080 C 
HETATM   20  C29 UNL     1      -2.675  29.667  22.917  1.00  0.00     0.017 C 
HETATM   21  C30 UNL     1      -1.847  30.736  23.570  1.00  0.00    -0.035 C 
HETATM   22  C31 UNL     1      -1.997  30.543  25.078  1.00  0.00     0.016 C 
HETATM   23  C32 UNL     1      -2.374  32.100  23.297  1.00  0.00    -0.002 C 
HETATM   24  C33 UNL     1      -2.863  32.292  21.849  1.00  0.00     0.006 C 
HETATM   25  C34 UNL     1      -3.697  33.589  21.956  1.00  0.00     0.010 C 
HETATM   26  C35 UNL     1      -2.703  34.694  21.818  1.00  0.00    -0.035 C 
HETATM   27  C36 UNL     1      -2.302  34.642  20.323  1.00  0.00     0.016 C 
HETATM   28  C37 UNL     1      -3.312  36.089  22.007  1.00  0.00     0.009 C 
HETATM   29  C38 UNL     1      -4.380  36.133  23.042  1.00  0.00    -0.009 C 
HETATM   30  C39 UNL     1      -5.788  35.908  22.463  1.00  0.00     0.011 C 
ENDROOT
BRANCH   4  31
HETATM   31  O1  UNL     1      -3.469  39.281  22.000  1.00  0.00    -0.298 OA
BRANCH  31  32
HETATM   32  C5  UNL     1      -3.330  40.675  21.924  1.00  0.00     0.360 C 
HETATM   33  O2  UNL     1      -2.166  41.128  21.803  1.00  0.00    -0.239 OA
HETATM   34  N1  UNL     1      -4.504  41.458  21.989  1.00  0.00    -0.337 N 
ATOM     35  H1  UNL     1      -5.411  41.002  22.087  1.00  0.00     0.164 HD
BRANCH  34  36
HETATM   36  C6  UNL     1      -4.430  42.895  21.918  1.00  0.00     0.126 C 
BRANCH  36  37
HETATM   37  C7  UNL     1      -5.634  43.509  22.542  1.00  0.00     0.039 C 
BRANCH  37  38
HETATM   38  C8  UNL     1      -5.268  44.894  23.097  1.00  0.00     0.123 C 
BRANCH  38  39
HETATM   39  N2  UNL     1      -5.754  45.041  24.425  1.00  0.00    -0.367 N 
ATOM     40  H2  UNL     1      -5.050  45.313  25.112  1.00  0.00     0.161 HD
BRANCH  39  41
HETATM   41  C9  UNL     1      -7.033  44.873  24.938  1.00  0.00     0.167 C 
HETATM   42  S1  UNL     1      -8.165  46.046  24.462  1.00  0.00    -0.041 SA
BRANCH  41  43
HETATM   43  N3  UNL     1      -7.527  43.901  25.775  1.00  0.00    -0.365 N 
ATOM     44  H3  UNL     1      -7.060  43.888  26.682  1.00  0.00     0.161 HD
BRANCH  43  45
HETATM   45  C10 UNL     1      -8.535  42.916  25.665  1.00  0.00     0.154 C 
BRANCH  45  46
HETATM   46  C11 UNL     1      -8.611  42.177  24.366  1.00  0.00     0.139 C 
HETATM   47  C12 UNL     1     -10.029  41.596  24.276  1.00  0.00     0.035 C 
HETATM   48  C13 UNL     1      -9.904  40.405  25.229  1.00  0.00     0.029 C 
HETATM   49  C14 UNL     1      -8.421  40.212  25.372  1.00  0.00     0.168 C 
HETATM   50  O3  UNL     1      -7.820  41.016  24.419  1.00  0.00    -0.384 OA
ENDBRANCH  45  46
ENDBRANCH  43  45
ENDBRANCH  41  43
ENDBRANCH  39  41
ENDBRANCH  38  39
ENDBRANCH  37  38
ENDBRANCH  36  37
ENDBRANCH  34  36
ENDBRANCH  31  32
ENDBRANCH   4  31
TORSDOF 10
ENDMDL
MODEL 3
REMARK VINA RESULT: -6.991730510      4.638     10.100
REMARK  10 active torsions:
REMARK  status: ('A' for Active; 'I' for Inactive)
REMARK    1  A    between atoms: C4_4  and  O1_5 
REMARK    2  A    between atoms: O1_5  and  C5_6 
REMARK       I    between atoms: C5_6  and  N1_8 
REMARK    3  A    between atoms: N1_8  and  C6_10 
REMARK    4  A    between atoms: C6_10  and  C7_11 
REMARK    5  A    between atoms: C7_11  and  C8_12 
REMARK    6  A    between atoms: C8_12  and  N2_13 
REMARK    7  A    between atoms: N2_13  and  C9_15 
REMARK    8  A    between atoms: C9_15  and  N3_17 
REMARK    9  A    between atoms: N3_17  and  C10_19 
REMARK   10  A    between atoms: C10_19  and  C11_20 
ROOT
HETATM    1  C1  UNL     1      -2.196  35.178  23.655  1.00  0.00     0.010 C 
HETATM    2  C2  UNL     1      -0.921  34.330  23.529  1.00  0.00    -0.012 C 
HETATM    3  C3  UNL     1      -1.057  33.520  22.297  1.00  0.00     0.038 C 
HETATM    4  C4  UNL     1      -1.998  32.380  22.592  1.00  0.00     0.142 C 
HETATM    5  C15 UNL     1      -1.549  31.508  23.724  1.00  0.00    -0.012 C 
HETATM    6  C16 UNL     1      -2.818  30.673  24.032  1.00  0.00     0.018 C 
HETATM    7  C17 UNL     1      -0.616  30.464  23.139  1.00  0.00     0.012 C 
HETATM    8  C18 UNL     1       0.770  30.855  23.425  1.00  0.00     0.007 C 
HETATM    9  C19 UNL     1       0.987  30.618  24.930  1.00  0.00    -0.002 C 
HETATM   10  C20 UNL     1       2.457  30.882  25.153  1.00  0.00    -0.005 C 
HETATM   11  C21 UNL     1       3.205  29.758  24.494  1.00  0.00     0.006 C 
HETATM   12  C22 UNL     1       4.233  29.058  25.282  1.00  0.00     0.007 C 
HETATM   13  C23 UNL     1       4.185  29.249  26.756  1.00  0.00     0.009 C 
HETATM   14  C24 UNL     1       5.217  28.468  27.495  1.00  0.00     0.017 C 
HETATM   15  C25 UNL     1       6.628  28.813  27.214  1.00  0.00     0.023 C 
HETATM   16  C26 UNL     1       4.992  26.987  27.178  1.00  0.00     0.023 C 
HETATM   17  C27 UNL     1       4.956  28.649  28.949  1.00  0.00     0.135 C 
HETATM   18  O4  UNL     1       5.508  28.008  29.822  1.00  0.00    -0.297 OA
HETATM   19  C28 UNL     1       3.963  29.671  29.336  1.00  0.00     0.080 C 
HETATM   20  C29 UNL     1       4.267  30.920  28.528  1.00  0.00     0.017 C 
HETATM   21  C30 UNL     1       4.137  30.700  27.049  1.00  0.00    -0.035 C 
HETATM   22  C31 UNL     1       5.259  31.501  26.390  1.00  0.00     0.016 C 
HETATM   23  C32 UNL     1       2.877  31.272  26.504  1.00  0.00    -0.002 C 
HETATM   24  C33 UNL     1       1.657  31.052  27.418  1.00  0.00     0.006 C 
HETATM   25  C34 UNL     1       0.633  32.055  26.840  1.00  0.00     0.010 C 
HETATM   26  C35 UNL     1      -0.020  31.328  25.712  1.00  0.00    -0.035 C 
HETATM   27  C36 UNL     1      -0.905  30.272  26.419  1.00  0.00     0.016 C 
HETATM   28  C37 UNL     1      -1.008  32.193  24.920  1.00  0.00     0.009 C 
HETATM   29  C38 UNL     1      -0.575  33.610  24.779  1.00  0.00    -0.009 C 
HETATM   30  C39 UNL     1      -1.116  34.517  25.898  1.00  0.00     0.011 C 
ENDROOT
BRANCH   4  31
HETATM   31  O1  UNL     1      -3.294  32.896  22.799  1.00  0.00    -0.298 OA
BRANCH  31  32
HETATM   32  C5  UNL     1      -4.173  33.313  21.788  1.00  0.00     0.360 C 
HETATM   33  O2  UNL     1      -4.134  32.686  20.702  1.00  0.00    -0.239 OA
HETATM   34  N1  UNL     1      -5.028  34.401  22.068  1.00  0.00    -0.337 N 
ATOM     35  H1  UNL     1      -4.992  34.851  22.982  1.00  0.00     0.164 HD
BRANCH  34  36
HETATM   36  C6  UNL     1      -5.953  34.880  21.073  1.00  0.00     0.126 C 
BRANCH  36  37
HETATM   37  C7  UNL     1      -5.372  36.035  20.334  1.00  0.00     0.039 C 
BRANCH  37  38
HETATM   38  C8  UNL     1      -4.742  37.013  21.336  1.00  0.00     0.123 C 
BRANCH  38  39
HETATM   39  N2  UNL     1      -3.396  37.296  20.975  1.00  0.00    -0.367 N 
ATOM     40  H2  UNL     1      -2.917  36.542  20.480  1.00  0.00     0.161 HD
BRANCH  39  41
HETATM   41  C9  UNL     1      -2.628  38.432  21.187  1.00  0.00     0.167 C 
HETATM   42  S1  UNL     1      -3.487  39.803  21.702  1.00  0.00    -0.041 SA
BRANCH  41  43
HETATM   43  N3  UNL     1      -1.273  38.622  21.042  1.00  0.00    -0.365 N 
ATOM     44  H3  UNL     1      -0.947  38.425  20.097  1.00  0.00     0.161 HD
BRANCH  43  45
HETATM   45  C10 UNL     1      -0.231  39.027  21.907  1.00  0.00     0.154 C 
BRANCH  45  46
HETATM   46  C11 UNL     1       0.268  38.006  22.879  1.00  0.00     0.139 C 
HETATM   47  C12 UNL     1      -0.490  38.244  24.192  1.00  0.00     0.035 C 
HETATM   48  C13 UNL     1       0.251  39.473  24.724  1.00  0.00     0.029 C 
HETATM   49  C14 UNL     1       1.527  39.495  23.932  1.00  0.00     0.168 C 
HETATM   50  O3  UNL     1       1.594  38.292  23.250  1.00  0.00    -0.384 OA
ENDBRANCH  45  46
ENDBRANCH  43  45
ENDBRANCH  41  43
ENDBRANCH  39  41
ENDBRANCH  38  39
ENDBRANCH  37  38
ENDBRANCH  36  37
ENDBRANCH  34  36
ENDBRANCH  31  32
ENDBRANCH   4  31
TORSDOF 10
ENDMDL
MODEL 4
REMARK VINA RESULT: -6.848439012      7.349      9.729
REMARK  10 active torsions:
REMARK  status: ('A' for Active; 'I' for Inactive)
REMARK    1  A    between atoms: C4_4  and  O1_5 
REMARK    2  A    between atoms: O1_5  and  C5_6 
REMARK       I    between atoms: C5_6  and  N1_8 
REMARK    3  A    between atoms: N1_8  and  C6_10 
REMARK    4  A    between atoms: C6_10  and  C7_11 
REMARK    5  A    between atoms: C7_11  and  C8_12 
REMARK    6  A    between atoms: C8_12  and  N2_13 
REMARK    7  A    between atoms: N2_13  and  C9_15 
REMARK    8  A    between atoms: C9_15  and  N3_17 
REMARK    9  A    between atoms: N3_17  and  C10_19 
REMARK   10  A    between atoms: C10_19  and  C11_20 
ROOT
HETATM    1  C1  UNL     1      -2.557  35.546  20.884  1.00  0.00     0.010 C 
HETATM    2  C2  UNL     1      -3.888  36.053  20.309  1.00  0.00    -0.012 C 
HETATM    3  C3  UNL     1      -4.379  37.115  21.217  1.00  0.00     0.038 C 
HETATM    4  C4  UNL     1      -4.957  36.451  22.440  1.00  0.00     0.142 C 
HETATM    5  C15 UNL     1      -6.068  35.493  22.134  1.00  0.00    -0.012 C 
HETATM    6  C16 UNL     1      -6.226  34.721  23.469  1.00  0.00     0.018 C 
HETATM    7  C17 UNL     1      -7.351  36.302  22.081  1.00  0.00     0.012 C 
HETATM    8  C18 UNL     1      -7.707  36.533  20.675  1.00  0.00     0.007 C 
HETATM    9  C19 UNL     1      -8.199  35.182  20.125  1.00  0.00    -0.002 C 
HETATM   10  C20 UNL     1      -8.699  35.493  18.734  1.00  0.00    -0.005 C 
HETATM   11  C21 UNL     1      -9.954  36.304  18.893  1.00  0.00     0.006 C 
HETATM   12  C22 UNL     1     -11.149  35.877  18.148  1.00  0.00     0.007 C 
HETATM   13  C23 UNL     1     -11.139  34.490  17.613  1.00  0.00     0.009 C 
HETATM   14  C24 UNL     1     -12.402  34.107  16.919  1.00  0.00     0.017 C 
HETATM   15  C25 UNL     1     -12.741  34.875  15.700  1.00  0.00     0.023 C 
HETATM   16  C26 UNL     1     -13.545  34.242  17.929  1.00  0.00     0.023 C 
HETATM   17  C27 UNL     1     -12.297  32.665  16.568  1.00  0.00     0.135 C 
HETATM   18  O4  UNL     1     -13.224  31.998  16.150  1.00  0.00    -0.297 OA
HETATM   19  C28 UNL     1     -10.980  32.019  16.745  1.00  0.00     0.080 C 
HETATM   20  C29 UNL     1      -9.940  32.952  16.151  1.00  0.00     0.017 C 
HETATM   21  C30 UNL     1      -9.890  34.282  16.846  1.00  0.00    -0.035 C 
HETATM   22  C31 UNL     1      -9.648  35.331  15.762  1.00  0.00     0.016 C 
HETATM   23  C32 UNL     1      -8.724  34.393  17.763  1.00  0.00    -0.002 C 
HETATM   24  C33 UNL     1      -8.445  33.105  18.560  1.00  0.00     0.006 C 
HETATM   25  C34 UNL     1      -7.012  33.352  19.086  1.00  0.00     0.010 C 
HETATM   26  C35 UNL     1      -7.196  34.144  20.338  1.00  0.00    -0.035 C 
HETATM   27  C36 UNL     1      -7.779  33.118  21.340  1.00  0.00     0.016 C 
HETATM   28  C37 UNL     1      -5.876  34.598  20.972  1.00  0.00     0.009 C 
HETATM   29  C38 UNL     1      -4.832  34.959  19.974  1.00  0.00    -0.009 C 
HETATM   30  C39 UNL     1      -3.921  33.776  19.604  1.00  0.00     0.011 C 
ENDROOT
BRANCH   4  31
HETATM   31  O1  UNL     1      -3.915  35.841  23.169  1.00  0.00    -0.298 OA
BRANCH  31  32
HETATM   32  C5  UNL     1      -3.327  36.359  24.333  1.00  0.00     0.360 C 
HETATM   33  O2  UNL     1      -2.407  37.198  24.184  1.00  0.00    -0.239 OA
HETATM   34  N1  UNL     1      -3.814  35.899  25.576  1.00  0.00    -0.337 N 
ATOM     35  H1  UNL     1      -4.569  35.214  25.602  1.00  0.00     0.164 HD
BRANCH  34  36
HETATM   36  C6  UNL     1      -3.253  36.390  26.809  1.00  0.00     0.126 C 
BRANCH  36  37
HETATM   37  C7  UNL     1      -4.219  37.288  27.500  1.00  0.00     0.039 C 
BRANCH  37  38
HETATM   38  C8  UNL     1      -3.605  38.689  27.633  1.00  0.00     0.123 C 
BRANCH  38  39
HETATM   39  N2  UNL     1      -2.564  38.866  26.679  1.00  0.00    -0.367 N 
ATOM     40  H2  UNL     1      -2.864  38.830  25.705  1.00  0.00     0.161 HD
BRANCH  39  41
HETATM   41  C9  UNL     1      -1.205  39.081  26.862  1.00  0.00     0.167 C 
HETATM   42  S1  UNL     1      -0.777  39.820  28.330  1.00  0.00    -0.041 SA
BRANCH  41  43
HETATM   43  N3  UNL     1      -0.146  38.789  26.034  1.00  0.00    -0.365 N 
ATOM     44  H3  UNL     1       0.315  37.913  26.279  1.00  0.00     0.161 HD
BRANCH  43  45
HETATM   45  C10 UNL     1       0.447  39.427  24.921  1.00  0.00     0.154 C 
BRANCH  45  46
HETATM   46  C11 UNL     1       1.475  38.642  24.169  1.00  0.00     0.139 C 
HETATM   47  C12 UNL     1       2.223  39.643  23.277  1.00  0.00     0.035 C 
HETATM   48  C13 UNL     1       1.198  39.842  22.159  1.00  0.00     0.029 C 
HETATM   49  C14 UNL     1       0.266  38.674  22.311  1.00  0.00     0.168 C 
HETATM   50  O3  UNL     1       0.854  37.811  23.219  1.00  0.00    -0.384 OA
ENDBRANCH  45  46
ENDBRANCH  43  45
ENDBRANCH  41  43
ENDBRANCH  39  41
ENDBRANCH  38  39
ENDBRANCH  37  38
ENDBRANCH  36  37
ENDBRANCH  34  36
ENDBRANCH  31  32
ENDBRANCH   4  31
TORSDOF 10
ENDMDL
MODEL 5
REMARK VINA RESULT: -6.769329890      6.597     12.526
REMARK  10 active torsions:
REMARK  status: ('A' for Active; 'I' for Inactive)
REMARK    1  A    between atoms: C4_4  and  O1_5 
REMARK    2  A    between atoms: O1_5  and  C5_6 
REMARK       I    between atoms: C5_6  and  N1_8 
REMARK    3  A    between atoms: N1_8  and  C6_10 
REMARK    4  A    between atoms: C6_10  and  C7_11 
REMARK    5  A    between atoms: C7_11  and  C8_12 
REMARK    6  A    between atoms: C8_12  and  N2_13 
REMARK    7  A    between atoms: N2_13  and  C9_15 
REMARK    8  A    between atoms: C9_15  and  N3_17 
REMARK    9  A    between atoms: N3_17  and  C10_19 
REMARK   10  A    between atoms: C10_19  and  C11_20 
ROOT
HETATM    1  C1  UNL     1      -0.160  39.613  23.299  1.00  0.00     0.010 C 
HETATM    2  C2  UNL     1       0.041  38.143  22.898  1.00  0.00    -0.012 C 
HETATM    3  C3  UNL     1      -0.794  37.900  21.699  1.00  0.00     0.038 C 
HETATM    4  C4  UNL     1      -2.226  37.766  22.149  1.00  0.00     0.142 C 
HETATM    5  C15 UNL     1      -2.442  36.669  23.146  1.00  0.00    -0.012 C 
HETATM    6  C16 UNL     1      -3.864  36.975  23.682  1.00  0.00     0.018 C 
HETATM    7  C17 UNL     1      -2.667  35.391  22.360  1.00  0.00     0.012 C 
HETATM    8  C18 UNL     1      -1.426  34.605  22.371  1.00  0.00     0.007 C 
HETATM    9  C19 UNL     1      -1.282  34.041  23.796  1.00  0.00    -0.002 C 
HETATM   10  C20 UNL     1      -0.088  33.120  23.726  1.00  0.00    -0.005 C 
HETATM   11  C21 UNL     1      -0.502  31.933  22.902  1.00  0.00     0.006 C 
HETATM   12  C22 UNL     1      -0.248  30.591  23.450  1.00  0.00     0.007 C 
HETATM   13  C23 UNL     1       0.034  30.511  24.908  1.00  0.00     0.009 C 
HETATM   14  C24 UNL     1       0.225  29.118  25.405  1.00  0.00     0.017 C 
HETATM   15  C25 UNL     1       1.382  28.377  24.855  1.00  0.00     0.023 C 
HETATM   16  C26 UNL     1      -1.057  28.339  25.104  1.00  0.00     0.023 C 
HETATM   17  C27 UNL     1       0.357  29.188  26.886  1.00  0.00     0.135 C 
HETATM   18  O4  UNL     1       0.350  28.216  27.615  1.00  0.00    -0.297 OA
HETATM   19  C28 UNL     1       0.502  30.529  27.490  1.00  0.00     0.080 C 
HETATM   20  C29 UNL     1       1.534  31.281  26.669  1.00  0.00     0.017 C 
HETATM   21  C30 UNL     1       1.111  31.471  25.240  1.00  0.00    -0.035 C 
HETATM   22  C31 UNL     1       2.370  31.307  24.389  1.00  0.00     0.016 C 
HETATM   23  C32 UNL     1       0.637  32.855  24.974  1.00  0.00    -0.002 C 
HETATM   24  C33 UNL     1      -0.226  33.438  26.108  1.00  0.00     0.006 C 
HETATM   25  C34 UNL     1      -0.228  34.947  25.773  1.00  0.00     0.010 C 
HETATM   26  C35 UNL     1      -1.331  35.117  24.781  1.00  0.00    -0.035 C 
HETATM   27  C36 UNL     1      -2.616  34.930  25.625  1.00  0.00     0.016 C 
HETATM   28  C37 UNL     1      -1.437  36.542  24.225  1.00  0.00     0.009 C 
HETATM   29  C38 UNL     1      -0.118  37.203  24.035  1.00  0.00    -0.009 C 
HETATM   30  C39 UNL     1       0.327  38.019  25.262  1.00  0.00     0.011 C 
ENDROOT
BRANCH   4  31
HETATM   31  O1  UNL     1      -2.678  39.015  22.625  1.00  0.00    -0.298 OA
BRANCH  31  32
HETATM   32  C5  UNL     1      -3.422  39.945  21.884  1.00  0.00     0.360 C 
HETATM   33  O2  UNL     1      -4.256  39.488  21.066  1.00  0.00    -0.239 OA
HETATM   34  N1  UNL     1      -3.177  41.316  22.113  1.00  0.00    -0.337 N 
ATOM     35  H1  UNL     1      -2.478  41.597  22.801  1.00  0.00     0.164 HD
BRANCH  34  36
HETATM   36  C6  UNL     1      -3.906  42.323  21.385  1.00  0.00     0.126 C 
BRANCH  36  37
HETATM   37  C7  UNL     1      -5.057  42.817  22.189  1.00  0.00     0.039 C 
BRANCH  37  38
HETATM   38  C8  UNL     1      -4.821  44.288  22.563  1.00  0.00     0.123 C 
BRANCH  38  39
HETATM   39  N2  UNL     1      -6.056  44.932  22.848  1.00  0.00    -0.367 N 
ATOM     40  H2  UNL     1      -6.509  45.365  22.043  1.00  0.00     0.161 HD
BRANCH  39  41
HETATM   41  C9  UNL     1      -6.744  45.067  24.046  1.00  0.00     0.167 C 
HETATM   42  S1  UNL     1      -5.875  45.806  25.304  1.00  0.00    -0.041 SA
BRANCH  41  43
HETATM   43  N3  UNL     1      -8.026  44.692  24.374  1.00  0.00    -0.365 N 
ATOM     44  H3  UNL     1      -8.729  45.333  24.008  1.00  0.00     0.161 HD
BRANCH  43  45
HETATM   45  C10 UNL     1      -8.590  43.620  25.104  1.00  0.00     0.154 C 
BRANCH  45  46
HETATM   46  C11 UNL     1      -8.480  42.261  24.489  1.00  0.00     0.139 C 
HETATM   47  C12 UNL     1      -9.903  41.687  24.440  1.00  0.00     0.035 C 
HETATM   48  C13 UNL     1     -10.090  41.280  25.904  1.00  0.00     0.029 C 
HETATM   49  C14 UNL     1      -8.692  41.258  26.454  1.00  0.00     0.168 C 
HETATM   50  O3  UNL     1      -7.836  41.376  25.372  1.00  0.00    -0.384 OA
ENDBRANCH  45  46
ENDBRANCH  43  45
ENDBRANCH  41  43
ENDBRANCH  39  41
ENDBRANCH  38  39
ENDBRANCH  37  38
ENDBRANCH  36  37
ENDBRANCH  34  36
ENDBRANCH  31  32
ENDBRANCH   4  31
TORSDOF 10
ENDMDL
