MODEL 1
REMARK VINA RESULT: -8.229961530      0.000      0.000
REMARK  10 active torsions:
REMARK  status: ('A' for Active; 'I' for Inactive)
REMARK    1  A    between atoms: C2_2  and  C3_3 
REMARK    2  A    between atoms: C3_3  and  O1_4 
REMARK    3  A    between atoms: O1_4  and  C4_5 
REMARK    4  A    between atoms: C5_6  and  O2_7 
REMARK    5  A    between atoms: C6_9  and  C7_10 
REMARK    6  A    between atoms: C14_17  and  O3_18 
REMARK    7  A    between atoms: C15_20  and  O4_21 
REMARK    8  A    between atoms: C23_30  and  O5_31 
REMARK    9  A    between atoms: O5_31  and  C24_32 
REMARK   10  A    between atoms: C30_39  and  N2_40 
ROOT
HETATM    1  C24 UNL     1       1.075  32.557  25.340  1.00  0.00     0.122 C 
HETATM    2  C25 UNL     1       1.814  32.025  24.129  1.00  0.00     0.032 C 
HETATM    3  C26 UNL     1       2.567  30.809  24.454  1.00  0.00     0.009 C 
HETATM    4  C27 UNL     1       1.859  29.534  24.686  1.00  0.00     0.013 C 
HETATM    5  C28 UNL     1       0.861  29.242  23.595  1.00  0.00     0.128 C 
HETATM    6  C29 UNL     1       1.577  28.865  22.357  1.00  0.00     0.066 C 
HETATM    7  N1  UNL     1       2.165  28.588  21.377  1.00  0.00    -0.197 NA
HETATM    8  C30 UNL     1      -0.187  28.274  23.903  1.00  0.00     0.208 C 
HETATM    9  C35 UNL     1       0.214  27.358  25.070  1.00  0.00     0.036 C 
HETATM   10  C36 UNL     1       0.387  28.233  26.288  1.00  0.00     0.011 C 
HETATM   11  C37 UNL     1       1.404  29.281  26.085  1.00  0.00    -0.039 C 
HETATM   12  C38 UNL     1       2.654  28.782  26.850  1.00  0.00     0.015 C 
HETATM   13  C39 UNL     1       1.094  30.589  26.758  1.00  0.00     0.012 C 
HETATM   14  C40 UNL     1       0.231  31.538  26.024  1.00  0.00     0.033 C 
ENDROOT
BRANCH   8  15
HETATM   15  N2  UNL     1      -0.665  27.447  22.860  1.00  0.00    -0.065 N 
HETATM   16  C31 UNL     1       0.111  26.215  22.641  1.00  0.00     0.273 C 
HETATM   17  C32 UNL     1      -2.051  26.997  23.121  1.00  0.00     0.239 A 
HETATM   18  C33 UNL     1      -2.517  27.473  21.792  1.00  0.00     0.056 A 
HETATM   19  C34 UNL     1      -1.108  27.992  21.634  1.00  0.00     0.239 A 
ENDBRANCH   8  15
BRANCH   1  20
HETATM   20  O5  UNL     1       0.503  33.741  25.030  1.00  0.00    -0.380 OA
BRANCH  20  21
HETATM   21  C23 UNL     1      -0.811  33.716  24.541  1.00  0.00     0.127 C 
HETATM   22  C22 UNL     1      -0.695  33.218  23.144  1.00  0.00     0.033 C 
HETATM   23  C21 UNL     1      -1.801  33.678  22.306  1.00  0.00     0.009 C 
HETATM   24  C20 UNL     1      -2.303  35.102  22.394  1.00  0.00     0.008 C 
HETATM   25  C10 UNL     1      -2.530  35.520  23.787  1.00  0.00     0.001 C 
HETATM   26  C18 UNL     1      -3.475  35.098  21.430  1.00  0.00    -0.033 C 
HETATM   27  C6  UNL     1      -2.630  36.909  24.248  1.00  0.00    -0.011 C 
HETATM   28  C11 UNL     1      -3.603  34.599  24.302  1.00  0.00     0.016 C 
HETATM   29  C41 UNL     1      -1.200  35.106  24.478  1.00  0.00     0.034 C 
HETATM   30  C5  UNL     1      -1.504  37.743  23.750  1.00  0.00     0.102 C 
HETATM   31  C4  UNL     1      -0.305  37.260  23.596  1.00  0.00     0.080 C 
HETATM   32  C42 UNL     1      -0.027  35.874  23.904  1.00  0.00     0.075 C 
HETATM   33  C12 UNL     1      -4.782  34.367  23.472  1.00  0.00     0.009 C 
HETATM   34  C13 UNL     1      -4.794  34.832  22.051  1.00  0.00     0.025 C 
HETATM   35  C14 UNL     1      -5.721  33.921  21.305  1.00  0.00     0.151 C 
HETATM   36  C15 UNL     1      -5.780  34.075  19.831  1.00  0.00     0.147 C 
HETATM   37  C16 UNL     1      -4.407  34.217  19.284  1.00  0.00     0.035 C 
HETATM   38  C17 UNL     1      -3.312  34.033  20.339  1.00  0.00     0.012 C 
HETATM   39  C19 UNL     1      -3.441  36.336  20.530  1.00  0.00     0.016 C 
BRANCH  27  40
HETATM   40  C7  UNL     1      -3.811  37.735  24.478  1.00  0.00    -0.078 C 
HETATM   41  C8  UNL     1      -4.896  37.987  23.552  1.00  0.00     0.043 C 
HETATM   42  C9  UNL     1      -4.310  37.867  25.904  1.00  0.00     0.043 C 
ENDBRANCH  27  40
BRANCH  30  43
HETATM   43  O2  UNL     1      -1.719  39.099  23.434  1.00  0.00    -0.358 OA
ATOM     44  H2  UNL     1      -1.443  39.409  22.580  1.00  0.00     0.217 HD
ENDBRANCH  30  43
BRANCH  31  45
HETATM   45  O1  UNL     1       0.706  38.076  23.137  1.00  0.00    -0.353 OA
BRANCH  45  46
HETATM   46  C3  UNL     1       1.501  38.708  24.133  1.00  0.00     0.175 C 
BRANCH  46  47
HETATM   47  C2  UNL     1       2.578  39.492  23.411  1.00  0.00     0.022 C 
HETATM   48  C1  UNL     1       1.977  39.874  22.059  1.00  0.00     0.007 C 
ENDBRANCH  46  47
ENDBRANCH  45  46
ENDBRANCH  31  45
BRANCH  35  49
HETATM   49  O3  UNL     1      -5.562  32.568  21.694  1.00  0.00    -0.393 OA
ATOM     50  H3  UNL     1      -5.167  32.045  21.007  1.00  0.00     0.210 HD
ENDBRANCH  35  49
BRANCH  36  51
HETATM   51  O4  UNL     1      -6.673  35.082  19.406  1.00  0.00    -0.393 OA
ATOM     52  H4  UNL     1      -6.979  34.965  18.514  1.00  0.00     0.210 HD
ENDBRANCH  36  51
ENDBRANCH  20  21
ENDBRANCH   1  20
TORSDOF 10
ENDMDL
MODEL 2
REMARK VINA RESULT: -7.851578526      2.185      4.510
REMARK  10 active torsions:
REMARK  status: ('A' for Active; 'I' for Inactive)
REMARK    1  A    between atoms: C2_2  and  C3_3 
REMARK    2  A    between atoms: C3_3  and  O1_4 
REMARK    3  A    between atoms: O1_4  and  C4_5 
REMARK    4  A    between atoms: C5_6  and  O2_7 
REMARK    5  A    between atoms: C6_9  and  C7_10 
REMARK    6  A    between atoms: C14_17  and  O3_18 
REMARK    7  A    between atoms: C15_20  and  O4_21 
REMARK    8  A    between atoms: C23_30  and  O5_31 
REMARK    9  A    between atoms: O5_31  and  C24_32 
REMARK   10  A    between atoms: C30_39  and  N2_40 
ROOT
HETATM    1  C24 UNL     1       0.779  32.757  25.732  1.00  0.00     0.122 C 
HETATM    2  C25 UNL     1       1.327  32.301  24.394  1.00  0.00     0.032 C 
HETATM    3  C26 UNL     1       2.746  31.941  24.492  1.00  0.00     0.009 C 
HETATM    4  C27 UNL     1       3.154  30.699  25.177  1.00  0.00     0.013 C 
HETATM    5  C28 UNL     1       2.356  29.511  24.702  1.00  0.00     0.128 C 
HETATM    6  C29 UNL     1       2.778  29.147  23.332  1.00  0.00     0.066 C 
HETATM    7  N1  UNL     1       3.112  28.887  22.234  1.00  0.00    -0.197 NA
HETATM    8  C30 UNL     1       2.344  28.338  25.569  1.00  0.00     0.208 C 
HETATM    9  C35 UNL     1       3.542  28.332  26.532  1.00  0.00     0.036 C 
HETATM   10  C36 UNL     1       3.409  29.545  27.419  1.00  0.00     0.011 C 
HETATM   11  C37 UNL     1       3.375  30.803  26.649  1.00  0.00    -0.039 C 
HETATM   12  C38 UNL     1       4.786  31.418  26.821  1.00  0.00     0.015 C 
HETATM   13  C39 UNL     1       2.473  31.860  27.220  1.00  0.00     0.012 C 
HETATM   14  C40 UNL     1       1.044  31.803  26.845  1.00  0.00     0.033 C 
ENDROOT
BRANCH   8  15
HETATM   15  N2  UNL     1       2.277  27.059  24.968  1.00  0.00    -0.065 N 
HETATM   16  C31 UNL     1       3.582  26.454  24.654  1.00  0.00     0.273 C 
HETATM   17  C32 UNL     1       1.594  26.084  25.848  1.00  0.00     0.239 A 
HETATM   18  C33 UNL     1       0.647  25.688  24.772  1.00  0.00     0.056 A 
HETATM   19  C34 UNL     1       1.328  26.767  23.963  1.00  0.00     0.239 A 
ENDBRANCH   8  15
BRANCH   1  20
HETATM   20  O5  UNL     1      -0.487  33.198  25.570  1.00  0.00    -0.380 OA
BRANCH  20  21
HETATM   21  C23 UNL     1      -0.735  34.072  24.503  1.00  0.00     0.127 C 
HETATM   22  C22 UNL     1      -0.510  35.434  25.057  1.00  0.00     0.033 C 
HETATM   23  C21 UNL     1      -1.270  36.451  24.333  1.00  0.00     0.009 C 
HETATM   24  C20 UNL     1      -2.704  36.203  23.920  1.00  0.00     0.008 C 
HETATM   25  C10 UNL     1      -2.868  34.898  23.258  1.00  0.00     0.001 C 
HETATM   26  C18 UNL     1      -3.048  37.464  23.149  1.00  0.00    -0.033 C 
HETATM   27  C6  UNL     1      -4.140  34.187  23.093  1.00  0.00    -0.011 C 
HETATM   28  C11 UNL     1      -2.018  34.979  22.020  1.00  0.00     0.016 C 
HETATM   29  C41 UNL     1      -2.151  33.934  24.245  1.00  0.00     0.034 C 
HETATM   30  C5  UNL     1      -4.896  34.094  24.371  1.00  0.00     0.102 C 
HETATM   31  C4  UNL     1      -4.295  33.964  25.517  1.00  0.00     0.080 C 
HETATM   32  C42 UNL     1      -2.851  33.911  25.588  1.00  0.00     0.075 C 
HETATM   33  C12 UNL     1      -2.114  36.173  21.182  1.00  0.00     0.009 C 
HETATM   34  C13 UNL     1      -2.846  37.376  21.685  1.00  0.00     0.025 C 
HETATM   35  C14 UNL     1      -2.232  38.567  21.014  1.00  0.00     0.151 C 
HETATM   36  C15 UNL     1      -2.678  39.905  21.470  1.00  0.00     0.147 C 
HETATM   37  C16 UNL     1      -2.739  39.938  22.953  1.00  0.00     0.035 C 
HETATM   38  C17 UNL     1      -2.205  38.660  23.609  1.00  0.00     0.012 C 
HETATM   39  C19 UNL     1      -4.421  37.996  23.565  1.00  0.00     0.016 C 
BRANCH  27  40
HETATM   40  C7  UNL     1      -5.057  34.164  21.958  1.00  0.00    -0.078 C 
HETATM   41  C8  UNL     1      -5.687  35.300  21.318  1.00  0.00     0.043 C 
HETATM   42  C9  UNL     1      -4.915  33.026  20.964  1.00  0.00     0.043 C 
ENDBRANCH  27  40
BRANCH  30  43
HETATM   43  O2  UNL     1      -6.303  34.142  24.360  1.00  0.00    -0.358 OA
ATOM     44  H2  UNL     1      -6.771  33.752  25.089  1.00  0.00     0.217 HD
ENDBRANCH  30  43
BRANCH  31  45
HETATM   45  O1  UNL     1      -5.041  33.876  26.673  1.00  0.00    -0.353 OA
BRANCH  45  46
HETATM   46  C3  UNL     1      -4.711  34.799  27.703  1.00  0.00     0.175 C 
BRANCH  46  47
HETATM   47  C2  UNL     1      -5.185  36.163  27.246  1.00  0.00     0.022 C 
HETATM   48  C1  UNL     1      -3.963  37.077  27.333  1.00  0.00     0.007 C 
ENDBRANCH  46  47
ENDBRANCH  45  46
ENDBRANCH  31  45
BRANCH  35  49
HETATM   49  O3  UNL     1      -0.821  38.469  20.946  1.00  0.00    -0.393 OA
ATOM     50  H3  UNL     1      -0.398  39.304  21.109  1.00  0.00     0.210 HD
ENDBRANCH  35  49
BRANCH  36  51
HETATM   51  O4  UNL     1      -3.861  40.349  20.839  1.00  0.00    -0.393 OA
ATOM     52  H4  UNL     1      -4.541  40.607  21.450  1.00  0.00     0.210 HD
ENDBRANCH  36  51
ENDBRANCH  20  21
ENDBRANCH   1  20
TORSDOF 10
ENDMDL
MODEL 3
REMARK VINA RESULT: -7.849491466      2.109      3.784
REMARK  10 active torsions:
REMARK  status: ('A' for Active; 'I' for Inactive)
REMARK    1  A    between atoms: C2_2  and  C3_3 
REMARK    2  A    between atoms: C3_3  and  O1_4 
REMARK    3  A    between atoms: O1_4  and  C4_5 
REMARK    4  A    between atoms: C5_6  and  O2_7 
REMARK    5  A    between atoms: C6_9  and  C7_10 
REMARK    6  A    between atoms: C14_17  and  O3_18 
REMARK    7  A    between atoms: C15_20  and  O4_21 
REMARK    8  A    between atoms: C23_30  and  O5_31 
REMARK    9  A    between atoms: O5_31  and  C24_32 
REMARK   10  A    between atoms: C30_39  and  N2_40 
ROOT
HETATM    1  C24 UNL     1       0.896  32.157  24.701  1.00  0.00     0.122 C 
HETATM    2  C25 UNL     1       0.186  31.091  25.511  1.00  0.00     0.032 C 
HETATM    3  C26 UNL     1       0.790  29.770  25.301  1.00  0.00     0.009 C 
HETATM    4  C27 UNL     1       2.108  29.452  25.883  1.00  0.00     0.013 C 
HETATM    5  C28 UNL     1       2.179  29.821  27.343  1.00  0.00     0.128 C 
HETATM    6  C29 UNL     1       1.365  28.873  28.133  1.00  0.00     0.066 C 
HETATM    7  N1  UNL     1       0.695  28.121  28.742  1.00  0.00    -0.197 NA
HETATM    8  C30 UNL     1       3.511  29.967  27.921  1.00  0.00     0.208 C 
HETATM    9  C35 UNL     1       4.572  29.223  27.095  1.00  0.00     0.036 C 
HETATM   10  C36 UNL     1       4.605  29.862  25.728  1.00  0.00     0.011 C 
HETATM   11  C37 UNL     1       3.295  29.808  25.052  1.00  0.00    -0.039 C 
HETATM   12  C38 UNL     1       3.431  28.676  24.004  1.00  0.00     0.015 C 
HETATM   13  C39 UNL     1       2.978  31.012  24.210  1.00  0.00     0.012 C 
HETATM   14  C40 UNL     1       2.373  32.174  24.894  1.00  0.00     0.033 C 
ENDROOT
BRANCH   8  15
HETATM   15  N2  UNL     1       3.699  29.605  29.276  1.00  0.00    -0.065 N 
HETATM   16  C31 UNL     1       4.016  28.185  29.499  1.00  0.00     0.273 C 
HETATM   17  C32 UNL     1       4.819  30.358  29.885  1.00  0.00     0.239 A 
HETATM   18  C33 UNL     1       3.972  30.810  31.021  1.00  0.00     0.056 A 
HETATM   19  C34 UNL     1       2.854  30.102  30.293  1.00  0.00     0.239 A 
ENDBRANCH   8  15
BRANCH   1  20
HETATM   20  O5  UNL     1       0.233  33.327  24.824  1.00  0.00    -0.380 OA
BRANCH  20  21
HETATM   21  C23 UNL     1      -1.087  33.374  24.354  1.00  0.00     0.127 C 
HETATM   22  C22 UNL     1      -1.008  32.939  22.933  1.00  0.00     0.033 C 
HETATM   23  C21 UNL     1      -2.107  33.479  22.135  1.00  0.00     0.009 C 
HETATM   24  C20 UNL     1      -2.553  34.915  22.297  1.00  0.00     0.008 C 
HETATM   25  C10 UNL     1      -2.746  35.275  23.712  1.00  0.00     0.001 C 
HETATM   26  C18 UNL     1      -3.737  35.001  21.352  1.00  0.00    -0.033 C 
HETATM   27  C6  UNL     1      -2.788  36.643  24.239  1.00  0.00    -0.011 C 
HETATM   28  C11 UNL     1      -3.846  34.371  24.198  1.00  0.00     0.016 C 
HETATM   29  C41 UNL     1      -1.424  34.779  24.362  1.00  0.00     0.034 C 
HETATM   30  C5  UNL     1      -1.637  37.458  23.764  1.00  0.00     0.102 C 
HETATM   31  C4  UNL     1      -0.460  36.938  23.570  1.00  0.00     0.080 C 
HETATM   32  C42 UNL     1      -0.230  35.529  23.808  1.00  0.00     0.075 C 
HETATM   33  C12 UNL     1      -5.044  34.223  23.375  1.00  0.00     0.009 C 
HETATM   34  C13 UNL     1      -5.057  34.756  21.978  1.00  0.00     0.025 C 
HETATM   35  C14 UNL     1      -6.027  33.916  21.204  1.00  0.00     0.151 C 
HETATM   36  C15 UNL     1      -6.099  34.142  19.740  1.00  0.00     0.147 C 
HETATM   37  C16 UNL     1      -4.730  34.259  19.180  1.00  0.00     0.035 C 
HETATM   38  C17 UNL     1      -3.628  33.984  20.209  1.00  0.00     0.012 C 
HETATM   39  C19 UNL     1      -3.667  36.278  20.510  1.00  0.00     0.016 C 
BRANCH  27  40
HETATM   40  C7  UNL     1      -3.933  37.501  24.524  1.00  0.00    -0.078 C 
HETATM   41  C8  UNL     1      -4.993  37.877  23.612  1.00  0.00     0.043 C 
HETATM   42  C9  UNL     1      -4.445  37.537  25.952  1.00  0.00     0.043 C 
ENDBRANCH  27  40
BRANCH  30  43
HETATM   43  O2  UNL     1      -1.805  38.833  23.515  1.00  0.00    -0.358 OA
ATOM     44  H2  UNL     1      -1.074  39.414  23.694  1.00  0.00     0.217 HD
ENDBRANCH  30  43
BRANCH  31  45
HETATM   45  O1  UNL     1       0.576  37.737  23.135  1.00  0.00    -0.353 OA
BRANCH  45  46
HETATM   46  C3  UNL     1       1.293  38.437  24.144  1.00  0.00     0.175 C 
BRANCH  46  47
HETATM   47  C2  UNL     1       2.160  39.462  23.443  1.00  0.00     0.022 C 
HETATM   48  C1  UNL     1       1.410  39.837  22.166  1.00  0.00     0.007 C 
ENDBRANCH  46  47
ENDBRANCH  45  46
ENDBRANCH  31  45
BRANCH  35  49
HETATM   49  O3  UNL     1      -5.914  32.541  21.527  1.00  0.00    -0.393 OA
ATOM     50  H3  UNL     1      -5.801  32.003  20.753  1.00  0.00     0.210 HD
ENDBRANCH  35  49
BRANCH  36  51
HETATM   51  O4  UNL     1      -6.959  35.201  19.376  1.00  0.00    -0.393 OA
ATOM     52  H4  UNL     1      -7.877  35.012  19.527  1.00  0.00     0.210 HD
ENDBRANCH  36  51
ENDBRANCH  20  21
ENDBRANCH   1  20
TORSDOF 10
ENDMDL
MODEL 4
REMARK VINA RESULT: -7.812578489      3.390     10.142
REMARK  10 active torsions:
REMARK  status: ('A' for Active; 'I' for Inactive)
REMARK    1  A    between atoms: C2_2  and  C3_3 
REMARK    2  A    between atoms: C3_3  and  O1_4 
REMARK    3  A    between atoms: O1_4  and  C4_5 
REMARK    4  A    between atoms: C5_6  and  O2_7 
REMARK    5  A    between atoms: C6_9  and  C7_10 
REMARK    6  A    between atoms: C14_17  and  O3_18 
REMARK    7  A    between atoms: C15_20  and  O4_21 
REMARK    8  A    between atoms: C23_30  and  O5_31 
REMARK    9  A    between atoms: O5_31  and  C24_32 
REMARK   10  A    between atoms: C30_39  and  N2_40 
ROOT
HETATM    1  C24 UNL     1      -0.575  33.069  23.971  1.00  0.00     0.122 C 
HETATM    2  C25 UNL     1      -1.151  33.444  22.620  1.00  0.00     0.032 C 
HETATM    3  C26 UNL     1      -2.486  34.039  22.755  1.00  0.00     0.009 C 
HETATM    4  C27 UNL     1      -2.641  35.405  23.293  1.00  0.00     0.013 C 
HETATM    5  C28 UNL     1      -1.711  36.381  22.619  1.00  0.00     0.128 C 
HETATM    6  C29 UNL     1      -2.179  36.641  21.241  1.00  0.00     0.066 C 
HETATM    7  N1  UNL     1      -2.556  36.819  20.141  1.00  0.00    -0.197 NA
HETATM    8  C30 UNL     1      -1.448  37.632  23.323  1.00  0.00     0.208 C 
HETATM    9  C35 UNL     1      -2.550  37.949  24.346  1.00  0.00     0.036 C 
HETATM   10  C36 UNL     1      -2.536  36.845  25.376  1.00  0.00     0.011 C 
HETATM   11  C37 UNL     1      -2.757  35.516  24.776  1.00  0.00    -0.039 C 
HETATM   12  C38 UNL     1      -4.228  35.164  25.112  1.00  0.00     0.015 C 
HETATM   13  C39 UNL     1      -1.986  34.403  25.427  1.00  0.00     0.012 C 
HETATM   14  C40 UNL     1      -0.600  34.180  24.963  1.00  0.00     0.033 C 
ENDROOT
BRANCH   8  15
HETATM   15  N2  UNL     1      -1.233  38.801  22.556  1.00  0.00    -0.065 N 
HETATM   16  C31 UNL     1      -2.443  39.596  22.287  1.00  0.00     0.273 C 
HETATM   17  C32 UNL     1      -0.298  39.727  23.234  1.00  0.00     0.239 A 
HETATM   18  C33 UNL     1       0.573  39.819  22.032  1.00  0.00     0.056 A 
HETATM   19  C34 UNL     1      -0.370  38.799  21.438  1.00  0.00     0.239 A 
ENDBRANCH   8  15
BRANCH   1  20
HETATM   20  O5  UNL     1       0.591  32.412  23.793  1.00  0.00    -0.380 OA
BRANCH  20  21
HETATM   21  C23 UNL     1       1.239  31.924  24.936  1.00  0.00     0.127 C 
HETATM   22  C22 UNL     1       2.691  32.013  24.625  1.00  0.00     0.033 C 
HETATM   23  C21 UNL     1       3.474  31.040  25.385  1.00  0.00     0.009 C 
HETATM   24  C20 UNL     1       2.986  29.620  25.564  1.00  0.00     0.008 C 
HETATM   25  C10 UNL     1       1.580  29.571  25.997  1.00  0.00     0.001 C 
HETATM   26  C18 UNL     1       4.050  29.016  26.462  1.00  0.00    -0.033 C 
HETATM   27  C6  UNL     1       0.700  28.403  25.885  1.00  0.00    -0.011 C 
HETATM   28  C11 UNL     1       1.559  30.259  27.335  1.00  0.00     0.016 C 
HETATM   29  C41 UNL     1       0.888  30.523  24.981  1.00  0.00     0.034 C 
HETATM   30  C5  UNL     1       0.726  27.814  24.519  1.00  0.00     0.102 C 
HETATM   31  C4  UNL     1       0.863  28.551  23.455  1.00  0.00     0.080 C 
HETATM   32  C42 UNL     1       1.001  29.987  23.569  1.00  0.00     0.075 C 
HETATM   33  C12 UNL     1       2.577  29.901  28.321  1.00  0.00     0.009 C 
HETATM   34  C13 UNL     1       3.747  29.065  27.911  1.00  0.00     0.025 C 
HETATM   35  C14 UNL     1       4.877  29.424  28.827  1.00  0.00     0.151 C 
HETATM   36  C15 UNL     1       6.207  28.845  28.519  1.00  0.00     0.147 C 
HETATM   37  C16 UNL     1       6.476  28.945  27.063  1.00  0.00     0.035 C 
HETATM   38  C17 UNL     1       5.400  29.725  26.300  1.00  0.00     0.012 C 
HETATM   39  C19 UNL     1       4.470  27.635  25.952  1.00  0.00     0.016 C 
BRANCH  27  40
HETATM   40  C7  UNL     1       0.376  27.379  26.873  1.00  0.00    -0.078 C 
HETATM   41  C8  UNL     1       1.304  26.524  27.584  1.00  0.00     0.043 C 
HETATM   42  C9  UNL     1      -0.882  27.572  27.699  1.00  0.00     0.043 C 
ENDBRANCH  27  40
BRANCH  30  43
HETATM   43  O2  UNL     1       0.598  26.422  24.351  1.00  0.00    -0.358 OA
ATOM     44  H2  UNL     1       1.103  25.853  24.921  1.00  0.00     0.217 HD
ENDBRANCH  30  43
BRANCH  31  45
HETATM   45  O1  UNL     1       0.875  27.958  22.211  1.00  0.00    -0.353 OA
BRANCH  45  46
HETATM   46  C3  UNL     1       0.061  28.569  21.218  1.00  0.00     0.175 C 
BRANCH  46  47
HETATM   47  C2  UNL     1      -1.354  28.076  21.439  1.00  0.00     0.022 C 
HETATM   48  C1  UNL     1      -2.182  29.319  21.759  1.00  0.00     0.007 C 
ENDBRANCH  46  47
ENDBRANCH  45  46
ENDBRANCH  31  45
BRANCH  35  49
HETATM   49  O3  UNL     1       4.944  30.819  29.064  1.00  0.00    -0.393 OA
ATOM     50  H3  UNL     1       5.832  31.108  29.237  1.00  0.00     0.210 HD
ENDBRANCH  35  49
BRANCH  36  51
HETATM   51  O4  UNL     1       6.392  27.548  29.048  1.00  0.00    -0.393 OA
ATOM     52  H4  UNL     1       7.123  27.083  28.660  1.00  0.00     0.210 HD
ENDBRANCH  36  51
ENDBRANCH  20  21
ENDBRANCH   1  20
TORSDOF 10
ENDMDL
MODEL 5
REMARK VINA RESULT: -7.755445540      3.204      9.470
REMARK  10 active torsions:
REMARK  status: ('A' for Active; 'I' for Inactive)
REMARK    1  A    between atoms: C2_2  and  C3_3 
REMARK    2  A    between atoms: C3_3  and  O1_4 
REMARK    3  A    between atoms: O1_4  and  C4_5 
REMARK    4  A    between atoms: C5_6  and  O2_7 
REMARK    5  A    between atoms: C6_9  and  C7_10 
REMARK    6  A    between atoms: C14_17  and  O3_18 
REMARK    7  A    between atoms: C15_20  and  O4_21 
REMARK    8  A    between atoms: C23_30  and  O5_31 
REMARK    9  A    between atoms: O5_31  and  C24_32 
REMARK   10  A    between atoms: C30_39  and  N2_40 
ROOT
HETATM    1  C24 UNL     1      -3.386  33.223  21.869  1.00  0.00     0.122 C 
HETATM    2  C25 UNL     1      -2.664  34.174  20.936  1.00  0.00     0.032 C 
HETATM    3  C26 UNL     1      -3.548  35.253  20.483  1.00  0.00     0.009 C 
HETATM    4  C27 UNL     1      -3.943  36.331  21.411  1.00  0.00     0.013 C 
HETATM    5  C28 UNL     1      -2.753  36.913  22.132  1.00  0.00     0.128 C 
HETATM    6  C29 UNL     1      -1.952  37.725  21.191  1.00  0.00     0.066 C 
HETATM    7  N1  UNL     1      -1.317  38.349  20.423  1.00  0.00    -0.197 NA
HETATM    8  C30 UNL     1      -3.026  37.657  23.357  1.00  0.00     0.208 C 
HETATM    9  C35 UNL     1      -4.480  38.151  23.409  1.00  0.00     0.036 C 
HETATM   10  C36 UNL     1      -5.368  36.930  23.420  1.00  0.00     0.011 C 
HETATM   11  C37 UNL     1      -5.157  36.073  22.238  1.00  0.00    -0.039 C 
HETATM   12  C38 UNL     1      -6.366  36.360  21.314  1.00  0.00     0.015 C 
HETATM   13  C39 UNL     1      -5.279  34.600  22.508  1.00  0.00     0.012 C 
HETATM   14  C40 UNL     1      -4.074  33.901  23.003  1.00  0.00     0.033 C 
ENDROOT
BRANCH   8  15
HETATM   15  N2  UNL     1      -2.194  38.755  23.675  1.00  0.00    -0.065 N 
HETATM   16  C31 UNL     1      -2.560  40.020  23.016  1.00  0.00     0.273 C 
HETATM   17  C32 UNL     1      -2.217  39.048  25.126  1.00  0.00     0.239 A 
HETATM   18  C33 UNL     1      -0.733  39.005  25.216  1.00  0.00     0.056 A 
HETATM   19  C34 UNL     1      -0.790  38.615  23.758  1.00  0.00     0.239 A 
ENDBRANCH   8  15
BRANCH   1  20
HETATM   20  O5  UNL     1      -2.578  32.180  22.158  1.00  0.00    -0.380 OA
BRANCH  20  21
HETATM   21  C23 UNL     1      -1.840  32.245  23.348  1.00  0.00     0.127 C 
HETATM   22  C22 UNL     1      -0.459  32.601  22.928  1.00  0.00     0.033 C 
HETATM   23  C21 UNL     1       0.541  32.138  23.888  1.00  0.00     0.009 C 
HETATM   24  C20 UNL     1       0.442  30.764  24.512  1.00  0.00     0.008 C 
HETATM   25  C10 UNL     1      -0.908  30.492  25.033  1.00  0.00     0.001 C 
HETATM   26  C18 UNL     1       1.615  30.753  25.475  1.00  0.00    -0.033 C 
HETATM   27  C6  UNL     1      -1.448  29.162  25.332  1.00  0.00    -0.011 C 
HETATM   28  C11 UNL     1      -1.127  31.524  26.105  1.00  0.00     0.016 C 
HETATM   29  C41 UNL     1      -1.812  30.882  23.830  1.00  0.00     0.034 C 
HETATM   30  C5  UNL     1      -1.248  28.214  24.203  1.00  0.00     0.102 C 
HETATM   31  C4  UNL     1      -1.296  28.602  22.962  1.00  0.00     0.080 C 
HETATM   32  C42 UNL     1      -1.542  29.990  22.636  1.00  0.00     0.075 C 
HETATM   33  C12 UNL     1      -0.065  31.754  27.083  1.00  0.00     0.009 C 
HETATM   34  C13 UNL     1       1.289  31.160  26.861  1.00  0.00     0.025 C 
HETATM   35  C14 UNL     1       2.273  32.056  27.552  1.00  0.00     0.151 C 
HETATM   36  C15 UNL     1       3.712  31.770  27.341  1.00  0.00     0.147 C 
HETATM   37  C16 UNL     1       3.966  31.488  25.906  1.00  0.00     0.035 C 
HETATM   38  C17 UNL     1       2.733  31.699  25.020  1.00  0.00     0.012 C 
HETATM   39  C19 UNL     1       2.390  29.438  25.370  1.00  0.00     0.016 C 
BRANCH  27  40
HETATM   40  C7  UNL     1      -1.505  28.439  26.598  1.00  0.00    -0.078 C 
HETATM   41  C8  UNL     1      -0.395  28.109  27.468  1.00  0.00     0.043 C 
HETATM   42  C9  UNL     1      -2.782  28.542  27.410  1.00  0.00     0.043 C 
ENDBRANCH  27  40
BRANCH  30  43
HETATM   43  O2  UNL     1      -1.004  26.852  24.464  1.00  0.00    -0.358 OA
ATOM     44  H2  UNL     1      -0.164  26.490  24.206  1.00  0.00     0.217 HD
ENDBRANCH  30  43
BRANCH  31  45
HETATM   45  O1  UNL     1      -1.111  27.683  21.952  1.00  0.00    -0.353 OA
BRANCH  45  46
HETATM   46  C3  UNL     1       0.232  27.281  21.710  1.00  0.00     0.175 C 
BRANCH  46  47
HETATM   47  C2  UNL     1       0.913  28.419  20.979  1.00  0.00     0.022 C 
HETATM   48  C1  UNL     1       2.128  28.790  21.829  1.00  0.00     0.007 C 
ENDBRANCH  46  47
ENDBRANCH  45  46
ENDBRANCH  31  45
BRANCH  35  49
HETATM   49  O3  UNL     1       1.967  33.426  27.360  1.00  0.00    -0.393 OA
ATOM     50  H3  UNL     1       1.304  33.731  27.968  1.00  0.00     0.210 HD
ENDBRANCH  35  49
BRANCH  36  51
HETATM   51  O4  UNL     1       4.224  30.787  28.216  1.00  0.00    -0.393 OA
ATOM     52  H4  UNL     1       4.205  29.910  27.852  1.00  0.00     0.210 HD
ENDBRANCH  36  51
ENDBRANCH  20  21
ENDBRANCH   1  20
TORSDOF 10
ENDMDL
