MODEL 1
REMARK VINA RESULT: -8.005457579      0.000      0.000
REMARK  8 active torsions:
REMARK  status: ('A' for Active; 'I' for Inactive)
REMARK    1  A    between atoms: C2_2  and  C3_3 
REMARK    2  A    between atoms: C3_3  and  N1_4 
REMARK       I    between atoms: N1_4  and  C4_6 
REMARK    3  A    between atoms: C4_6  and  C5_8 
REMARK    4  A    between atoms: C8_11  and  C9_12 
REMARK    5  A    between atoms: C25_29  and  O3_30 
REMARK    6  A    between atoms: C26_32  and  C27_33 
REMARK    7  A    between atoms: C27_33  and  O4_34 
REMARK    8  A    between atoms: O4_34  and  S1_35 
ROOT
HETATM    1  C5  UNL     1       9.620  72.075   2.247  1.00  0.00     0.048 C 
HETATM    2  C6  UNL     1       8.108  71.786   2.369  1.00  0.00     0.020 C 
HETATM    3  C7  UNL     1       8.126  70.432   3.048  1.00  0.00     0.011 C 
HETATM    4  C8  UNL     1       9.566  70.233   3.584  1.00  0.00     0.021 C 
HETATM    5  C12 UNL     1       9.950  71.654   3.687  1.00  0.00     0.041 C 
HETATM    6  C13 UNL     1      11.331  72.026   4.041  1.00  0.00     0.136 C 
HETATM    7  O2  UNL     1      11.879  71.341   5.118  1.00  0.00    -0.384 OA
HETATM    8  C14 UNL     1      11.657  71.904   6.343  1.00  0.00     0.178 C 
HETATM    9  C15 UNL     1      12.449  73.204   6.420  1.00  0.00    -0.007 C 
HETATM   10  C16 UNL     1      13.836  72.877   5.910  1.00  0.00     0.019 C 
HETATM   11  C17 UNL     1      12.560  73.580   7.838  1.00  0.00    -0.030 C 
HETATM   12  C18 UNL     1      13.381  72.565   8.573  1.00  0.00     0.016 C 
HETATM   13  C19 UNL     1      13.350  74.855   8.115  1.00  0.00     0.011 C 
HETATM   14  C20 UNL     1      13.500  75.016   9.636  1.00  0.00     0.011 C 
HETATM   15  C21 UNL     1      12.169  75.275  10.265  1.00  0.00    -0.034 C 
HETATM   16  C22 UNL     1      11.770  76.704   9.963  1.00  0.00     0.016 C 
HETATM   17  C23 UNL     1      12.248  75.205  11.775  1.00  0.00     0.019 C 
HETATM   18  C24 UNL     1      13.111  74.109  12.309  1.00  0.00     0.013 C 
HETATM   19  C25 UNL     1      10.908  75.284  12.438  1.00  0.00     0.128 C 
HETATM   20  C26 UNL     1       9.813  74.498  11.834  1.00  0.00     0.040 C 
HETATM   21  C28 UNL     1       9.781  74.540  10.313  1.00  0.00     0.015 C 
HETATM   22  C29 UNL     1      11.168  74.246   9.841  1.00  0.00    -0.001 C 
HETATM   23  C30 UNL     1      11.203  73.833   8.413  1.00  0.00    -0.001 C 
HETATM   24  C31 UNL     1      10.475  74.830   7.570  1.00  0.00     0.006 C 
HETATM   25  C32 UNL     1      10.354  74.447   6.119  1.00  0.00     0.011 C 
HETATM   26  C33 UNL     1      11.680  74.108   5.497  1.00  0.00    -0.024 C 
HETATM   27  C34 UNL     1      12.351  75.458   5.234  1.00  0.00     0.017 C 
HETATM   28  C35 UNL     1      11.500  73.504   4.121  1.00  0.00    -0.009 C 
HETATM   29  C36 UNL     1      12.665  73.899   3.205  1.00  0.00     0.018 C 
HETATM   30  C37 UNL     1      10.281  74.142   3.456  1.00  0.00     0.014 C 
HETATM   31  C38 UNL     1       9.949  73.501   2.133  1.00  0.00     0.020 C 
ENDROOT
BRANCH   1  32
HETATM   32  C4  UNL     1      10.114  71.194   1.205  1.00  0.00     0.227 C 
HETATM   33  N1  UNL     1      11.406  70.629   1.078  1.00  0.00    -0.357 N 
ATOM     34  H1  UNL     1      12.099  70.858   1.790  1.00  0.00     0.162 HD
HETATM   35  O1  UNL     1       9.342  70.829   0.238  1.00  0.00    -0.273 OA
BRANCH  33  36
HETATM   36  C3  UNL     1      11.807  69.749   0.003  1.00  0.00     0.149 C 
BRANCH  36  37
HETATM   37  C2  UNL     1      12.397  68.473   0.520  1.00  0.00    -0.018 C 
HETATM   38  C1  UNL     1      12.460  68.213   1.793  1.00  0.00     0.008 C 
ENDBRANCH  36  37
ENDBRANCH  33  36
ENDBRANCH   1  32
BRANCH   4  39
HETATM   39  C9  UNL     1       9.421  69.499   4.870  1.00  0.00    -0.088 C 
HETATM   40  C10 UNL     1       8.696  69.979   5.875  1.00  0.00     0.014 C 
HETATM   41  C11 UNL     1      10.114  68.188   5.091  1.00  0.00     0.043 C 
ENDBRANCH   4  39
BRANCH  20  42
HETATM   42  C27 UNL     1       9.719  73.069  12.329  1.00  0.00     0.200 C 
BRANCH  42  43
HETATM   43  O4  UNL     1       8.792  72.359  11.604  1.00  0.00    -0.257 OA
BRANCH  43  44
HETATM   44  S1  UNL     1       9.378  70.812  11.315  1.00  0.00     0.251 S 
HETATM   45  O5  UNL     1       9.692  70.169  12.652  1.00  0.00    -0.572 OA
HETATM   46  O6  UNL     1      10.594  70.840  10.437  1.00  0.00    -0.572 OA
HETATM   47  O7  UNL     1       8.231  69.837  10.570  1.00  0.00    -0.572 OA
ENDBRANCH  43  44
ENDBRANCH  42  43
ENDBRANCH  20  42
BRANCH  19  48
HETATM   48  O3  UNL     1      11.081  74.840  13.763  1.00  0.00    -0.395 OA
ATOM     49  H3  UNL     1      10.578  74.039  13.853  1.00  0.00     0.210 HD
ENDBRANCH  19  48
TORSDOF 8
ENDMDL
MODEL 2
REMARK VINA RESULT: -7.881379905      4.467      8.545
REMARK  8 active torsions:
REMARK  status: ('A' for Active; 'I' for Inactive)
REMARK    1  A    between atoms: C2_2  and  C3_3 
REMARK    2  A    between atoms: C3_3  and  N1_4 
REMARK       I    between atoms: N1_4  and  C4_6 
REMARK    3  A    between atoms: C4_6  and  C5_8 
REMARK    4  A    between atoms: C8_11  and  C9_12 
REMARK    5  A    between atoms: C25_29  and  O3_30 
REMARK    6  A    between atoms: C26_32  and  C27_33 
REMARK    7  A    between atoms: C27_33  and  O4_34 
REMARK    8  A    between atoms: O4_34  and  S1_35 
ROOT
HETATM    1  C5  UNL     1      11.281  69.894   4.881  1.00  0.00     0.048 C 
HETATM    2  C6  UNL     1      11.980  68.977   3.855  1.00  0.00     0.020 C 
HETATM    3  C7  UNL     1      10.922  68.894   2.774  1.00  0.00     0.011 C 
HETATM    4  C8  UNL     1       9.904  70.023   3.072  1.00  0.00     0.021 C 
HETATM    5  C12 UNL     1      10.798  70.913   3.839  1.00  0.00     0.041 C 
HETATM    6  C13 UNL     1      10.262  72.120   4.491  1.00  0.00     0.136 C 
HETATM    7  O2  UNL     1       9.423  72.904   3.707  1.00  0.00    -0.384 OA
HETATM    8  C14 UNL     1      10.049  73.863   2.962  1.00  0.00     0.178 C 
HETATM    9  C15 UNL     1      10.595  74.922   3.912  1.00  0.00    -0.007 C 
HETATM   10  C16 UNL     1       9.472  75.239   4.875  1.00  0.00     0.019 C 
HETATM   11  C17 UNL     1      10.877  76.132   3.123  1.00  0.00    -0.030 C 
HETATM   12  C18 UNL     1       9.599  76.698   2.584  1.00  0.00     0.016 C 
HETATM   13  C19 UNL     1      11.413  77.318   3.918  1.00  0.00     0.011 C 
HETATM   14  C20 UNL     1      11.503  78.533   2.980  1.00  0.00     0.011 C 
HETATM   15  C21 UNL     1      12.544  78.304   1.932  1.00  0.00    -0.034 C 
HETATM   16  C22 UNL     1      13.907  78.459   2.571  1.00  0.00     0.016 C 
HETATM   17  C23 UNL     1      12.494  79.372   0.860  1.00  0.00     0.019 C 
HETATM   18  C24 UNL     1      11.119  79.789   0.452  1.00  0.00     0.013 C 
HETATM   19  C25 UNL     1      13.399  79.086  -0.298  1.00  0.00     0.128 C 
HETATM   20  C26 UNL     1      13.424  77.699  -0.802  1.00  0.00     0.040 C 
HETATM   21  C28 UNL     1      13.422  76.638   0.288  1.00  0.00     0.015 C 
HETATM   22  C29 UNL     1      12.326  76.995   1.239  1.00  0.00    -0.001 C 
HETATM   23  C30 UNL     1      11.926  75.847   2.097  1.00  0.00    -0.001 C 
HETATM   24  C31 UNL     1      13.129  75.253   2.755  1.00  0.00     0.006 C 
HETATM   25  C32 UNL     1      12.848  74.012   3.560  1.00  0.00     0.011 C 
HETATM   26  C33 UNL     1      11.747  74.209   4.565  1.00  0.00    -0.024 C 
HETATM   27  C34 UNL     1      12.396  74.981   5.716  1.00  0.00     0.017 C 
HETATM   28  C35 UNL     1      11.330  72.893   5.185  1.00  0.00    -0.009 C 
HETATM   29  C36 UNL     1      10.898  73.099   6.642  1.00  0.00     0.018 C 
HETATM   30  C37 UNL     1      12.556  71.986   5.292  1.00  0.00     0.014 C 
HETATM   31  C38 UNL     1      12.203  70.602   5.776  1.00  0.00     0.020 C 
ENDROOT
BRANCH   1  32
HETATM   32  C4  UNL     1      10.244  69.088   5.499  1.00  0.00     0.227 C 
HETATM   33  N1  UNL     1      10.284  67.709   5.820  1.00  0.00    -0.357 N 
ATOM     34  H1  UNL     1      11.133  67.191   5.595  1.00  0.00     0.162 HD
HETATM   35  O1  UNL     1       9.115  69.617   5.831  1.00  0.00    -0.273 OA
BRANCH  33  36
HETATM   36  C3  UNL     1       9.199  66.988   6.447  1.00  0.00     0.149 C 
BRANCH  36  37
HETATM   37  C2  UNL     1       9.544  66.564   7.841  1.00  0.00    -0.018 C 
HETATM   38  C1  UNL     1       9.848  67.429   8.765  1.00  0.00     0.008 C 
ENDBRANCH  36  37
ENDBRANCH  33  36
ENDBRANCH   1  32
BRANCH   4  39
HETATM   39  C9  UNL     1       9.459  70.528   1.746  1.00  0.00    -0.088 C 
HETATM   40  C10 UNL     1      10.324  70.923   0.817  1.00  0.00     0.014 C 
HETATM   41  C11 UNL     1       8.000  70.633   1.411  1.00  0.00     0.043 C 
ENDBRANCH   4  39
BRANCH  20  42
HETATM   42  C27 UNL     1      12.369  77.391  -1.846  1.00  0.00     0.200 C 
BRANCH  42  43
HETATM   43  O4  UNL     1      11.242  76.863  -1.263  1.00  0.00    -0.257 OA
BRANCH  43  44
HETATM   44  S1  UNL     1       9.880  77.466  -2.040  1.00  0.00     0.251 S 
HETATM   45  O5  UNL     1      10.240  78.807  -2.649  1.00  0.00    -0.572 OA
HETATM   46  O6  UNL     1       8.723  77.602  -1.095  1.00  0.00    -0.572 OA
HETATM   47  O7  UNL     1       9.394  76.476  -3.307  1.00  0.00    -0.572 OA
ENDBRANCH  43  44
ENDBRANCH  42  43
ENDBRANCH  20  42
BRANCH  19  48
HETATM   48  O3  UNL     1      12.989  79.925  -1.352  1.00  0.00    -0.395 OA
ATOM     49  H3  UNL     1      12.879  80.794  -0.986  1.00  0.00     0.210 HD
ENDBRANCH  19  48
TORSDOF 8
ENDMDL
MODEL 3
REMARK VINA RESULT: -7.783365876      4.817      9.094
REMARK  8 active torsions:
REMARK  status: ('A' for Active; 'I' for Inactive)
REMARK    1  A    between atoms: C2_2  and  C3_3 
REMARK    2  A    between atoms: C3_3  and  N1_4 
REMARK       I    between atoms: N1_4  and  C4_6 
REMARK    3  A    between atoms: C4_6  and  C5_8 
REMARK    4  A    between atoms: C8_11  and  C9_12 
REMARK    5  A    between atoms: C25_29  and  O3_30 
REMARK    6  A    between atoms: C26_32  and  C27_33 
REMARK    7  A    between atoms: C27_33  and  O4_34 
REMARK    8  A    between atoms: O4_34  and  S1_35 
ROOT
HETATM    1  C5  UNL     1      11.347  70.094   4.845  1.00  0.00     0.048 C 
HETATM    2  C6  UNL     1      11.917  69.166   3.751  1.00  0.00     0.020 C 
HETATM    3  C7  UNL     1      10.698  68.971   2.874  1.00  0.00     0.011 C 
HETATM    4  C8  UNL     1       9.677  70.056   3.298  1.00  0.00     0.021 C 
HETATM    5  C12 UNL     1      10.631  71.032   3.861  1.00  0.00     0.041 C 
HETATM    6  C13 UNL     1      10.139  72.239   4.547  1.00  0.00     0.136 C 
HETATM    7  O2  UNL     1       9.131  72.935   3.889  1.00  0.00    -0.384 OA
HETATM    8  C14 UNL     1       9.560  73.888   3.009  1.00  0.00     0.178 C 
HETATM    9  C15 UNL     1      10.193  75.022   3.806  1.00  0.00    -0.007 C 
HETATM   10  C16 UNL     1       9.232  75.325   4.935  1.00  0.00     0.019 C 
HETATM   11  C17 UNL     1      10.259  76.204   2.932  1.00  0.00    -0.030 C 
HETATM   12  C18 UNL     1       8.875  76.671   2.600  1.00  0.00     0.016 C 
HETATM   13  C19 UNL     1      10.848  77.456   3.573  1.00  0.00     0.011 C 
HETATM   14  C20 UNL     1      10.701  78.625   2.586  1.00  0.00     0.011 C 
HETATM   15  C21 UNL     1      11.560  78.400   1.383  1.00  0.00    -0.034 C 
HETATM   16  C22 UNL     1      12.999  78.662   1.770  1.00  0.00     0.016 C 
HETATM   17  C23 UNL     1      11.262  79.409   0.294  1.00  0.00     0.019 C 
HETATM   18  C24 UNL     1       9.813  79.729   0.113  1.00  0.00     0.013 C 
HETATM   19  C25 UNL     1      11.972  79.115  -0.990  1.00  0.00     0.128 C 
HETATM   20  C26 UNL     1      11.998  77.707  -1.435  1.00  0.00     0.040 C 
HETATM   21  C28 UNL     1      12.248  76.704  -0.319  1.00  0.00     0.015 C 
HETATM   22  C29 UNL     1      11.309  77.048   0.792  1.00  0.00    -0.001 C 
HETATM   23  C30 UNL     1      11.134  75.925   1.752  1.00  0.00    -0.001 C 
HETATM   24  C31 UNL     1      12.467  75.432   2.216  1.00  0.00     0.006 C 
HETATM   25  C32 UNL     1      12.405  74.219   3.106  1.00  0.00     0.011 C 
HETATM   26  C33 UNL     1      11.481  74.407   4.278  1.00  0.00    -0.024 C 
HETATM   27  C34 UNL     1      12.267  75.271   5.267  1.00  0.00     0.017 C 
HETATM   28  C35 UNL     1      11.259  73.103   5.014  1.00  0.00    -0.009 C 
HETATM   29  C36 UNL     1      11.069  73.359   6.514  1.00  0.00     0.018 C 
HETATM   30  C37 UNL     1      12.539  72.271   4.944  1.00  0.00     0.014 C 
HETATM   31  C38 UNL     1      12.362  70.896   5.538  1.00  0.00     0.020 C 
ENDROOT
BRANCH   1  32
HETATM   32  C4  UNL     1      10.483  69.265   5.665  1.00  0.00     0.227 C 
HETATM   33  N1  UNL     1      10.450  67.851   5.748  1.00  0.00    -0.357 N 
ATOM     34  H1  UNL     1      11.099  67.324   5.164  1.00  0.00     0.162 HD
HETATM   35  O1  UNL     1       9.610  69.804   6.448  1.00  0.00    -0.273 OA
BRANCH  33  36
HETATM   36  C3  UNL     1       9.555  67.107   6.605  1.00  0.00     0.149 C 
BRANCH  36  37
HETATM   37  C2  UNL     1      10.203  66.746   7.906  1.00  0.00    -0.018 C 
HETATM   38  C1  UNL     1       9.827  67.281   9.031  1.00  0.00     0.008 C 
ENDBRANCH  36  37
ENDBRANCH  33  36
ENDBRANCH   1  32
BRANCH   4  39
HETATM   39  C9  UNL     1       8.981  70.467   2.049  1.00  0.00    -0.088 C 
HETATM   40  C10 UNL     1       7.655  70.509   1.964  1.00  0.00     0.014 C 
HETATM   41  C11 UNL     1       9.758  70.831   0.818  1.00  0.00     0.043 C 
ENDBRANCH   4  39
BRANCH  20  42
HETATM   42  C27 UNL     1      10.802  77.289  -2.267  1.00  0.00     0.200 C 
BRANCH  42  43
HETATM   43  O4  UNL     1      10.958  77.671  -3.578  1.00  0.00    -0.257 OA
BRANCH  43  44
HETATM   44  S1  UNL     1       9.556  77.315  -4.432  1.00  0.00     0.251 S 
HETATM   45  O5  UNL     1       9.906  77.247  -5.905  1.00  0.00    -0.572 OA
HETATM   46  O6  UNL     1       8.486  78.335  -4.183  1.00  0.00    -0.572 OA
HETATM   47  O7  UNL     1       8.935  75.810  -4.015  1.00  0.00    -0.572 OA
ENDBRANCH  43  44
ENDBRANCH  42  43
ENDBRANCH  20  42
BRANCH  19  48
HETATM   48  O3  UNL     1      11.337  79.875  -1.991  1.00  0.00    -0.395 OA
ATOM     49  H3  UNL     1      11.990  80.051  -2.658  1.00  0.00     0.210 HD
ENDBRANCH  19  48
TORSDOF 8
ENDMDL
MODEL 4
REMARK VINA RESULT: -7.157863359      4.104      7.716
REMARK  8 active torsions:
REMARK  status: ('A' for Active; 'I' for Inactive)
REMARK    1  A    between atoms: C2_2  and  C3_3 
REMARK    2  A    between atoms: C3_3  and  N1_4 
REMARK       I    between atoms: N1_4  and  C4_6 
REMARK    3  A    between atoms: C4_6  and  C5_8 
REMARK    4  A    between atoms: C8_11  and  C9_12 
REMARK    5  A    between atoms: C25_29  and  O3_30 
REMARK    6  A    between atoms: C26_32  and  C27_33 
REMARK    7  A    between atoms: C27_33  and  O4_34 
REMARK    8  A    between atoms: O4_34  and  S1_35 
ROOT
HETATM    1  C5  UNL     1      11.183  69.746   5.020  1.00  0.00     0.048 C 
HETATM    2  C6  UNL     1      11.727  68.977   3.797  1.00  0.00     0.020 C 
HETATM    3  C7  UNL     1      10.607  69.189   2.800  1.00  0.00     0.011 C 
HETATM    4  C8  UNL     1       9.726  70.329   3.370  1.00  0.00     0.021 C 
HETATM    5  C12 UNL     1      10.747  70.980   4.215  1.00  0.00     0.041 C 
HETATM    6  C13 UNL     1      10.372  72.087   5.111  1.00  0.00     0.136 C 
HETATM    7  O2  UNL     1       9.573  73.074   4.544  1.00  0.00    -0.384 OA
HETATM    8  C14 UNL     1      10.249  74.095   3.938  1.00  0.00     0.178 C 
HETATM    9  C15 UNL     1      10.952  74.908   5.018  1.00  0.00    -0.007 C 
HETATM   10  C16 UNL     1       9.922  75.139   6.103  1.00  0.00     0.019 C 
HETATM   11  C17 UNL     1      11.308  76.213   4.440  1.00  0.00    -0.030 C 
HETATM   12  C18 UNL     1      10.065  76.980   4.107  1.00  0.00     0.016 C 
HETATM   13  C19 UNL     1      12.005  77.180   5.392  1.00  0.00     0.011 C 
HETATM   14  C20 UNL     1      12.163  78.534   4.683  1.00  0.00     0.011 C 
HETATM   15  C21 UNL     1      13.115  78.412   3.536  1.00  0.00    -0.034 C 
HETATM   16  C22 UNL     1      14.520  78.325   4.090  1.00  0.00     0.016 C 
HETATM   17  C23 UNL     1      13.112  79.660   2.679  1.00  0.00     0.019 C 
HETATM   18  C24 UNL     1      11.764  80.265   2.454  1.00  0.00     0.013 C 
HETATM   19  C25 UNL     1      13.916  79.515   1.425  1.00  0.00     0.128 C 
HETATM   20  C26 UNL     1      13.774  78.248   0.680  1.00  0.00     0.040 C 
HETATM   21  C28 UNL     1      13.727  77.008   1.561  1.00  0.00     0.015 C 
HETATM   22  C29 UNL     1      12.727  77.278   2.639  1.00  0.00    -0.001 C 
HETATM   23  C30 UNL     1      12.264  76.032   3.304  1.00  0.00    -0.001 C 
HETATM   24  C31 UNL     1      13.437  75.222   3.755  1.00  0.00     0.006 C 
HETATM   25  C32 UNL     1      13.078  73.883   4.343  1.00  0.00     0.011 C 
HETATM   26  C33 UNL     1      12.062  73.987   5.446  1.00  0.00    -0.024 C 
HETATM   27  C34 UNL     1      12.849  74.473   6.665  1.00  0.00     0.017 C 
HETATM   28  C35 UNL     1      11.550  72.622   5.850  1.00  0.00    -0.009 C 
HETATM   29  C36 UNL     1      11.224  72.591   7.349  1.00  0.00     0.018 C 
HETATM   30  C37 UNL     1      12.683  71.606   5.703  1.00  0.00     0.014 C 
HETATM   31  C38 UNL     1      12.221  70.193   5.956  1.00  0.00     0.020 C 
ENDROOT
BRANCH   1  32
HETATM   32  C4  UNL     1      10.108  68.934   5.559  1.00  0.00     0.227 C 
HETATM   33  N1  UNL     1      10.153  67.576   5.957  1.00  0.00    -0.357 N 
ATOM     34  H1  UNL     1      11.038  67.080   5.859  1.00  0.00     0.162 HD
HETATM   35  O1  UNL     1       8.932  69.438   5.730  1.00  0.00    -0.273 OA
BRANCH  33  36
HETATM   36  C3  UNL     1       9.026  66.848   6.494  1.00  0.00     0.149 C 
BRANCH  36  37
HETATM   37  C2  UNL     1       9.169  66.605   7.965  1.00  0.00    -0.018 C 
HETATM   38  C1  UNL     1       9.838  67.417   8.731  1.00  0.00     0.008 C 
ENDBRANCH  36  37
ENDBRANCH  33  36
ENDBRANCH   1  32
BRANCH   4  39
HETATM   39  C9  UNL     1       9.259  71.108   2.192  1.00  0.00    -0.088 C 
HETATM   40  C10 UNL     1       7.969  71.333   1.965  1.00  0.00     0.014 C 
HETATM   41  C11 UNL     1      10.236  71.652   1.192  1.00  0.00     0.043 C 
ENDBRANCH   4  39
BRANCH  20  42
HETATM   42  C27 UNL     1      12.636  78.232  -0.320  1.00  0.00     0.200 C 
BRANCH  42  43
HETATM   43  O4  UNL     1      12.210  76.948  -0.559  1.00  0.00    -0.257 OA
BRANCH  43  44
HETATM   44  S1  UNL     1      10.544  76.868  -0.359  1.00  0.00     0.251 S 
HETATM   45  O5  UNL     1      10.224  75.622   0.443  1.00  0.00    -0.572 OA
HETATM   46  O6  UNL     1       9.831  76.851  -1.679  1.00  0.00    -0.572 OA
HETATM   47  O7  UNL     1       9.957  78.172   0.524  1.00  0.00    -0.572 OA
ENDBRANCH  43  44
ENDBRANCH  42  43
ENDBRANCH  20  42
BRANCH  19  48
HETATM   48  O3  UNL     1      13.534  80.566   0.571  1.00  0.00    -0.395 OA
ATOM     49  H3  UNL     1      14.304  81.105   0.436  1.00  0.00     0.210 HD
ENDBRANCH  19  48
TORSDOF 8
ENDMDL
MODEL 5
REMARK VINA RESULT: -7.089500638      1.255      1.548
REMARK  8 active torsions:
REMARK  status: ('A' for Active; 'I' for Inactive)
REMARK    1  A    between atoms: C2_2  and  C3_3 
REMARK    2  A    between atoms: C3_3  and  N1_4 
REMARK       I    between atoms: N1_4  and  C4_6 
REMARK    3  A    between atoms: C4_6  and  C5_8 
REMARK    4  A    between atoms: C8_11  and  C9_12 
REMARK    5  A    between atoms: C25_29  and  O3_30 
REMARK    6  A    between atoms: C26_32  and  C27_33 
REMARK    7  A    between atoms: C27_33  and  O4_34 
REMARK    8  A    between atoms: O4_34  and  S1_35 
ROOT
HETATM    1  C5  UNL     1      10.459  71.902   2.822  1.00  0.00     0.048 C 
HETATM    2  C6  UNL     1       8.984  71.532   2.550  1.00  0.00     0.020 C 
HETATM    3  C7  UNL     1       8.911  70.157   3.180  1.00  0.00     0.011 C 
HETATM    4  C8  UNL     1      10.179  70.011   4.058  1.00  0.00     0.021 C 
HETATM    5  C12 UNL     1      10.440  71.446   4.288  1.00  0.00     0.041 C 
HETATM    6  C13 UNL     1      11.663  71.874   4.988  1.00  0.00     0.136 C 
HETATM    7  O2  UNL     1      11.963  71.177   6.153  1.00  0.00    -0.384 OA
HETATM    8  C14 UNL     1      11.407  71.683   7.294  1.00  0.00     0.178 C 
HETATM    9  C15 UNL     1      12.077  73.017   7.600  1.00  0.00    -0.007 C 
HETATM   10  C16 UNL     1      13.564  72.781   7.450  1.00  0.00     0.019 C 
HETATM   11  C17 UNL     1      11.805  73.346   9.008  1.00  0.00    -0.030 C 
HETATM   12  C18 UNL     1      12.474  72.348   9.903  1.00  0.00     0.016 C 
HETATM   13  C19 UNL     1      12.424  74.649   9.505  1.00  0.00     0.011 C 
HETATM   14  C20 UNL     1      12.178  74.760  11.018  1.00  0.00     0.011 C 
HETATM   15  C21 UNL     1      10.718  74.927  11.295  1.00  0.00    -0.034 C 
HETATM   16  C22 UNL     1      10.324  76.344  10.936  1.00  0.00     0.016 C 
HETATM   17  C23 UNL     1      10.418  74.805  12.774  1.00  0.00     0.019 C 
HETATM   18  C24 UNL     1      11.183  73.735  13.484  1.00  0.00     0.013 C 
HETATM   19  C25 UNL     1       8.953  74.791  13.078  1.00  0.00     0.128 C 
HETATM   20  C26 UNL     1       8.093  73.974  12.199  1.00  0.00     0.040 C 
HETATM   21  C28 UNL     1       8.442  74.070  10.721  1.00  0.00     0.015 C 
HETATM   22  C29 UNL     1       9.918  73.865  10.609  1.00  0.00    -0.001 C 
HETATM   23  C30 UNL     1      10.335  73.508   9.226  1.00  0.00    -0.001 C 
HETATM   24  C31 UNL     1       9.785  74.497   8.250  1.00  0.00     0.006 C 
HETATM   25  C32 UNL     1      10.055  74.163   6.807  1.00  0.00     0.011 C 
HETATM   26  C33 UNL     1      11.513  73.915   6.533  1.00  0.00    -0.024 C 
HETATM   27  C34 UNL     1      12.148  75.306   6.479  1.00  0.00     0.017 C 
HETATM   28  C35 UNL     1      11.720  73.355   5.143  1.00  0.00    -0.009 C 
HETATM   29  C36 UNL     1      13.053  73.842   4.561  1.00  0.00     0.018 C 
HETATM   30  C37 UNL     1      10.672  73.954   4.206  1.00  0.00     0.014 C 
HETATM   31  C38 UNL     1      10.722  73.346   2.827  1.00  0.00     0.020 C 
ENDROOT
BRANCH   1  32
HETATM   32  C4  UNL     1      11.250  71.087   1.919  1.00  0.00     0.227 C 
HETATM   33  N1  UNL     1      10.859  70.524   0.679  1.00  0.00    -0.357 N 
ATOM     34  H1  UNL     1       9.906  70.692   0.359  1.00  0.00     0.162 HD
HETATM   35  O1  UNL     1      12.473  70.793   2.206  1.00  0.00    -0.273 OA
BRANCH  33  36
HETATM   36  C3  UNL     1      11.724  69.727  -0.161  1.00  0.00     0.149 C 
BRANCH  36  37
HETATM   37  C2  UNL     1      12.063  68.414   0.475  1.00  0.00    -0.018 C 
HETATM   38  C1  UNL     1      13.236  67.868   0.336  1.00  0.00     0.008 C 
ENDBRANCH  36  37
ENDBRANCH  33  36
ENDBRANCH   1  32
BRANCH   4  39
HETATM   39  C9  UNL     1       9.758  69.224   5.248  1.00  0.00    -0.088 C 
HETATM   40  C10 UNL     1      10.229  68.003   5.486  1.00  0.00     0.014 C 
HETATM   41  C11 UNL     1       8.759  69.774   6.222  1.00  0.00     0.043 C 
ENDBRANCH   4  39
BRANCH  20  42
HETATM   42  C27 UNL     1       7.961  72.524  12.620  1.00  0.00     0.200 C 
BRANCH  42  43
HETATM   43  O4  UNL     1       7.541  71.744  11.570  1.00  0.00    -0.257 OA
BRANCH  43  44
HETATM   44  S1  UNL     1       8.542  70.401  11.439  1.00  0.00     0.251 S 
HETATM   45  O5  UNL     1       9.811  70.681  12.221  1.00  0.00    -0.572 OA
HETATM   46  O6  UNL     1       8.855  70.086  10.007  1.00  0.00    -0.572 OA
HETATM   47  O7  UNL     1       7.847  69.034  12.125  1.00  0.00    -0.572 OA
ENDBRANCH  43  44
ENDBRANCH  42  43
ENDBRANCH  20  42
BRANCH  19  48
HETATM   48  O3  UNL     1       8.813  74.307  14.393  1.00  0.00    -0.395 OA
ATOM     49  H3  UNL     1       7.885  74.327  14.597  1.00  0.00     0.210 HD
ENDBRANCH  19  48
TORSDOF 8
ENDMDL
