MODEL 1
REMARK VINA RESULT: -8.609958737      0.000      0.000
REMARK  9 active torsions:
REMARK  status: ('A' for Active; 'I' for Inactive)
REMARK    1  A    between atoms: C2_2  and  C4_4 
REMARK       I    between atoms: C4_4  and  N1_6 
REMARK    2  A    between atoms: C6_8  and  O2_9 
REMARK    3  A    between atoms: O2_9  and  C7_10 
REMARK    4  A    between atoms: C7_10  and  C8_11 
REMARK    5  A    between atoms: C8_11  and  O3_12 
REMARK    6  A    between atoms: C8_11  and  C9_14 
REMARK    7  A    between atoms: C9_14  and  O4_15 
REMARK    8  A    between atoms: O4_15  and  C10_16 
REMARK    9  A    between atoms: C30_39  and  O5_40 
ROOT
HETATM    1  C4  UNL     1      11.324  69.765   1.929  1.00  0.00     0.224 C 
HETATM    2  O1  UNL     1      11.104  70.790   1.266  1.00  0.00    -0.273 OA
HETATM    3  N1  UNL     1      11.014  69.809   3.308  1.00  0.00    -0.340 N 
HETATM    4  C5  UNL     1      11.272  68.558   3.995  1.00  0.00     0.158 C 
HETATM    5  C6  UNL     1      10.050  68.354   4.877  1.00  0.00     0.140 C 
HETATM    6  C16 UNL     1      10.309  69.391   5.972  1.00  0.00     0.045 C 
HETATM    7  C17 UNL     1      10.152  70.808   5.411  1.00  0.00    -0.012 C 
HETATM    8  C18 UNL     1       8.645  71.051   5.665  1.00  0.00     0.018 C 
HETATM    9  C19 UNL     1      10.828  71.680   6.441  1.00  0.00     0.005 C 
HETATM   10  C20 UNL     1      12.243  71.185   6.820  1.00  0.00     0.007 C 
HETATM   11  C21 UNL     1      12.974  72.410   7.294  1.00  0.00     0.012 C 
HETATM   12  C22 UNL     1      11.959  73.568   7.271  1.00  0.00    -0.021 C 
HETATM   13  C23 UNL     1      12.456  74.774   6.515  1.00  0.00    -0.004 C 
HETATM   14  C24 UNL     1      12.805  75.993   7.325  1.00  0.00     0.006 C 
HETATM   15  C25 UNL     1      13.369  75.465   8.565  1.00  0.00     0.007 C 
HETATM   16  C26 UNL     1      12.224  74.867   9.369  1.00  0.00     0.005 C 
HETATM   17  C27 UNL     1      11.473  75.841  10.190  1.00  0.00    -0.017 C 
HETATM   18  C28 UNL     1      11.210  75.354  11.629  1.00  0.00     0.018 C 
HETATM   19  C29 UNL     1      12.422  77.031  10.437  1.00  0.00     0.018 C 
HETATM   20  C30 UNL     1      10.229  76.412   9.674  1.00  0.00     0.126 C 
HETATM   21  C31 UNL     1       9.479  75.453   8.852  1.00  0.00     0.033 C 
HETATM   22  C32 UNL     1       9.970  74.061   8.792  1.00  0.00     0.013 C 
HETATM   23  C33 UNL     1      11.444  73.793   8.615  1.00  0.00    -0.031 C 
HETATM   24  C34 UNL     1      11.659  72.622   9.608  1.00  0.00     0.016 C 
HETATM   25  C35 UNL     1      11.336  75.248   5.615  1.00  0.00     0.006 C 
HETATM   26  C36 UNL     1      10.324  74.084   5.561  1.00  0.00     0.011 C 
HETATM   27  C37 UNL     1      11.156  73.040   6.113  1.00  0.00    -0.027 C 
HETATM   28  C38 UNL     1      12.095  72.806   4.901  1.00  0.00     0.013 C 
HETATM   29  C39 UNL     1      11.410  72.169   3.753  1.00  0.00     0.032 C 
HETATM   30  C40 UNL     1      10.492  70.999   4.002  1.00  0.00     0.039 C 
HETATM   31  C41 UNL     1       9.231  71.317   3.183  1.00  0.00     0.039 C 
ENDROOT
BRANCH   5  32
HETATM   32  O2  UNL     1      10.168  67.116   5.452  1.00  0.00    -0.382 OA
BRANCH  32  33
HETATM   33  C7  UNL     1       9.927  67.078   6.821  1.00  0.00     0.202 C 
BRANCH  33  34
HETATM   34  C8  UNL     1       8.484  66.682   7.042  1.00  0.00     0.165 C 
BRANCH  34  35
HETATM   35  O3  UNL     1       8.333  65.297   7.120  1.00  0.00    -0.391 OA
ATOM     36  H3  UNL     1       7.480  65.054   7.461  1.00  0.00     0.210 HD
ENDBRANCH  34  35
BRANCH  34  37
HETATM   37  C9  UNL     1       7.920  67.332   8.294  1.00  0.00     0.202 C 
BRANCH  37  38
HETATM   38  O4  UNL     1       7.714  68.692   8.101  1.00  0.00    -0.383 OA
BRANCH  38  39
HETATM   39  C10 UNL     1       7.513  69.422   9.245  1.00  0.00     0.123 C 
HETATM   40  C11 UNL     1       8.766  70.208   9.516  1.00  0.00     0.034 C 
HETATM   41  C12 UNL     1       9.807  69.448  10.267  1.00  0.00     0.030 C 
HETATM   42  C13 UNL     1       9.721  69.605  11.772  1.00  0.00     0.232 C 
HETATM   43  N2  UNL     1       8.660  68.753  12.275  1.00  0.00    -0.075 N 
HETATM   44  C14 UNL     1       7.410  69.255  11.710  1.00  0.00     0.235 C 
ATOM     45  H22 UNL     1       8.817  67.763  12.086  1.00  0.00     0.277 HD
ATOM     46  H21 UNL     1       8.645  68.690  13.292  1.00  0.00     0.277 HD
HETATM   47  C15 UNL     1       7.098  68.568  10.422  1.00  0.00     0.059 C 
ENDBRANCH  38  39
ENDBRANCH  37  38
ENDBRANCH  34  37
ENDBRANCH  33  34
ENDBRANCH  32  33
ENDBRANCH   5  32
BRANCH   1  48
HETATM   48  C2  UNL     1      11.890  68.611   1.206  1.00  0.00     0.070 C 
HETATM   49  C1  UNL     1      13.214  68.156   1.746  1.00  0.00     0.019 C 
HETATM   50  C3  UNL     1      12.103  68.984  -0.245  1.00  0.00     0.019 C 
ENDBRANCH   1  48
BRANCH  20  51
HETATM   51  O5  UNL     1       9.452  76.871  10.772  1.00  0.00    -0.395 OA
ATOM     52  H5  UNL     1       9.897  77.611  11.168  1.00  0.00     0.210 HD
ENDBRANCH  20  51
TORSDOF 9
ENDMDL
MODEL 2
REMARK VINA RESULT: -8.464066719      1.172      1.311
REMARK  9 active torsions:
REMARK  status: ('A' for Active; 'I' for Inactive)
REMARK    1  A    between atoms: C2_2  and  C4_4 
REMARK       I    between atoms: C4_4  and  N1_6 
REMARK    2  A    between atoms: C6_8  and  O2_9 
REMARK    3  A    between atoms: O2_9  and  C7_10 
REMARK    4  A    between atoms: C7_10  and  C8_11 
REMARK    5  A    between atoms: C8_11  and  O3_12 
REMARK    6  A    between atoms: C8_11  and  C9_14 
REMARK    7  A    between atoms: C9_14  and  O4_15 
REMARK    8  A    between atoms: O4_15  and  C10_16 
REMARK    9  A    between atoms: C30_39  and  O5_40 
ROOT
HETATM    1  C4  UNL     1      11.769  69.506   1.563  1.00  0.00     0.224 C 
HETATM    2  O1  UNL     1      11.620  70.403   0.718  1.00  0.00    -0.273 OA
HETATM    3  N1  UNL     1      11.311  69.772   2.874  1.00  0.00    -0.340 N 
HETATM    4  C5  UNL     1      11.496  68.657   3.784  1.00  0.00     0.158 C 
HETATM    5  C6  UNL     1      10.186  68.576   4.551  1.00  0.00     0.140 C 
HETATM    6  C16 UNL     1      10.322  69.786   5.480  1.00  0.00     0.045 C 
HETATM    7  C17 UNL     1      10.223  71.086   4.677  1.00  0.00    -0.012 C 
HETATM    8  C18 UNL     1       8.696  71.338   4.725  1.00  0.00     0.018 C 
HETATM    9  C19 UNL     1      10.780  72.131   5.613  1.00  0.00     0.005 C 
HETATM   10  C20 UNL     1      12.147  71.735   6.219  1.00  0.00     0.007 C 
HETATM   11  C21 UNL     1      12.819  73.036   6.557  1.00  0.00     0.012 C 
HETATM   12  C22 UNL     1      11.810  74.153   6.234  1.00  0.00    -0.021 C 
HETATM   13  C23 UNL     1      12.383  75.227   5.344  1.00  0.00    -0.004 C 
HETATM   14  C24 UNL     1      12.639  76.571   5.973  1.00  0.00     0.006 C 
HETATM   15  C25 UNL     1      13.066  76.266   7.336  1.00  0.00     0.007 C 
HETATM   16  C26 UNL     1      11.842  75.786   8.101  1.00  0.00     0.005 C 
HETATM   17  C27 UNL     1      11.004  76.867   8.664  1.00  0.00    -0.017 C 
HETATM   18  C28 UNL     1      10.587  76.619  10.128  1.00  0.00     0.018 C 
HETATM   19  C29 UNL     1      11.917  78.101   8.809  1.00  0.00     0.018 C 
HETATM   20  C30 UNL     1       9.822  77.319   7.930  1.00  0.00     0.126 C 
HETATM   21  C31 UNL     1       9.168  76.222   7.204  1.00  0.00     0.033 C 
HETATM   22  C32 UNL     1       9.666  74.850   7.430  1.00  0.00     0.013 C 
HETATM   23  C33 UNL     1      11.152  74.586   7.458  1.00  0.00    -0.031 C 
HETATM   24  C34 UNL     1      11.260  73.600   8.650  1.00  0.00     0.016 C 
HETATM   25  C35 UNL     1      11.367  75.523   4.264  1.00  0.00     0.006 C 
HETATM   26  C36 UNL     1      10.370  74.345   4.297  1.00  0.00     0.011 C 
HETATM   27  C37 UNL     1      11.140  73.424   5.100  1.00  0.00    -0.027 C 
HETATM   28  C38 UNL     1      12.204  73.012   4.052  1.00  0.00     0.013 C 
HETATM   29  C39 UNL     1      11.650  72.181   2.960  1.00  0.00     0.032 C 
HETATM   30  C40 UNL     1      10.714  71.049   3.300  1.00  0.00     0.039 C 
HETATM   31  C41 UNL     1       9.548  71.202   2.310  1.00  0.00     0.039 C 
ENDROOT
BRANCH   5  32
HETATM   32  O2  UNL     1      10.243  67.453   5.334  1.00  0.00    -0.382 OA
BRANCH  32  33
HETATM   33  C7  UNL     1       9.123  67.230   6.127  1.00  0.00     0.202 C 
BRANCH  33  34
HETATM   34  C8  UNL     1       9.580  66.655   7.449  1.00  0.00     0.165 C 
BRANCH  34  35
HETATM   35  O3  UNL     1      10.872  67.071   7.775  1.00  0.00    -0.391 OA
ATOM     36  H3  UNL     1      10.872  67.688   8.498  1.00  0.00     0.210 HD
ENDBRANCH  34  35
BRANCH  34  37
HETATM   37  C9  UNL     1       8.624  67.025   8.571  1.00  0.00     0.202 C 
BRANCH  37  38
HETATM   38  O4  UNL     1       7.919  68.182   8.265  1.00  0.00    -0.383 OA
BRANCH  38  39
HETATM   39  C10 UNL     1       7.822  69.095   9.283  1.00  0.00     0.123 C 
HETATM   40  C11 UNL     1       8.621  70.308   8.892  1.00  0.00     0.034 C 
HETATM   41  C12 UNL     1      10.073  70.207   9.215  1.00  0.00     0.030 C 
HETATM   42  C13 UNL     1      10.442  70.753  10.580  1.00  0.00     0.232 C 
HETATM   43  N2  UNL     1      10.094  69.771  11.590  1.00  0.00    -0.075 N 
HETATM   44  C14 UNL     1       8.641  69.624  11.556  1.00  0.00     0.235 C 
ATOM     45  H22 UNL     1      10.590  68.887  11.478  1.00  0.00     0.277 HD
ATOM     46  H21 UNL     1      10.452  70.004  12.516  1.00  0.00     0.277 HD
HETATM   47  C15 UNL     1       8.243  68.531  10.622  1.00  0.00     0.059 C 
ENDBRANCH  38  39
ENDBRANCH  37  38
ENDBRANCH  34  37
ENDBRANCH  33  34
ENDBRANCH  32  33
ENDBRANCH   5  32
BRANCH   1  48
HETATM   48  C2  UNL     1      12.413  68.261   1.107  1.00  0.00     0.070 C 
HETATM   49  C1  UNL     1      13.614  67.874   1.920  1.00  0.00     0.019 C 
HETATM   50  C3  UNL     1      12.878  68.431  -0.323  1.00  0.00     0.019 C 
ENDBRANCH   1  48
BRANCH  20  51
HETATM   51  O5  UNL     1       8.929  77.937   8.847  1.00  0.00    -0.395 OA
ATOM     52  H5  UNL     1       8.096  78.073   8.411  1.00  0.00     0.210 HD
ENDBRANCH  20  51
TORSDOF 9
ENDMDL
MODEL 3
REMARK VINA RESULT: -8.247071495      1.247      1.453
REMARK  9 active torsions:
REMARK  status: ('A' for Active; 'I' for Inactive)
REMARK    1  A    between atoms: C2_2  and  C4_4 
REMARK       I    between atoms: C4_4  and  N1_6 
REMARK    2  A    between atoms: C6_8  and  O2_9 
REMARK    3  A    between atoms: O2_9  and  C7_10 
REMARK    4  A    between atoms: C7_10  and  C8_11 
REMARK    5  A    between atoms: C8_11  and  O3_12 
REMARK    6  A    between atoms: C8_11  and  C9_14 
REMARK    7  A    between atoms: C9_14  and  O4_15 
REMARK    8  A    between atoms: O4_15  and  C10_16 
REMARK    9  A    between atoms: C30_39  and  O5_40 
ROOT
HETATM    1  C4  UNL     1      10.868  69.943   2.835  1.00  0.00     0.224 C 
HETATM    2  O1  UNL     1      10.407  70.837   2.108  1.00  0.00    -0.273 OA
HETATM    3  N1  UNL     1      10.838  70.166   4.231  1.00  0.00    -0.340 N 
HETATM    4  C5  UNL     1      11.366  69.056   5.001  1.00  0.00     0.158 C 
HETATM    5  C6  UNL     1      10.376  68.885   6.143  1.00  0.00     0.140 C 
HETATM    6  C16 UNL     1      10.733  70.091   7.015  1.00  0.00     0.045 C 
HETATM    7  C17 UNL     1      10.309  71.391   6.324  1.00  0.00    -0.012 C 
HETATM    8  C18 UNL     1       8.866  71.544   6.862  1.00  0.00     0.018 C 
HETATM    9  C19 UNL     1      11.076  72.459   7.065  1.00  0.00     0.005 C 
HETATM   10  C20 UNL     1      12.584  72.145   7.193  1.00  0.00     0.007 C 
HETATM   11  C21 UNL     1      13.254  73.483   7.338  1.00  0.00     0.012 C 
HETATM   12  C22 UNL     1      12.133  74.537   7.386  1.00  0.00    -0.021 C 
HETATM   13  C23 UNL     1      12.330  75.653   6.393  1.00  0.00    -0.004 C 
HETATM   14  C24 UNL     1      12.696  77.004   6.947  1.00  0.00     0.006 C 
HETATM   15  C25 UNL     1      13.553  76.714   8.094  1.00  0.00     0.007 C 
HETATM   16  C26 UNL     1      12.666  76.149   9.194  1.00  0.00     0.005 C 
HETATM   17  C27 UNL     1      11.991  77.169  10.026  1.00  0.00    -0.017 C 
HETATM   18  C28 UNL     1      12.078  76.881  11.538  1.00  0.00     0.018 C 
HETATM   19  C29 UNL     1      12.831  78.457   9.909  1.00  0.00     0.018 C 
HETATM   20  C30 UNL     1      10.613  77.553   9.719  1.00  0.00     0.126 C 
HETATM   21  C31 UNL     1       9.825  76.424   9.206  1.00  0.00     0.033 C 
HETATM   22  C32 UNL     1      10.447  75.084   9.222  1.00  0.00     0.013 C 
HETATM   23  C33 UNL     1      11.876  74.915   8.768  1.00  0.00    -0.031 C 
HETATM   24  C34 UNL     1      12.415  73.926   9.834  1.00  0.00     0.016 C 
HETATM   25  C35 UNL     1      11.007  75.895   5.700  1.00  0.00     0.006 C 
HETATM   26  C36 UNL     1      10.141  74.656   6.014  1.00  0.00     0.011 C 
HETATM   27  C37 UNL     1      11.178  73.777   6.503  1.00  0.00    -0.027 C 
HETATM   28  C38 UNL     1      11.875  73.444   5.159  1.00  0.00     0.013 C 
HETATM   29  C39 UNL     1      11.049  72.590   4.275  1.00  0.00     0.032 C 
HETATM   30  C40 UNL     1      10.336  71.398   4.863  1.00  0.00     0.039 C 
HETATM   31  C41 UNL     1       8.909  71.487   4.298  1.00  0.00     0.039 C 
ENDROOT
BRANCH   5  32
HETATM   32  O2  UNL     1      10.745  67.760   6.833  1.00  0.00    -0.382 OA
BRANCH  32  33
HETATM   33  C7  UNL     1       9.777  66.763   6.894  1.00  0.00     0.202 C 
BRANCH  33  34
HETATM   34  C8  UNL     1       8.736  67.170   7.913  1.00  0.00     0.165 C 
BRANCH  34  35
HETATM   35  O3  UNL     1       7.522  66.515   7.704  1.00  0.00    -0.391 OA
ATOM     36  H3  UNL     1       7.626  65.570   7.708  1.00  0.00     0.210 HD
ENDBRANCH  34  35
BRANCH  34  37
HETATM   37  C9  UNL     1       9.221  66.911   9.330  1.00  0.00     0.202 C 
BRANCH  37  38
HETATM   38  O4  UNL     1       9.902  68.013   9.833  1.00  0.00    -0.383 OA
BRANCH  38  39
HETATM   39  C10 UNL     1       9.202  68.773  10.734  1.00  0.00     0.123 C 
HETATM   40  C11 UNL     1       9.289  70.208  10.292  1.00  0.00     0.034 C 
HETATM   41  C12 UNL     1      10.517  70.912  10.759  1.00  0.00     0.030 C 
HETATM   42  C13 UNL     1      10.354  71.626  12.086  1.00  0.00     0.232 C 
HETATM   43  N2  UNL     1      10.440  70.653  13.158  1.00  0.00    -0.075 N 
HETATM   44  C14 UNL     1       9.302  69.750  13.004  1.00  0.00     0.235 C 
ATOM     45  H22 UNL     1      11.336  70.167  13.188  1.00  0.00     0.277 HD
ATOM     46  H21 UNL     1      10.492  71.079  14.083  1.00  0.00     0.277 HD
HETATM   47  C15 UNL     1       9.670  68.576  12.159  1.00  0.00     0.059 C 
ENDBRANCH  38  39
ENDBRANCH  37  38
ENDBRANCH  34  37
ENDBRANCH  33  34
ENDBRANCH  32  33
ENDBRANCH   5  32
BRANCH   1  48
HETATM   48  C2  UNL     1      11.403  68.745   2.162  1.00  0.00     0.070 C 
HETATM   49  C1  UNL     1      12.856  68.497   2.443  1.00  0.00     0.019 C 
HETATM   50  C3  UNL     1      11.259  68.906   0.663  1.00  0.00     0.019 C 
ENDBRANCH   1  48
BRANCH  20  51
HETATM   51  O5  UNL     1      10.026  78.104  10.890  1.00  0.00    -0.395 OA
ATOM     52  H5  UNL     1      10.663  78.673  11.307  1.00  0.00     0.210 HD
ENDBRANCH  20  51
TORSDOF 9
ENDMDL
MODEL 4
REMARK VINA RESULT: -8.189875321      2.307      3.319
REMARK  9 active torsions:
REMARK  status: ('A' for Active; 'I' for Inactive)
REMARK    1  A    between atoms: C2_2  and  C4_4 
REMARK       I    between atoms: C4_4  and  N1_6 
REMARK    2  A    between atoms: C6_8  and  O2_9 
REMARK    3  A    between atoms: O2_9  and  C7_10 
REMARK    4  A    between atoms: C7_10  and  C8_11 
REMARK    5  A    between atoms: C8_11  and  O3_12 
REMARK    6  A    between atoms: C8_11  and  C9_14 
REMARK    7  A    between atoms: C9_14  and  O4_15 
REMARK    8  A    between atoms: O4_15  and  C10_16 
REMARK    9  A    between atoms: C30_39  and  O5_40 
ROOT
HETATM    1  C4  UNL     1      10.869  70.152   2.907  1.00  0.00     0.224 C 
HETATM    2  O1  UNL     1      10.362  71.016   2.176  1.00  0.00    -0.273 OA
HETATM    3  N1  UNL     1      10.909  70.423   4.294  1.00  0.00    -0.340 N 
HETATM    4  C5  UNL     1      11.488  69.344   5.073  1.00  0.00     0.158 C 
HETATM    5  C6  UNL     1      10.560  69.204   6.270  1.00  0.00     0.140 C 
HETATM    6  C16 UNL     1      10.950  70.443   7.081  1.00  0.00     0.045 C 
HETATM    7  C17 UNL     1      10.479  71.714   6.370  1.00  0.00    -0.012 C 
HETATM    8  C18 UNL     1       9.063  71.875   6.977  1.00  0.00     0.018 C 
HETATM    9  C19 UNL     1      11.272  72.814   7.033  1.00  0.00     0.005 C 
HETATM   10  C20 UNL     1      12.788  72.515   7.092  1.00  0.00     0.007 C 
HETATM   11  C21 UNL     1      13.452  73.863   7.157  1.00  0.00     0.012 C 
HETATM   12  C22 UNL     1      12.325  74.909   7.227  1.00  0.00    -0.021 C 
HETATM   13  C23 UNL     1      12.459  75.992   6.188  1.00  0.00    -0.004 C 
HETATM   14  C24 UNL     1      12.841  77.364   6.675  1.00  0.00     0.006 C 
HETATM   15  C25 UNL     1      13.758  77.120   7.786  1.00  0.00     0.007 C 
HETATM   16  C26 UNL     1      12.935  76.587   8.949  1.00  0.00     0.005 C 
HETATM   17  C27 UNL     1      12.295  77.630   9.780  1.00  0.00    -0.017 C 
HETATM   18  C28 UNL     1      12.463  77.395  11.294  1.00  0.00     0.018 C 
HETATM   19  C29 UNL     1      13.115  78.919   9.575  1.00  0.00     0.018 C 
HETATM   20  C30 UNL     1      10.899  77.992   9.533  1.00  0.00     0.126 C 
HETATM   21  C31 UNL     1      10.097  76.840   9.100  1.00  0.00     0.033 C 
HETATM   22  C32 UNL     1      10.731  75.506   9.129  1.00  0.00     0.013 C 
HETATM   23  C33 UNL     1      12.137  75.333   8.607  1.00  0.00    -0.031 C 
HETATM   24  C34 UNL     1      12.739  74.385   9.676  1.00  0.00     0.016 C 
HETATM   25  C35 UNL     1      11.100  76.199   5.557  1.00  0.00     0.006 C 
HETATM   26  C36 UNL     1      10.263  74.966   5.958  1.00  0.00     0.011 C 
HETATM   27  C37 UNL     1      11.333  74.112   6.422  1.00  0.00    -0.027 C 
HETATM   28  C38 UNL     1      11.961  73.739   5.055  1.00  0.00     0.013 C 
HETATM   29  C39 UNL     1      11.099  72.848   4.246  1.00  0.00     0.032 C 
HETATM   30  C40 UNL     1      10.429  71.672   4.909  1.00  0.00     0.039 C 
HETATM   31  C41 UNL     1       8.974  71.729   4.418  1.00  0.00     0.039 C 
ENDROOT
BRANCH   5  32
HETATM   32  O2  UNL     1      10.975  68.107   6.978  1.00  0.00    -0.382 OA
BRANCH  32  33
HETATM   33  C7  UNL     1       9.988  67.492   7.742  1.00  0.00     0.202 C 
BRANCH  33  34
HETATM   34  C8  UNL     1       9.389  66.366   6.930  1.00  0.00     0.165 C 
BRANCH  34  35
HETATM   35  O3  UNL     1      10.220  65.244   6.908  1.00  0.00    -0.391 OA
ATOM     36  H3  UNL     1       9.758  64.458   7.178  1.00  0.00     0.210 HD
ENDBRANCH  34  35
BRANCH  34  37
HETATM   37  C9  UNL     1       8.017  65.977   7.455  1.00  0.00     0.202 C 
BRANCH  37  38
HETATM   38  O4  UNL     1       7.224  65.455   6.440  1.00  0.00    -0.383 OA
BRANCH  38  39
HETATM   39  C10 UNL     1       6.372  64.451   6.821  1.00  0.00     0.123 C 
HETATM   40  C11 UNL     1       5.609  64.007   5.604  1.00  0.00     0.034 C 
HETATM   41  C12 UNL     1       4.400  64.829   5.313  1.00  0.00     0.030 C 
HETATM   42  C13 UNL     1       3.128  64.305   5.952  1.00  0.00     0.232 C 
HETATM   43  N2  UNL     1       3.115  64.683   7.353  1.00  0.00    -0.075 N 
HETATM   44  C14 UNL     1       4.239  63.998   7.987  1.00  0.00     0.235 C 
ATOM     45  H22 UNL     1       3.128  65.693   7.496  1.00  0.00     0.277 HD
ATOM     46  H21 UNL     1       2.222  64.498   7.809  1.00  0.00     0.277 HD
HETATM   47  C15 UNL     1       5.462  64.853   7.961  1.00  0.00     0.059 C 
ENDBRANCH  38  39
ENDBRANCH  37  38
ENDBRANCH  34  37
ENDBRANCH  33  34
ENDBRANCH  32  33
ENDBRANCH   5  32
BRANCH   1  48
HETATM   48  C2  UNL     1      11.379  68.936   2.248  1.00  0.00     0.070 C 
HETATM   49  C1  UNL     1      12.868  68.778   2.350  1.00  0.00     0.019 C 
HETATM   50  C3  UNL     1      11.035  68.982   0.774  1.00  0.00     0.019 C 
ENDBRANCH   1  48
BRANCH  20  51
HETATM   51  O5  UNL     1      10.369  78.578  10.713  1.00  0.00    -0.395 OA
ATOM     52  H5  UNL     1      10.751  78.141  11.465  1.00  0.00     0.210 HD
ENDBRANCH  20  51
TORSDOF 9
ENDMDL
MODEL 5
REMARK VINA RESULT: -8.044268399      3.453      6.080
REMARK  9 active torsions:
REMARK  status: ('A' for Active; 'I' for Inactive)
REMARK    1  A    between atoms: C2_2  and  C4_4 
REMARK       I    between atoms: C4_4  and  N1_6 
REMARK    2  A    between atoms: C6_8  and  O2_9 
REMARK    3  A    between atoms: O2_9  and  C7_10 
REMARK    4  A    between atoms: C7_10  and  C8_11 
REMARK    5  A    between atoms: C8_11  and  O3_12 
REMARK    6  A    between atoms: C8_11  and  C9_14 
REMARK    7  A    between atoms: C9_14  and  O4_15 
REMARK    8  A    between atoms: O4_15  and  C10_16 
REMARK    9  A    between atoms: C30_39  and  O5_40 
ROOT
HETATM    1  C4  UNL     1      11.672  76.434   1.691  1.00  0.00     0.224 C 
HETATM    2  O1  UNL     1      11.891  77.563   2.160  1.00  0.00    -0.273 OA
HETATM    3  N1  UNL     1      11.115  75.470   2.562  1.00  0.00    -0.340 N 
HETATM    4  C5  UNL     1      10.863  74.194   1.919  1.00  0.00     0.158 C 
HETATM    5  C6  UNL     1       9.481  73.792   2.410  1.00  0.00     0.140 C 
HETATM    6  C16 UNL     1       9.796  73.380   3.850  1.00  0.00     0.045 C 
HETATM    7  C17 UNL     1      10.164  74.609   4.686  1.00  0.00    -0.012 C 
HETATM    8  C18 UNL     1       8.768  75.028   5.209  1.00  0.00     0.018 C 
HETATM    9  C19 UNL     1      10.835  74.027   5.906  1.00  0.00     0.005 C 
HETATM   10  C20 UNL     1      11.945  73.008   5.559  1.00  0.00     0.007 C 
HETATM   11  C21 UNL     1      12.881  73.030   6.735  1.00  0.00     0.012 C 
HETATM   12  C22 UNL     1      12.262  73.980   7.776  1.00  0.00    -0.021 C 
HETATM   13  C23 UNL     1      13.223  75.040   8.252  1.00  0.00    -0.004 C 
HETATM   14  C24 UNL     1      13.731  74.918   9.663  1.00  0.00     0.006 C 
HETATM   15  C25 UNL     1      13.859  73.480   9.888  1.00  0.00     0.007 C 
HETATM   16  C26 UNL     1      12.453  72.910  10.006  1.00  0.00     0.005 C 
HETATM   17  C27 UNL     1      11.859  73.012  11.357  1.00  0.00    -0.017 C 
HETATM   18  C28 UNL     1      11.183  71.710  11.828  1.00  0.00     0.018 C 
HETATM   19  C29 UNL     1      13.035  73.125  12.347  1.00  0.00     0.018 C 
HETATM   20  C30 UNL     1      10.959  74.124  11.666  1.00  0.00     0.126 C 
HETATM   21  C31 UNL     1      10.151  74.521  10.506  1.00  0.00     0.033 C 
HETATM   22  C32 UNL     1      10.229  73.685   9.290  1.00  0.00     0.013 C 
HETATM   23  C33 UNL     1      11.571  73.204   8.796  1.00  0.00    -0.031 C 
HETATM   24  C34 UNL     1      11.240  71.742   8.401  1.00  0.00     0.016 C 
HETATM   25  C35 UNL     1      12.490  76.363   8.246  1.00  0.00     0.006 C 
HETATM   26  C36 UNL     1      11.222  76.133   7.396  1.00  0.00     0.011 C 
HETATM   27  C37 UNL     1      11.595  74.884   6.774  1.00  0.00    -0.027 C 
HETATM   28  C38 UNL     1      12.654  75.412   5.773  1.00  0.00     0.013 C 
HETATM   29  C39 UNL     1      12.064  76.213   4.676  1.00  0.00     0.032 C 
HETATM   30  C40 UNL     1      10.822  75.710   3.985  1.00  0.00     0.039 C 
HETATM   31  C41 UNL     1       9.896  76.935   3.917  1.00  0.00     0.039 C 
ENDROOT
BRANCH   5  32
HETATM   32  O2  UNL     1       9.124  72.657   1.730  1.00  0.00    -0.382 OA
BRANCH  32  33
HETATM   33  C7  UNL     1       8.027  71.979   2.251  1.00  0.00     0.202 C 
BRANCH  33  34
HETATM   34  C8  UNL     1       7.853  70.690   1.480  1.00  0.00     0.165 C 
BRANCH  34  35
HETATM   35  O3  UNL     1       6.849  70.795   0.515  1.00  0.00    -0.391 OA
ATOM     36  H3  UNL     1       6.146  70.174   0.668  1.00  0.00     0.210 HD
ENDBRANCH  34  35
BRANCH  34  37
HETATM   37  C9  UNL     1       9.153  70.261   0.821  1.00  0.00     0.202 C 
BRANCH  37  38
HETATM   38  O4  UNL     1       9.757  69.232   1.533  1.00  0.00    -0.383 OA
BRANCH  38  39
HETATM   39  C10 UNL     1      11.086  69.417   1.816  1.00  0.00     0.123 C 
HETATM   40  C11 UNL     1      11.786  69.770   0.532  1.00  0.00     0.034 C 
HETATM   41  C12 UNL     1      12.195  68.588  -0.279  1.00  0.00     0.030 C 
HETATM   42  C13 UNL     1      13.595  68.089   0.017  1.00  0.00     0.232 C 
HETATM   43  N2  UNL     1      13.568  67.309   1.240  1.00  0.00    -0.075 N 
HETATM   44  C14 UNL     1      13.191  68.220   2.317  1.00  0.00     0.235 C 
ATOM     45  H22 UNL     1      12.966  66.488   1.179  1.00  0.00     0.277 HD
ATOM     46  H21 UNL     1      14.442  66.815   1.419  1.00  0.00     0.277 HD
HETATM   47  C15 UNL     1      11.711  68.227   2.509  1.00  0.00     0.059 C 
ENDBRANCH  38  39
ENDBRANCH  37  38
ENDBRANCH  34  37
ENDBRANCH  33  34
ENDBRANCH  32  33
ENDBRANCH   5  32
BRANCH   1  48
HETATM   48  C2  UNL     1      12.022  76.222   0.274  1.00  0.00     0.070 C 
HETATM   49  C1  UNL     1      13.412  76.670  -0.074  1.00  0.00     0.019 C 
HETATM   50  C3  UNL     1      11.068  77.006  -0.601  1.00  0.00     0.019 C 
ENDBRANCH   1  48
BRANCH  20  51
HETATM   51  O5  UNL     1      10.138  73.748  12.764  1.00  0.00    -0.395 OA
ATOM     52  H5  UNL     1       9.697  74.524  13.090  1.00  0.00     0.210 HD
ENDBRANCH  20  51
TORSDOF 9
ENDMDL
