MODEL 1
REMARK VINA RESULT: -7.410903708      0.000      0.000
REMARK  11 active torsions:
REMARK  status: ('A' for Active; 'I' for Inactive)
REMARK    1  A    between atoms: C2_2  and  N1_3 
REMARK    2  A    between atoms: N1_3  and  C3_4 
REMARK    3  A    between atoms: N1_3  and  C5_6 
REMARK    4  A    between atoms: C5_6  and  C6_7 
REMARK    5  A    between atoms: C6_7  and  O2_9 
REMARK    6  A    between atoms: O2_9  and  C7_10 
REMARK    7  A    between atoms: C21_24  and  O3_25 
REMARK    8  A    between atoms: C22_27  and  O4_28 
REMARK    9  A    between atoms: C23_30  and  O5_31 
REMARK   10  A    between atoms: C33_41  and  C34_42 
REMARK   11  A    between atoms: C34_42  and  O6_43 
ROOT
HETATM    1  C7  UNL     1      12.070  71.973   4.372  1.00  0.00     0.140 C 
HETATM    2  C8  UNL     1      11.827  72.505   2.983  1.00  0.00     0.034 C 
HETATM    3  C9  UNL     1      10.579  73.321   2.960  1.00  0.00     0.013 C 
HETATM    4  C10 UNL     1      10.517  74.520   3.868  1.00  0.00    -0.032 C 
HETATM    5  C11 UNL     1       9.028  74.533   4.339  1.00  0.00     0.016 C 
HETATM    6  C12 UNL     1      11.300  74.294   5.117  1.00  0.00     0.005 C 
HETATM    7  C13 UNL     1      12.302  75.428   5.409  1.00  0.00     0.007 C 
HETATM    8  C14 UNL     1      11.439  76.656   5.357  1.00  0.00     0.006 C 
HETATM    9  C15 UNL     1      11.129  77.008   3.899  1.00  0.00    -0.001 C 
HETATM   10  C16 UNL     1      12.358  77.605   3.383  1.00  0.00     0.002 C 
HETATM   11  C17 UNL     1      13.178  78.555   4.153  1.00  0.00     0.016 C 
HETATM   12  C18 UNL     1      14.404  78.624   3.257  1.00  0.00    -0.029 C 
HETATM   13  C19 UNL     1      15.231  77.370   3.568  1.00  0.00     0.016 C 
HETATM   14  C20 UNL     1      15.257  79.767   3.634  1.00  0.00     0.031 C 
HETATM   15  C21 UNL     1      14.710  80.872   4.459  1.00  0.00     0.154 C 
HETATM   16  C22 UNL     1      15.931  81.615   5.080  1.00  0.00     0.176 C 
HETATM   17  C23 UNL     1      16.522  82.318   3.850  1.00  0.00     0.160 C 
HETATM   18  C25 UNL     1      17.066  81.348   2.867  1.00  0.00    -0.015 C 
HETATM   19  C26 UNL     1      18.402  80.847   3.443  1.00  0.00     0.018 C 
HETATM   20  C27 UNL     1      17.453  82.128   1.613  1.00  0.00     0.018 C 
HETATM   21  C28 UNL     1      16.159  80.217   2.498  1.00  0.00     0.003 C 
HETATM   22  C29 UNL     1      15.451  80.364   1.203  1.00  0.00     0.007 C 
HETATM   23  C30 UNL     1      14.040  79.875   1.132  1.00  0.00     0.011 C 
HETATM   24  C31 UNL     1      13.816  78.571   1.871  1.00  0.00    -0.026 C 
HETATM   25  C32 UNL     1      14.568  77.612   0.957  1.00  0.00     0.017 C 
HETATM   26  C33 UNL     1      12.375  78.173   1.998  1.00  0.00    -0.007 C 
HETATM   27  C35 UNL     1      11.935  76.972   1.196  1.00  0.00     0.013 C 
HETATM   28  C36 UNL     1      11.661  75.710   1.935  1.00  0.00     0.011 C 
HETATM   29  C37 UNL     1      10.721  75.787   3.109  1.00  0.00    -0.032 C 
HETATM   30  C38 UNL     1       9.345  76.057   2.459  1.00  0.00     0.016 C 
HETATM   31  C39 UNL     1      11.800  72.956   5.453  1.00  0.00    -0.017 C 
HETATM   32  C40 UNL     1      13.112  73.134   6.245  1.00  0.00     0.018 C 
HETATM   33  C41 UNL     1      10.913  72.223   6.490  1.00  0.00     0.018 C 
ENDROOT
BRANCH   1  34
HETATM   34  O2  UNL     1      11.243  70.818   4.495  1.00  0.00    -0.314 OA
BRANCH  34  35
HETATM   35  C6  UNL     1      11.668  69.526   4.362  1.00  0.00     0.287 C 
HETATM   36  O1  UNL     1      12.306  69.029   5.328  1.00  0.00    -0.263 OA
BRANCH  35  37
HETATM   37  C5  UNL     1      11.440  68.667   3.182  1.00  0.00     0.382 C 
BRANCH  37  38
HETATM   38  N1  UNL     1      12.441  68.885   2.146  1.00  0.00     0.097 N 
BRANCH  38  39
HETATM   39  C2  UNL     1      11.676  69.058   0.900  1.00  0.00     0.268 C 
HETATM   40  C1  UNL     1      10.255  69.477   1.164  1.00  0.00     0.037 C 
ENDBRANCH  38  39
BRANCH  38  41
HETATM   41  C3  UNL     1      13.188  67.632   1.916  1.00  0.00     0.268 C 
HETATM   42  C4  UNL     1      13.625  67.567   0.478  1.00  0.00     0.037 C 
ENDBRANCH  38  41
ENDBRANCH  37  38
ENDBRANCH  35  37
ENDBRANCH  34  35
ENDBRANCH   1  34
BRANCH  26  43
HETATM   43  C34 UNL     1      11.369  79.244   1.754  1.00  0.00     0.174 C 
BRANCH  43  44
HETATM   44  O6  UNL     1      10.431  79.028   0.783  1.00  0.00    -0.400 OA
ATOM     45  H6  UNL     1       9.892  79.764   0.515  1.00  0.00     0.209 HD
ENDBRANCH  43  44
ENDBRANCH  26  43
BRANCH  15  46
HETATM   46  O3  UNL     1      14.068  81.906   3.855  1.00  0.00    -0.392 OA
ATOM     47  H3  UNL     1      13.742  82.627   4.381  1.00  0.00     0.210 HD
ENDBRANCH  15  46
BRANCH  16  48
HETATM   48  O4  UNL     1      16.829  80.734   5.632  1.00  0.00    -0.390 OA
ATOM     49  H4  UNL     1      17.547  80.550   5.037  1.00  0.00     0.210 HD
ENDBRANCH  16  48
BRANCH  17  50
HETATM   50  O5  UNL     1      17.568  83.126   4.283  1.00  0.00    -0.387 OA
HETATM   51  C24 UNL     1      17.144  84.258   4.948  1.00  0.00     0.202 C 
ENDBRANCH  17  50
TORSDOF 11
ENDMDL
MODEL 2
REMARK VINA RESULT: -6.724337687      1.599      1.964
REMARK  11 active torsions:
REMARK  status: ('A' for Active; 'I' for Inactive)
REMARK    1  A    between atoms: C2_2  and  N1_3 
REMARK    2  A    between atoms: N1_3  and  C3_4 
REMARK    3  A    between atoms: N1_3  and  C5_6 
REMARK    4  A    between atoms: C5_6  and  C6_7 
REMARK    5  A    between atoms: C6_7  and  O2_9 
REMARK    6  A    between atoms: O2_9  and  C7_10 
REMARK    7  A    between atoms: C21_24  and  O3_25 
REMARK    8  A    between atoms: C22_27  and  O4_28 
REMARK    9  A    between atoms: C23_30  and  O5_31 
REMARK   10  A    between atoms: C33_41  and  C34_42 
REMARK   11  A    between atoms: C34_42  and  O6_43 
ROOT
HETATM    1  C7  UNL     1      11.789  71.910   4.097  1.00  0.00     0.140 C 
HETATM    2  C8  UNL     1      11.139  72.215   2.772  1.00  0.00     0.034 C 
HETATM    3  C9  UNL     1       9.878  72.983   2.987  1.00  0.00     0.013 C 
HETATM    4  C10 UNL     1       9.983  74.305   3.698  1.00  0.00    -0.032 C 
HETATM    5  C11 UNL     1       8.683  74.349   4.561  1.00  0.00     0.016 C 
HETATM    6  C12 UNL     1      11.092  74.296   4.695  1.00  0.00     0.005 C 
HETATM    7  C13 UNL     1      12.054  75.490   4.531  1.00  0.00     0.007 C 
HETATM    8  C14 UNL     1      11.126  76.670   4.553  1.00  0.00     0.006 C 
HETATM    9  C15 UNL     1      10.405  76.784   3.206  1.00  0.00    -0.001 C 
HETATM   10  C16 UNL     1      11.401  77.328   2.287  1.00  0.00     0.002 C 
HETATM   11  C17 UNL     1      12.332  78.409   2.653  1.00  0.00     0.016 C 
HETATM   12  C18 UNL     1      13.258  78.373   1.449  1.00  0.00    -0.029 C 
HETATM   13  C19 UNL     1      14.224  77.205   1.687  1.00  0.00     0.016 C 
HETATM   14  C20 UNL     1      14.099  79.584   1.406  1.00  0.00     0.031 C 
HETATM   15  C21 UNL     1      13.723  80.787   2.188  1.00  0.00     0.154 C 
HETATM   16  C22 UNL     1      15.012  81.650   2.330  1.00  0.00     0.176 C 
HETATM   17  C23 UNL     1      15.194  82.172   0.897  1.00  0.00     0.160 C 
HETATM   18  C25 UNL     1      15.514  81.077  -0.053  1.00  0.00    -0.015 C 
HETATM   19  C26 UNL     1      16.988  80.709   0.189  1.00  0.00     0.018 C 
HETATM   20  C27 UNL     1      15.487  81.665  -1.462  1.00  0.00     0.018 C 
HETATM   21  C28 UNL     1      14.622  79.877   0.011  1.00  0.00     0.003 C 
HETATM   22  C29 UNL     1      13.578  79.803  -1.040  1.00  0.00     0.007 C 
HETATM   23  C30 UNL     1      12.239  79.270  -0.642  1.00  0.00     0.011 C 
HETATM   24  C31 UNL     1      12.318  78.089   0.305  1.00  0.00    -0.026 C 
HETATM   25  C32 UNL     1      12.856  77.023  -0.640  1.00  0.00     0.017 C 
HETATM   26  C33 UNL     1      10.998  77.676   0.887  1.00  0.00    -0.007 C 
HETATM   27  C35 UNL     1      10.440  76.354   0.418  1.00  0.00     0.013 C 
HETATM   28  C36 UNL     1      10.469  75.214   1.374  1.00  0.00     0.011 C 
HETATM   29  C37 UNL     1       9.882  75.445   2.742  1.00  0.00    -0.032 C 
HETATM   30  C38 UNL     1       8.366  75.572   2.474  1.00  0.00     0.016 C 
HETATM   31  C39 UNL     1      11.757  73.040   5.061  1.00  0.00    -0.017 C 
HETATM   32  C40 UNL     1      13.220  73.376   5.419  1.00  0.00     0.018 C 
HETATM   33  C41 UNL     1      11.242  72.452   6.398  1.00  0.00     0.018 C 
ENDROOT
BRANCH   1  34
HETATM   34  O2  UNL     1      11.110  70.766   4.608  1.00  0.00    -0.314 OA
BRANCH  34  35
HETATM   35  C6  UNL     1      11.542  69.474   4.489  1.00  0.00     0.287 C 
HETATM   36  O1  UNL     1      12.154  68.980   5.472  1.00  0.00    -0.263 OA
BRANCH  35  37
HETATM   37  C5  UNL     1      11.348  68.614   3.304  1.00  0.00     0.382 C 
BRANCH  37  38
HETATM   38  N1  UNL     1      12.364  68.848   2.286  1.00  0.00     0.097 N 
BRANCH  38  39
HETATM   39  C2  UNL     1      11.630  68.890   1.010  1.00  0.00     0.268 C 
HETATM   40  C1  UNL     1      10.207  69.346   1.193  1.00  0.00     0.037 C 
ENDBRANCH  38  39
BRANCH  38  41
HETATM   41  C3  UNL     1      13.209  67.645   2.153  1.00  0.00     0.268 C 
HETATM   42  C4  UNL     1      13.616  67.476   0.714  1.00  0.00     0.037 C 
ENDBRANCH  38  41
ENDBRANCH  37  38
ENDBRANCH  35  37
ENDBRANCH  34  35
ENDBRANCH   1  34
BRANCH  26  43
HETATM   43  C34 UNL     1       9.891  78.668   0.788  1.00  0.00     0.174 C 
BRANCH  43  44
HETATM   44  O6  UNL     1       8.706  78.248   0.252  1.00  0.00    -0.400 OA
ATOM     45  H6  UNL     1       8.073  77.845   0.836  1.00  0.00     0.209 HD
ENDBRANCH  43  44
ENDBRANCH  26  43
BRANCH  15  46
HETATM   46  O3  UNL     1      12.869  81.697   1.650  1.00  0.00    -0.392 OA
ATOM     47  H3  UNL     1      12.098  81.961   2.138  1.00  0.00     0.210 HD
ENDBRANCH  15  46
BRANCH  16  48
HETATM   48  O4  UNL     1      16.086  80.891   2.725  1.00  0.00    -0.390 OA
ATOM     49  H4  UNL     1      16.892  81.395   2.717  1.00  0.00     0.210 HD
ENDBRANCH  16  48
BRANCH  17  50
HETATM   50  O5  UNL     1      16.259  83.066   0.901  1.00  0.00    -0.387 OA
HETATM   51  C24 UNL     1      15.915  84.323   1.352  1.00  0.00     0.202 C 
ENDBRANCH  17  50
TORSDOF 11
ENDMDL
MODEL 3
REMARK VINA RESULT: -6.631534247      4.967      8.736
REMARK  11 active torsions:
REMARK  status: ('A' for Active; 'I' for Inactive)
REMARK    1  A    between atoms: C2_2  and  N1_3 
REMARK    2  A    between atoms: N1_3  and  C3_4 
REMARK    3  A    between atoms: N1_3  and  C5_6 
REMARK    4  A    between atoms: C5_6  and  C6_7 
REMARK    5  A    between atoms: C6_7  and  O2_9 
REMARK    6  A    between atoms: O2_9  and  C7_10 
REMARK    7  A    between atoms: C21_24  and  O3_25 
REMARK    8  A    between atoms: C22_27  and  O4_28 
REMARK    9  A    between atoms: C23_30  and  O5_31 
REMARK   10  A    between atoms: C33_41  and  C34_42 
REMARK   11  A    between atoms: C34_42  and  O6_43 
ROOT
HETATM    1  C7  UNL     1      10.944  69.771   4.343  1.00  0.00     0.140 C 
HETATM    2  C8  UNL     1      12.236  70.355   4.855  1.00  0.00     0.034 C 
HETATM    3  C9  UNL     1      12.410  71.743   4.337  1.00  0.00     0.013 C 
HETATM    4  C10 UNL     1      11.348  72.751   4.682  1.00  0.00    -0.032 C 
HETATM    5  C11 UNL     1      11.248  73.619   3.388  1.00  0.00     0.016 C 
HETATM    6  C12 UNL     1      10.008  72.106   4.801  1.00  0.00     0.005 C 
HETATM    7  C13 UNL     1       9.294  72.450   6.124  1.00  0.00     0.007 C 
HETATM    8  C14 UNL     1       9.333  73.951   6.141  1.00  0.00     0.006 C 
HETATM    9  C15 UNL     1      10.739  74.427   6.522  1.00  0.00    -0.001 C 
HETATM   10  C16 UNL     1      10.837  74.206   7.962  1.00  0.00     0.002 C 
HETATM   11  C17 UNL     1       9.741  74.503   8.901  1.00  0.00     0.016 C 
HETATM   12  C18 UNL     1      10.295  73.856  10.159  1.00  0.00    -0.029 C 
HETATM   13  C19 UNL     1      10.022  72.353  10.023  1.00  0.00     0.016 C 
HETATM   14  C20 UNL     1       9.534  74.294  11.344  1.00  0.00     0.031 C 
HETATM   15  C21 UNL     1       8.681  75.506  11.283  1.00  0.00     0.154 C 
HETATM   16  C22 UNL     1       7.669  75.402  12.464  1.00  0.00     0.176 C 
HETATM   17  C23 UNL     1       8.582  75.642  13.675  1.00  0.00     0.160 C 
HETATM   18  C25 UNL     1       9.563  74.542  13.854  1.00  0.00    -0.015 C 
HETATM   19  C26 UNL     1       8.784  73.358  14.452  1.00  0.00     0.018 C 
HETATM   20  C27 UNL     1      10.534  74.963  14.954  1.00  0.00     0.018 C 
HETATM   21  C28 UNL     1      10.328  74.146  12.630  1.00  0.00     0.003 C 
HETATM   22  C29 UNL     1      11.707  74.683  12.539  1.00  0.00     0.007 C 
HETATM   23  C30 UNL     1      12.194  75.100  11.189  1.00  0.00     0.011 C 
HETATM   24  C31 UNL     1      11.769  74.161  10.078  1.00  0.00    -0.026 C 
HETATM   25  C32 UNL     1      12.632  72.950  10.406  1.00  0.00     0.017 C 
HETATM   26  C33 UNL     1      12.058  74.669   8.696  1.00  0.00    -0.007 C 
HETATM   27  C35 UNL     1      13.138  73.949   7.926  1.00  0.00     0.013 C 
HETATM   28  C36 UNL     1      12.717  73.072   6.800  1.00  0.00     0.011 C 
HETATM   29  C37 UNL     1      11.804  73.672   5.763  1.00  0.00    -0.032 C 
HETATM   30  C38 UNL     1      12.703  74.691   5.028  1.00  0.00     0.016 C 
HETATM   31  C39 UNL     1       9.804  70.723   4.356  1.00  0.00    -0.017 C 
HETATM   32  C40 UNL     1       8.705  70.105   5.246  1.00  0.00     0.018 C 
HETATM   33  C41 UNL     1       9.150  70.631   2.955  1.00  0.00     0.018 C 
ENDROOT
BRANCH   1  34
HETATM   34  O2  UNL     1      11.224  69.307   3.025  1.00  0.00    -0.314 OA
BRANCH  34  35
HETATM   35  C6  UNL     1      12.045  68.258   2.716  1.00  0.00     0.287 C 
HETATM   36  O1  UNL     1      11.772  67.143   3.234  1.00  0.00    -0.263 OA
BRANCH  35  37
HETATM   37  C5  UNL     1      13.222  68.326   1.826  1.00  0.00     0.382 C 
BRANCH  37  38
HETATM   38  N1  UNL     1      12.902  67.917   0.465  1.00  0.00     0.097 N 
BRANCH  38  39
HETATM   39  C2  UNL     1      14.183  67.955  -0.261  1.00  0.00     0.268 C 
HETATM   40  C1  UNL     1      15.273  67.230   0.482  1.00  0.00     0.037 C 
ENDBRANCH  38  39
BRANCH  38  41
HETATM   41  C3  UNL     1      12.108  68.975  -0.191  1.00  0.00     0.268 C 
HETATM   42  C4  UNL     1      12.490  69.061  -1.643  1.00  0.00     0.037 C 
ENDBRANCH  38  41
ENDBRANCH  37  38
ENDBRANCH  35  37
ENDBRANCH  34  35
ENDBRANCH   1  34
BRANCH  26  43
HETATM   43  C34 UNL     1      12.342  76.126   8.572  1.00  0.00     0.174 C 
BRANCH  43  44
HETATM   44  O6  UNL     1      13.623  76.503   8.283  1.00  0.00    -0.400 OA
ATOM     45  H6  UNL     1      13.751  77.327   7.828  1.00  0.00     0.209 HD
ENDBRANCH  43  44
ENDBRANCH  26  43
BRANCH  15  46
HETATM   46  O3  UNL     1       9.230  76.724  11.529  1.00  0.00    -0.392 OA
ATOM     47  H3  UNL     1      10.175  76.819  11.540  1.00  0.00     0.210 HD
ENDBRANCH  15  46
BRANCH  16  48
HETATM   48  O4  UNL     1       7.084  74.161  12.518  1.00  0.00    -0.390 OA
ATOM     49  H4  UNL     1       7.379  73.668  13.274  1.00  0.00     0.210 HD
ENDBRANCH  16  48
BRANCH  17  50
HETATM   50  O5  UNL     1       7.779  75.694  14.809  1.00  0.00    -0.387 OA
HETATM   51  C24 UNL     1       6.930  76.781  14.829  1.00  0.00     0.202 C 
ENDBRANCH  17  50
TORSDOF 11
ENDMDL
MODEL 4
REMARK VINA RESULT: -6.489578898      0.885      1.114
REMARK  11 active torsions:
REMARK  status: ('A' for Active; 'I' for Inactive)
REMARK    1  A    between atoms: C2_2  and  N1_3 
REMARK    2  A    between atoms: N1_3  and  C3_4 
REMARK    3  A    between atoms: N1_3  and  C5_6 
REMARK    4  A    between atoms: C5_6  and  C6_7 
REMARK    5  A    between atoms: C6_7  and  O2_9 
REMARK    6  A    between atoms: O2_9  and  C7_10 
REMARK    7  A    between atoms: C21_24  and  O3_25 
REMARK    8  A    between atoms: C22_27  and  O4_28 
REMARK    9  A    between atoms: C23_30  and  O5_31 
REMARK   10  A    between atoms: C33_41  and  C34_42 
REMARK   11  A    between atoms: C34_42  and  O6_43 
ROOT
HETATM    1  C7  UNL     1      12.125  72.160   4.910  1.00  0.00     0.140 C 
HETATM    2  C8  UNL     1      11.866  72.644   3.506  1.00  0.00     0.034 C 
HETATM    3  C9  UNL     1      10.625  73.471   3.472  1.00  0.00     0.013 C 
HETATM    4  C10 UNL     1      10.587  74.702   4.336  1.00  0.00    -0.032 C 
HETATM    5  C11 UNL     1       9.106  74.746   4.827  1.00  0.00     0.016 C 
HETATM    6  C12 UNL     1      11.386  74.514   5.581  1.00  0.00     0.005 C 
HETATM    7  C13 UNL     1      12.403  75.649   5.817  1.00  0.00     0.007 C 
HETATM    8  C14 UNL     1      11.549  76.881   5.733  1.00  0.00     0.006 C 
HETATM    9  C15 UNL     1      11.222  77.183   4.268  1.00  0.00    -0.001 C 
HETATM   10  C16 UNL     1      12.448  77.749   3.713  1.00  0.00     0.002 C 
HETATM   11  C17 UNL     1      13.288  78.720   4.435  1.00  0.00     0.016 C 
HETATM   12  C18 UNL     1      14.501  78.745   3.521  1.00  0.00    -0.029 C 
HETATM   13  C19 UNL     1      15.322  77.495   3.864  1.00  0.00     0.016 C 
HETATM   14  C20 UNL     1      15.370  79.892   3.843  1.00  0.00     0.031 C 
HETATM   15  C21 UNL     1      14.845  81.031   4.635  1.00  0.00     0.154 C 
HETATM   16  C22 UNL     1      16.081  81.784   5.211  1.00  0.00     0.176 C 
HETATM   17  C23 UNL     1      16.661  82.437   3.948  1.00  0.00     0.160 C 
HETATM   18  C25 UNL     1      17.182  81.427   2.993  1.00  0.00    -0.015 C 
HETATM   19  C26 UNL     1      18.521  80.935   3.568  1.00  0.00     0.018 C 
HETATM   20  C27 UNL     1      17.557  82.157   1.706  1.00  0.00     0.018 C 
HETATM   21  C28 UNL     1      16.259  80.291   2.678  1.00  0.00     0.003 C 
HETATM   22  C29 UNL     1      15.534  80.399   1.390  1.00  0.00     0.007 C 
HETATM   23  C30 UNL     1      14.117  79.921   1.357  1.00  0.00     0.011 C 
HETATM   24  C31 UNL     1      13.893  78.646   2.145  1.00  0.00    -0.026 C 
HETATM   25  C32 UNL     1      14.623  77.648   1.256  1.00  0.00     0.017 C 
HETATM   26  C33 UNL     1      12.450  78.267   2.307  1.00  0.00    -0.007 C 
HETATM   27  C35 UNL     1      11.988  77.042   1.556  1.00  0.00     0.013 C 
HETATM   28  C36 UNL     1      11.714  75.810   2.344  1.00  0.00     0.011 C 
HETATM   29  C37 UNL     1      10.791  75.939   3.528  1.00  0.00    -0.032 C 
HETATM   30  C38 UNL     1       9.408  76.197   2.888  1.00  0.00     0.016 C 
HETATM   31  C39 UNL     1      11.879  73.184   5.958  1.00  0.00    -0.017 C 
HETATM   32  C40 UNL     1      13.204  73.379   6.724  1.00  0.00     0.018 C 
HETATM   33  C41 UNL     1      11.001  72.498   7.034  1.00  0.00     0.018 C 
ENDROOT
BRANCH   1  34
HETATM   34  O2  UNL     1      11.289  71.019   5.087  1.00  0.00    -0.314 OA
BRANCH  34  35
HETATM   35  C6  UNL     1      11.418  69.836   4.414  1.00  0.00     0.287 C 
HETATM   36  O1  UNL     1      12.512  69.223   4.533  1.00  0.00    -0.263 OA
BRANCH  35  37
HETATM   37  C5  UNL     1      10.381  69.219   3.562  1.00  0.00     0.382 C 
BRANCH  37  38
HETATM   38  N1  UNL     1      10.049  70.053   2.415  1.00  0.00     0.097 N 
BRANCH  38  39
HETATM   39  C2  UNL     1       8.579  70.145   2.416  1.00  0.00     0.268 C 
HETATM   40  C1  UNL     1       8.096  71.448   1.837  1.00  0.00     0.037 C 
ENDBRANCH  38  39
BRANCH  38  41
HETATM   41  C3  UNL     1      10.342  69.314   1.171  1.00  0.00     0.268 C 
HETATM   42  C4  UNL     1      11.494  69.969   0.459  1.00  0.00     0.037 C 
ENDBRANCH  38  41
ENDBRANCH  37  38
ENDBRANCH  35  37
ENDBRANCH  34  35
ENDBRANCH   1  34
BRANCH  26  43
HETATM   43  C34 UNL     1      11.450  79.337   2.039  1.00  0.00     0.174 C 
BRANCH  43  44
HETATM   44  O6  UNL     1      10.500  79.098   1.086  1.00  0.00    -0.400 OA
ATOM     45  H6  UNL     1       9.590  79.229   1.324  1.00  0.00     0.209 HD
ENDBRANCH  43  44
ENDBRANCH  26  43
BRANCH  15  46
HETATM   46  O3  UNL     1      14.203  82.049   4.003  1.00  0.00    -0.392 OA
ATOM     47  H3  UNL     1      14.529  82.936   4.094  1.00  0.00     0.210 HD
ENDBRANCH  15  46
BRANCH  16  48
HETATM   48  O4  UNL     1      16.979  80.916   5.782  1.00  0.00    -0.390 OA
ATOM     49  H4  UNL     1      16.719  80.675   6.664  1.00  0.00     0.210 HD
ENDBRANCH  16  48
BRANCH  17  50
HETATM   50  O5  UNL     1      17.720  83.251   4.337  1.00  0.00    -0.387 OA
HETATM   51  C24 UNL     1      17.317  84.405   4.975  1.00  0.00     0.202 C 
ENDBRANCH  17  50
TORSDOF 11
ENDMDL
MODEL 5
REMARK VINA RESULT: -6.485817919      1.182      1.377
REMARK  11 active torsions:
REMARK  status: ('A' for Active; 'I' for Inactive)
REMARK    1  A    between atoms: C2_2  and  N1_3 
REMARK    2  A    between atoms: N1_3  and  C3_4 
REMARK    3  A    between atoms: N1_3  and  C5_6 
REMARK    4  A    between atoms: C5_6  and  C6_7 
REMARK    5  A    between atoms: C6_7  and  O2_9 
REMARK    6  A    between atoms: O2_9  and  C7_10 
REMARK    7  A    between atoms: C21_24  and  O3_25 
REMARK    8  A    between atoms: C22_27  and  O4_28 
REMARK    9  A    between atoms: C23_30  and  O5_31 
REMARK   10  A    between atoms: C33_41  and  C34_42 
REMARK   11  A    between atoms: C34_42  and  O6_43 
ROOT
HETATM    1  C7  UNL     1      11.842  72.379   5.133  1.00  0.00     0.140 C 
HETATM    2  C8  UNL     1      12.418  72.633   3.763  1.00  0.00     0.034 C 
HETATM    3  C9  UNL     1      11.398  73.288   2.894  1.00  0.00     0.013 C 
HETATM    4  C10 UNL     1      10.844  74.611   3.350  1.00  0.00    -0.032 C 
HETATM    5  C11 UNL     1       9.346  74.538   2.916  1.00  0.00     0.016 C 
HETATM    6  C12 UNL     1      10.795  74.693   4.839  1.00  0.00     0.005 C 
HETATM    7  C13 UNL     1      11.469  75.966   5.391  1.00  0.00     0.007 C 
HETATM    8  C14 UNL     1      10.785  77.061   4.624  1.00  0.00     0.006 C 
HETATM    9  C15 UNL     1      11.343  77.119   3.199  1.00  0.00    -0.001 C 
HETATM   10  C16 UNL     1      12.653  77.752   3.330  1.00  0.00     0.002 C 
HETATM   11  C17 UNL     1      12.908  78.907   4.208  1.00  0.00     0.016 C 
HETATM   12  C18 UNL     1      14.425  78.957   4.137  1.00  0.00    -0.029 C 
HETATM   13  C19 UNL     1      14.933  77.876   5.099  1.00  0.00     0.016 C 
HETATM   14  C20 UNL     1      14.926  80.236   4.674  1.00  0.00     0.031 C 
HETATM   15  C21 UNL     1      14.015  81.398   4.818  1.00  0.00     0.154 C 
HETATM   16  C22 UNL     1      14.684  82.369   5.837  1.00  0.00     0.176 C 
HETATM   17  C23 UNL     1      15.864  82.911   5.017  1.00  0.00     0.160 C 
HETATM   18  C25 UNL     1      16.861  81.853   4.716  1.00  0.00    -0.015 C 
HETATM   19  C26 UNL     1      17.646  81.612   6.017  1.00  0.00     0.018 C 
HETATM   20  C27 UNL     1      17.885  82.444   3.749  1.00  0.00     0.018 C 
HETATM   21  C28 UNL     1      16.310  80.581   4.153  1.00  0.00     0.003 C 
HETATM   22  C29 UNL     1      16.446  80.423   2.685  1.00  0.00     0.007 C 
HETATM   23  C30 UNL     1      15.313  79.774   1.956  1.00  0.00     0.011 C 
HETATM   24  C31 UNL     1      14.711  78.600   2.701  1.00  0.00    -0.026 C 
HETATM   25  C32 UNL     1      15.842  77.588   2.568  1.00  0.00     0.017 C 
HETATM   26  C33 UNL     1      13.442  78.071   2.098  1.00  0.00    -0.007 C 
HETATM   27  C35 UNL     1      13.521  76.709   1.453  1.00  0.00     0.013 C 
HETATM   28  C36 UNL     1      12.877  75.570   2.163  1.00  0.00     0.011 C 
HETATM   29  C37 UNL     1      11.442  75.743   2.585  1.00  0.00    -0.032 C 
HETATM   30  C38 UNL     1      10.664  75.741   1.250  1.00  0.00     0.016 C 
HETATM   31  C39 UNL     1      11.018  73.497   5.659  1.00  0.00    -0.017 C 
HETATM   32  C40 UNL     1      11.665  73.955   6.983  1.00  0.00     0.018 C 
HETATM   33  C41 UNL     1       9.701  72.860   6.167  1.00  0.00     0.018 C 
ENDROOT
BRANCH   1  34
HETATM   34  O2  UNL     1      11.083  71.178   5.017  1.00  0.00    -0.314 OA
BRANCH  34  35
HETATM   35  C6  UNL     1      11.591  69.954   4.678  1.00  0.00     0.287 C 
HETATM   36  O1  UNL     1      12.500  69.486   5.413  1.00  0.00    -0.263 OA
BRANCH  35  37
HETATM   37  C5  UNL     1      11.159  69.140   3.524  1.00  0.00     0.382 C 
BRANCH  37  38
HETATM   38  N1  UNL     1      12.042  69.304   2.378  1.00  0.00     0.097 N 
BRANCH  38  39
HETATM   39  C2  UNL     1      11.170  69.182   1.197  1.00  0.00     0.268 C 
HETATM   40  C1  UNL     1      10.091  70.232   1.183  1.00  0.00     0.037 C 
ENDBRANCH  38  39
BRANCH  38  41
HETATM   41  C3  UNL     1      12.928  68.128   2.269  1.00  0.00     0.268 C 
HETATM   42  C4  UNL     1      13.211  67.847   0.818  1.00  0.00     0.037 C 
ENDBRANCH  38  41
ENDBRANCH  37  38
ENDBRANCH  35  37
ENDBRANCH  34  35
ENDBRANCH   1  34
BRANCH  26  43
HETATM   43  C34 UNL     1      12.748  78.964   1.129  1.00  0.00     0.174 C 
BRANCH  43  44
HETATM   44  O6  UNL     1      12.666  78.553  -0.172  1.00  0.00    -0.400 OA
ATOM     45  H6  UNL     1      12.055  79.005  -0.742  1.00  0.00     0.209 HD
ENDBRANCH  43  44
ENDBRANCH  26  43
BRANCH  15  46
HETATM   46  O3  UNL     1      13.824  82.234   3.763  1.00  0.00    -0.392 OA
ATOM     47  H3  UNL     1      14.426  82.207   3.029  1.00  0.00     0.210 HD
ENDBRANCH  15  46
BRANCH  16  48
HETATM   48  O4  UNL     1      15.118  81.703   6.956  1.00  0.00    -0.390 OA
ATOM     49  H4  UNL     1      14.999  82.225   7.741  1.00  0.00     0.210 HD
ENDBRANCH  16  48
BRANCH  17  50
HETATM   50  O5  UNL     1      16.493  83.894   5.775  1.00  0.00    -0.387 OA
HETATM   51  C24 UNL     1      15.674  84.964   6.069  1.00  0.00     0.202 C 
ENDBRANCH  17  50
TORSDOF 11
ENDMDL
