MODEL 1
REMARK VINA RESULT: -8.796437892      0.000      0.000
REMARK  8 active torsions:
REMARK  status: ('A' for Active; 'I' for Inactive)
REMARK    1  A    between atoms: C2_2  and  C3_3 
REMARK    2  A    between atoms: C3_3  and  C4_4 
REMARK    3  A    between atoms: C4_4  and  N1_5 
REMARK       I    between atoms: N1_5  and  C5_7 
REMARK    4  A    between atoms: C5_7  and  C6_9 
REMARK    5  A    between atoms: C17_21  and  C19_23 
REMARK    6  A    between atoms: C24_30  and  O5_31 
REMARK    7  A    between atoms: O5_31  and  C25_32 
REMARK    8  A    between atoms: C35_43  and  O7_44 
ROOT
HETATM    1  C6  UNL     1      13.292  78.088   2.351  1.00  0.00     0.086 C 
HETATM    2  C7  UNL     1      14.232  78.195   3.563  1.00  0.00     0.015 C 
HETATM    3  C8  UNL     1      13.275  78.369   4.740  1.00  0.00     0.010 C 
HETATM    4  C9  UNL     1      12.417  77.113   4.934  1.00  0.00    -0.039 C 
HETATM    5  C10 UNL     1      11.014  77.579   5.105  1.00  0.00     0.015 C 
HETATM    6  C11 UNL     1      12.911  76.520   6.228  1.00  0.00     0.015 C 
HETATM    7  C12 UNL     1      12.270  75.223   6.630  1.00  0.00     0.003 C 
HETATM    8  C13 UNL     1      12.900  74.110   5.852  1.00  0.00     0.019 C 
HETATM    9  C14 UNL     1      13.155  72.849   6.619  1.00  0.00     0.010 C 
HETATM   10  C15 UNL     1      13.823  73.225   7.958  1.00  0.00     0.033 C 
HETATM   11  C16 UNL     1      12.649  73.832   8.722  1.00  0.00     0.132 C 
HETATM   12  O2  UNL     1      12.912  74.003  10.071  1.00  0.00    -0.363 OA
HETATM   13  C17 UNL     1      11.717  74.209  10.716  1.00  0.00     0.145 C 
HETATM   14  C18 UNL     1      12.098  74.786  12.095  1.00  0.00     0.058 C 
HETATM   15  C20 UNL     1      10.781  75.168  10.086  1.00  0.00     0.050 C 
HETATM   16  C21 UNL     1      11.047  75.625   8.717  1.00  0.00     0.015 C 
HETATM   17  C22 UNL     1      12.370  75.154   8.117  1.00  0.00    -0.014 C 
HETATM   18  C23 UNL     1      13.421  76.118   8.692  1.00  0.00     0.018 C 
HETATM   19  C24 UNL     1      12.213  73.753   4.574  1.00  0.00     0.126 C 
HETATM   20  C36 UNL     1      11.701  75.006   3.825  1.00  0.00     0.038 C 
HETATM   21  C37 UNL     1      12.653  76.144   3.836  1.00  0.00     0.005 C 
HETATM   22  C38 UNL     1      12.692  76.733   2.438  1.00  0.00    -0.031 C 
HETATM   23  C39 UNL     1      11.301  76.764   1.807  1.00  0.00     0.016 C 
HETATM   24  C40 UNL     1      13.547  75.785   1.626  1.00  0.00     0.016 C 
ENDROOT
BRANCH  19  25
HETATM   25  O5  UNL     1      11.077  72.993   4.736  1.00  0.00    -0.380 OA
BRANCH  25  26
HETATM   26  C25 UNL     1      11.009  71.817   4.047  1.00  0.00     0.122 C 
HETATM   27  C26 UNL     1      11.614  71.968   2.685  1.00  0.00     0.032 C 
HETATM   28  C27 UNL     1      10.970  71.081   1.651  1.00  0.00     0.013 C 
HETATM   29  C28 UNL     1      11.027  69.641   1.882  1.00  0.00     0.060 C 
HETATM   30  C29 UNL     1      12.162  68.833   1.322  1.00  0.00     0.093 C 
HETATM   31  C31 UNL     1      11.829  69.134   3.025  1.00  0.00     0.100 C 
HETATM   32  C30 UNL     1      12.473  68.602   0.007  1.00  0.00     0.049 C 
HETATM   33  O6  UNL     1      12.961  69.402   2.310  1.00  0.00    -0.363 OA
HETATM   34  C35 UNL     1      11.816  67.784   2.356  1.00  0.00     0.188 C 
HETATM   35  C32 UNL     1      11.532  69.387   4.344  1.00  0.00     0.022 C 
HETATM   36  C33 UNL     1      10.030  69.238   4.622  1.00  0.00     0.013 C 
HETATM   37  C34 UNL     1      11.912  70.788   4.778  1.00  0.00     0.039 C 
BRANCH  34  38
HETATM   38  O7  UNL     1      12.848  66.933   2.692  1.00  0.00    -0.389 OA
ATOM     39  H7  UNL     1      12.783  66.058   2.327  1.00  0.00     0.210 HD
ENDBRANCH  34  38
ENDBRANCH  25  26
ENDBRANCH  19  25
BRANCH   1  40
HETATM   40  C5  UNL     1      14.042  78.424   1.146  1.00  0.00     0.222 C 
HETATM   41  N1  UNL     1      13.493  78.811  -0.103  1.00  0.00    -0.361 N 
ATOM     42  H1  UNL     1      12.478  78.851  -0.195  1.00  0.00     0.162 HD
HETATM   43  O1  UNL     1      15.316  78.377   1.196  1.00  0.00    -0.273 OA
BRANCH  41  44
HETATM   44  C4  UNL     1      14.295  79.149  -1.239  1.00  0.00     0.122 C 
BRANCH  44  45
HETATM   45  C3  UNL     1      14.340  78.175  -2.359  1.00  0.00     0.019 C 
BRANCH  45  46
HETATM   46  C2  UNL     1      13.947  78.726  -3.704  1.00  0.00    -0.003 C 
HETATM   47  C1  UNL     1      12.411  78.727  -3.731  1.00  0.00     0.005 C 
ENDBRANCH  45  46
ENDBRANCH  44  45
ENDBRANCH  41  44
ENDBRANCH   1  40
BRANCH  13  48
HETATM   48  C19 UNL     1      11.107  72.893  11.014  1.00  0.00     0.208 C 
HETATM   49  O3  UNL     1      11.712  71.973  11.620  1.00  0.00    -0.646 OA
HETATM   50  O4  UNL     1       9.808  72.641  10.614  1.00  0.00    -0.646 OA
ENDBRANCH  13  48
TORSDOF 8
ENDMDL
MODEL 2
REMARK VINA RESULT: -8.737991546      1.465      1.956
REMARK  8 active torsions:
REMARK  status: ('A' for Active; 'I' for Inactive)
REMARK    1  A    between atoms: C2_2  and  C3_3 
REMARK    2  A    between atoms: C3_3  and  C4_4 
REMARK    3  A    between atoms: C4_4  and  N1_5 
REMARK       I    between atoms: N1_5  and  C5_7 
REMARK    4  A    between atoms: C5_7  and  C6_9 
REMARK    5  A    between atoms: C17_21  and  C19_23 
REMARK    6  A    between atoms: C24_30  and  O5_31 
REMARK    7  A    between atoms: O5_31  and  C25_32 
REMARK    8  A    between atoms: C35_43  and  O7_44 
ROOT
HETATM    1  C6  UNL     1      12.769  77.917   3.031  1.00  0.00     0.086 C 
HETATM    2  C7  UNL     1      13.714  78.030   4.238  1.00  0.00     0.015 C 
HETATM    3  C8  UNL     1      12.764  78.026   5.433  1.00  0.00     0.010 C 
HETATM    4  C9  UNL     1      12.034  76.682   5.544  1.00  0.00    -0.039 C 
HETATM    5  C10 UNL     1      10.597  76.995   5.762  1.00  0.00     0.015 C 
HETATM    6  C11 UNL     1      12.605  76.050   6.788  1.00  0.00     0.015 C 
HETATM    7  C12 UNL     1      12.099  74.671   7.103  1.00  0.00     0.003 C 
HETATM    8  C13 UNL     1      12.821  73.683   6.241  1.00  0.00     0.019 C 
HETATM    9  C14 UNL     1      13.209  72.403   6.914  1.00  0.00     0.010 C 
HETATM   10  C15 UNL     1      13.860  72.747   8.270  1.00  0.00     0.033 C 
HETATM   11  C16 UNL     1      12.645  73.181   9.086  1.00  0.00     0.132 C 
HETATM   12  O2  UNL     1      12.912  73.281  10.441  1.00  0.00    -0.363 OA
HETATM   13  C17 UNL     1      11.713  73.324  11.111  1.00  0.00     0.145 C 
HETATM   14  C18 UNL     1      12.059  73.837  12.524  1.00  0.00     0.058 C 
HETATM   15  C20 UNL     1      10.679  74.228  10.559  1.00  0.00     0.050 C 
HETATM   16  C21 UNL     1      10.877  74.804   9.224  1.00  0.00     0.015 C 
HETATM   17  C22 UNL     1      12.229  74.508   8.580  1.00  0.00    -0.014 C 
HETATM   18  C23 UNL     1      13.191  75.528   9.213  1.00  0.00     0.018 C 
HETATM   19  C24 UNL     1      12.152  73.351   4.947  1.00  0.00     0.126 C 
HETATM   20  C36 UNL     1      11.508  74.598   4.295  1.00  0.00     0.038 C 
HETATM   21  C37 UNL     1      12.345  75.819   4.379  1.00  0.00     0.005 C 
HETATM   22  C38 UNL     1      12.305  76.507   3.025  1.00  0.00    -0.031 C 
HETATM   23  C39 UNL     1      10.907  76.446   2.412  1.00  0.00     0.016 C 
HETATM   24  C40 UNL     1      13.234  75.706   2.140  1.00  0.00     0.016 C 
ENDROOT
BRANCH  19  25
HETATM   25  O5  UNL     1      11.097  72.475   5.065  1.00  0.00    -0.380 OA
BRANCH  25  26
HETATM   26  C25 UNL     1      11.037  71.447   4.168  1.00  0.00     0.122 C 
HETATM   27  C26 UNL     1      11.278  71.946   2.777  1.00  0.00     0.032 C 
HETATM   28  C27 UNL     1      10.542  71.152   1.729  1.00  0.00     0.013 C 
HETATM   29  C28 UNL     1      10.854  69.731   1.631  1.00  0.00     0.060 C 
HETATM   30  C29 UNL     1      11.929  69.259   0.694  1.00  0.00     0.093 C 
HETATM   31  C31 UNL     1      11.965  69.186   2.454  1.00  0.00     0.100 C 
HETATM   32  C30 UNL     1      11.954  69.325  -0.675  1.00  0.00     0.049 C 
HETATM   33  O6  UNL     1      12.848  69.782   1.599  1.00  0.00    -0.363 OA
HETATM   34  C35 UNL     1      11.987  67.998   1.528  1.00  0.00     0.188 C 
HETATM   35  C32 UNL     1      11.952  69.143   3.828  1.00  0.00     0.022 C 
HETATM   36  C33 UNL     1      10.594  68.672   4.365  1.00  0.00     0.013 C 
HETATM   37  C34 UNL     1      12.221  70.491   4.467  1.00  0.00     0.039 C 
BRANCH  34  38
HETATM   38  O7  UNL     1      13.178  67.306   1.460  1.00  0.00    -0.389 OA
ATOM     39  H7  UNL     1      13.260  66.584   2.071  1.00  0.00     0.210 HD
ENDBRANCH  34  38
ENDBRANCH  25  26
ENDBRANCH  19  25
BRANCH   1  40
HETATM   40  C5  UNL     1      13.464  78.408   1.845  1.00  0.00     0.222 C 
HETATM   41  N1  UNL     1      14.868  78.523   1.685  1.00  0.00    -0.361 N 
ATOM     42  H1  UNL     1      15.469  78.257   2.465  1.00  0.00     0.162 HD
HETATM   43  O1  UNL     1      12.764  78.770   0.843  1.00  0.00    -0.273 OA
BRANCH  41  44
HETATM   44  C4  UNL     1      15.482  78.993   0.481  1.00  0.00     0.122 C 
BRANCH  44  45
HETATM   45  C3  UNL     1      16.903  79.416   0.556  1.00  0.00     0.019 C 
BRANCH  45  46
HETATM   46  C2  UNL     1      17.722  78.727   1.616  1.00  0.00    -0.003 C 
HETATM   47  C1  UNL     1      18.000  79.785   2.694  1.00  0.00     0.005 C 
ENDBRANCH  45  46
ENDBRANCH  44  45
ENDBRANCH  41  44
ENDBRANCH   1  40
BRANCH  13  48
HETATM   48  C19 UNL     1      11.238  71.937  11.319  1.00  0.00     0.208 C 
HETATM   49  O3  UNL     1      11.058  71.121  10.381  1.00  0.00    -0.646 OA
HETATM   50  O4  UNL     1      10.973  71.496  12.602  1.00  0.00    -0.646 OA
ENDBRANCH  13  48
TORSDOF 8
ENDMDL
MODEL 3
REMARK VINA RESULT: -8.693373041      3.893      6.744
REMARK  8 active torsions:
REMARK  status: ('A' for Active; 'I' for Inactive)
REMARK    1  A    between atoms: C2_2  and  C3_3 
REMARK    2  A    between atoms: C3_3  and  C4_4 
REMARK    3  A    between atoms: C4_4  and  N1_5 
REMARK       I    between atoms: N1_5  and  C5_7 
REMARK    4  A    between atoms: C5_7  and  C6_9 
REMARK    5  A    between atoms: C17_21  and  C19_23 
REMARK    6  A    between atoms: C24_30  and  O5_31 
REMARK    7  A    between atoms: O5_31  and  C25_32 
REMARK    8  A    between atoms: C35_43  and  O7_44 
ROOT
HETATM    1  C6  UNL     1      10.746  70.802   2.825  1.00  0.00     0.086 C 
HETATM    2  C7  UNL     1      11.867  71.854   2.778  1.00  0.00     0.015 C 
HETATM    3  C8  UNL     1      11.179  73.126   3.267  1.00  0.00     0.010 C 
HETATM    4  C9  UNL     1      10.746  72.982   4.731  1.00  0.00    -0.039 C 
HETATM    5  C10 UNL     1       9.343  73.471   4.809  1.00  0.00     0.015 C 
HETATM    6  C11 UNL     1      11.650  73.926   5.482  1.00  0.00     0.015 C 
HETATM    7  C12 UNL     1      11.477  73.936   6.973  1.00  0.00     0.003 C 
HETATM    8  C13 UNL     1      12.192  72.755   7.551  1.00  0.00     0.019 C 
HETATM    9  C14 UNL     1      12.931  73.009   8.828  1.00  0.00     0.010 C 
HETATM   10  C15 UNL     1      13.753  74.304   8.661  1.00  0.00     0.033 C 
HETATM   11  C16 UNL     1      12.658  75.365   8.710  1.00  0.00     0.132 C 
HETATM   12  O2  UNL     1      13.155  76.649   8.862  1.00  0.00    -0.363 OA
HETATM   13  C17 UNL     1      12.118  77.466   9.244  1.00  0.00     0.145 C 
HETATM   14  C18 UNL     1      12.626  78.902   9.000  1.00  0.00     0.058 C 
HETATM   15  C20 UNL     1      10.849  77.319   8.497  1.00  0.00     0.050 C 
HETATM   16  C21 UNL     1      10.678  76.167   7.605  1.00  0.00     0.015 C 
HETATM   17  C22 UNL     1      11.915  75.287   7.433  1.00  0.00    -0.014 C 
HETATM   18  C23 UNL     1      12.774  76.024   6.392  1.00  0.00     0.018 C 
HETATM   19  C24 UNL     1      11.361  71.525   7.724  1.00  0.00     0.126 C 
HETATM   20  C36 UNL     1      10.386  71.316   6.541  1.00  0.00     0.038 C 
HETATM   21  C37 UNL     1      10.983  71.600   5.213  1.00  0.00     0.005 C 
HETATM   22  C38 UNL     1      10.559  70.493   4.265  1.00  0.00    -0.031 C 
HETATM   23  C39 UNL     1       9.106  70.084   4.500  1.00  0.00     0.016 C 
HETATM   24  C40 UNL     1      11.434  69.309   4.613  1.00  0.00     0.016 C 
ENDROOT
BRANCH  19  25
HETATM   25  O5  UNL     1      10.529  71.554   8.820  1.00  0.00    -0.380 OA
BRANCH  25  26
HETATM   26  C25 UNL     1       9.433  70.741   8.794  1.00  0.00     0.122 C 
HETATM   27  C26 UNL     1       9.843  69.309   8.634  1.00  0.00     0.032 C 
HETATM   28  C27 UNL     1       8.830  68.485   7.881  1.00  0.00     0.013 C 
HETATM   29  C28 UNL     1       7.493  68.386   8.458  1.00  0.00     0.060 C 
HETATM   30  C29 UNL     1       7.159  67.259   9.393  1.00  0.00     0.093 C 
HETATM   31  C31 UNL     1       7.253  68.969   9.804  1.00  0.00     0.100 C 
HETATM   32  C30 UNL     1       7.105  65.917   9.121  1.00  0.00     0.049 C 
HETATM   33  O6  UNL     1       7.930  67.915  10.347  1.00  0.00    -0.363 OA
HETATM   34  C35 UNL     1       6.013  68.117   9.885  1.00  0.00     0.188 C 
HETATM   35  C32 UNL     1       7.331  70.314  10.084  1.00  0.00     0.022 C 
HETATM   36  C33 UNL     1       6.654  71.156   8.995  1.00  0.00     0.013 C 
HETATM   37  C34 UNL     1       8.758  70.815  10.189  1.00  0.00     0.039 C 
BRANCH  34  38
HETATM   38  O7  UNL     1       5.565  67.820  11.155  1.00  0.00    -0.389 OA
ATOM     39  H7  UNL     1       4.634  67.949  11.293  1.00  0.00     0.210 HD
ENDBRANCH  34  38
ENDBRANCH  25  26
ENDBRANCH  19  25
BRANCH   1  40
HETATM   40  C5  UNL     1      11.100  69.702   1.934  1.00  0.00     0.222 C 
HETATM   41  N1  UNL     1      12.411  69.323   1.550  1.00  0.00    -0.361 N 
ATOM     42  H1  UNL     1      13.197  69.866   1.906  1.00  0.00     0.162 HD
HETATM   43  O1  UNL     1      10.157  68.995   1.445  1.00  0.00    -0.273 OA
BRANCH  41  44
HETATM   44  C4  UNL     1      12.683  68.214   0.687  1.00  0.00     0.122 C 
BRANCH  44  45
HETATM   45  C3  UNL     1      13.264  68.511  -0.647  1.00  0.00     0.019 C 
BRANCH  45  46
HETATM   46  C2  UNL     1      12.283  69.003  -1.678  1.00  0.00    -0.003 C 
HETATM   47  C1  UNL     1      13.116  69.391  -2.908  1.00  0.00     0.005 C 
ENDBRANCH  45  46
ENDBRANCH  44  45
ENDBRANCH  41  44
ENDBRANCH   1  40
BRANCH  13  48
HETATM   48  C19 UNL     1      11.957  77.368  10.713  1.00  0.00     0.208 C 
HETATM   49  O3  UNL     1      12.768  77.870  11.531  1.00  0.00    -0.646 OA
HETATM   50  O4  UNL     1      10.867  76.695  11.233  1.00  0.00    -0.646 OA
ENDBRANCH  13  48
TORSDOF 8
ENDMDL
MODEL 4
REMARK VINA RESULT: -8.547675432      3.914      6.718
REMARK  8 active torsions:
REMARK  status: ('A' for Active; 'I' for Inactive)
REMARK    1  A    between atoms: C2_2  and  C3_3 
REMARK    2  A    between atoms: C3_3  and  C4_4 
REMARK    3  A    between atoms: C4_4  and  N1_5 
REMARK       I    between atoms: N1_5  and  C5_7 
REMARK    4  A    between atoms: C5_7  and  C6_9 
REMARK    5  A    between atoms: C17_21  and  C19_23 
REMARK    6  A    between atoms: C24_30  and  O5_31 
REMARK    7  A    between atoms: O5_31  and  C25_32 
REMARK    8  A    between atoms: C35_43  and  O7_44 
ROOT
HETATM    1  C6  UNL     1      10.130  71.199   2.635  1.00  0.00     0.086 C 
HETATM    2  C7  UNL     1      11.154  72.344   2.555  1.00  0.00     0.015 C 
HETATM    3  C8  UNL     1      10.490  73.469   3.345  1.00  0.00     0.010 C 
HETATM    4  C9  UNL     1      10.346  73.085   4.822  1.00  0.00    -0.039 C 
HETATM    5  C10 UNL     1       8.954  73.431   5.217  1.00  0.00     0.015 C 
HETATM    6  C11 UNL     1      11.312  73.992   5.540  1.00  0.00     0.015 C 
HETATM    7  C12 UNL     1      11.418  73.780   7.023  1.00  0.00     0.003 C 
HETATM    8  C13 UNL     1      12.301  72.598   7.279  1.00  0.00     0.019 C 
HETATM    9  C14 UNL     1      13.247  72.737   8.431  1.00  0.00     0.010 C 
HETATM   10  C15 UNL     1      13.941  74.111   8.324  1.00  0.00     0.033 C 
HETATM   11  C16 UNL     1      12.808  75.053   8.725  1.00  0.00     0.132 C 
HETATM   12  O2  UNL     1      13.243  76.343   8.982  1.00  0.00    -0.363 OA
HETATM   13  C17 UNL     1      12.246  77.002   9.660  1.00  0.00     0.145 C 
HETATM   14  C18 UNL     1      12.608  78.498   9.554  1.00  0.00     0.058 C 
HETATM   15  C20 UNL     1      10.872  76.847   9.132  1.00  0.00     0.050 C 
HETATM   16  C21 UNL     1      10.612  75.820   8.117  1.00  0.00     0.015 C 
HETATM   17  C22 UNL     1      11.848  75.087   7.600  1.00  0.00    -0.014 C 
HETATM   18  C23 UNL     1      12.451  76.035   6.551  1.00  0.00     0.018 C 
HETATM   19  C24 UNL     1      11.596  71.287   7.404  1.00  0.00     0.126 C 
HETATM   20  C36 UNL     1      10.433  71.158   6.391  1.00  0.00     0.038 C 
HETATM   21  C37 UNL     1      10.755  71.676   5.039  1.00  0.00     0.005 C 
HETATM   22  C38 UNL     1      10.233  70.678   4.021  1.00  0.00    -0.031 C 
HETATM   23  C39 UNL     1       8.877  70.112   4.440  1.00  0.00     0.016 C 
HETATM   24  C40 UNL     1      11.230  69.540   4.026  1.00  0.00     0.016 C 
ENDROOT
BRANCH  19  25
HETATM   25  O5  UNL     1      10.982  71.089   8.620  1.00  0.00    -0.380 OA
BRANCH  25  26
HETATM   26  C25 UNL     1       9.800  70.405   8.618  1.00  0.00     0.122 C 
HETATM   27  C26 UNL     1      10.040  68.937   8.444  1.00  0.00     0.032 C 
HETATM   28  C27 UNL     1       8.922  68.238   7.714  1.00  0.00     0.013 C 
HETATM   29  C28 UNL     1       7.597  68.289   8.323  1.00  0.00     0.060 C 
HETATM   30  C29 UNL     1       7.159  67.201   9.263  1.00  0.00     0.093 C 
HETATM   31  C31 UNL     1       7.457  68.888   9.676  1.00  0.00     0.100 C 
HETATM   32  C30 UNL     1       6.947  65.875   8.988  1.00  0.00     0.049 C 
HETATM   33  O6  UNL     1       8.022  67.761  10.200  1.00  0.00    -0.363 OA
HETATM   34  C35 UNL     1       6.130  68.181   9.784  1.00  0.00     0.188 C 
HETATM   35  C32 UNL     1       7.694  70.213   9.957  1.00  0.00     0.022 C 
HETATM   36  C33 UNL     1       7.091  71.133   8.887  1.00  0.00     0.013 C 
HETATM   37  C34 UNL     1       9.170  70.548  10.029  1.00  0.00     0.039 C 
BRANCH  34  38
HETATM   38  O7  UNL     1       5.681  67.931  11.064  1.00  0.00    -0.389 OA
ATOM     39  H7  UNL     1       5.118  68.601  11.431  1.00  0.00     0.210 HD
ENDBRANCH  34  38
ENDBRANCH  25  26
ENDBRANCH  19  25
BRANCH   1  40
HETATM   40  C5  UNL     1      10.381  70.270   1.539  1.00  0.00     0.222 C 
HETATM   41  N1  UNL     1      11.514  70.266   0.685  1.00  0.00    -0.361 N 
ATOM     42  H1  UNL     1      12.227  70.983   0.823  1.00  0.00     0.162 HD
HETATM   43  O1  UNL     1       9.516  69.361   1.309  1.00  0.00    -0.273 OA
BRANCH  41  44
HETATM   44  C4  UNL     1      11.703  69.306  -0.358  1.00  0.00     0.122 C 
BRANCH  44  45
HETATM   45  C3  UNL     1      13.039  68.667  -0.467  1.00  0.00     0.019 C 
BRANCH  45  46
HETATM   46  C2  UNL     1      13.450  67.834   0.719  1.00  0.00    -0.003 C 
HETATM   47  C1  UNL     1      14.837  67.269   0.381  1.00  0.00     0.005 C 
ENDBRANCH  45  46
ENDBRANCH  44  45
ENDBRANCH  41  44
ENDBRANCH   1  40
BRANCH  13  48
HETATM   48  C19 UNL     1      12.366  76.687  11.102  1.00  0.00     0.208 C 
HETATM   49  O3  UNL     1      12.797  75.589  11.535  1.00  0.00    -0.646 OA
HETATM   50  O4  UNL     1      11.992  77.634  12.037  1.00  0.00    -0.646 OA
ENDBRANCH  13  48
TORSDOF 8
ENDMDL
MODEL 5
REMARK VINA RESULT: -8.540389162      0.873      1.015
REMARK  8 active torsions:
REMARK  status: ('A' for Active; 'I' for Inactive)
REMARK    1  A    between atoms: C2_2  and  C3_3 
REMARK    2  A    between atoms: C3_3  and  C4_4 
REMARK    3  A    between atoms: C4_4  and  N1_5 
REMARK       I    between atoms: N1_5  and  C5_7 
REMARK    4  A    between atoms: C5_7  and  C6_9 
REMARK    5  A    between atoms: C17_21  and  C19_23 
REMARK    6  A    between atoms: C24_30  and  O5_31 
REMARK    7  A    between atoms: O5_31  and  C25_32 
REMARK    8  A    between atoms: C35_43  and  O7_44 
ROOT
HETATM    1  C6  UNL     1      13.307  78.173   3.219  1.00  0.00     0.086 C 
HETATM    2  C7  UNL     1      14.222  78.118   4.452  1.00  0.00     0.015 C 
HETATM    3  C8  UNL     1      13.243  78.160   5.623  1.00  0.00     0.010 C 
HETATM    4  C9  UNL     1      12.368  76.901   5.645  1.00  0.00    -0.039 C 
HETATM    5  C10 UNL     1      10.967  77.362   5.845  1.00  0.00     0.015 C 
HETATM    6  C11 UNL     1      12.828  76.148   6.866  1.00  0.00     0.015 C 
HETATM    7  C12 UNL     1      12.164  74.820   7.095  1.00  0.00     0.003 C 
HETATM    8  C13 UNL     1      12.798  73.803   6.199  1.00  0.00     0.019 C 
HETATM    9  C14 UNL     1      13.024  72.455   6.810  1.00  0.00     0.010 C 
HETATM   10  C15 UNL     1      13.668  72.655   8.198  1.00  0.00     0.033 C 
HETATM   11  C16 UNL     1      12.485  73.180   9.007  1.00  0.00     0.132 C 
HETATM   12  O2  UNL     1      12.722  73.181  10.372  1.00  0.00    -0.363 OA
HETATM   13  C17 UNL     1      11.516  73.324  11.014  1.00  0.00     0.145 C 
HETATM   14  C18 UNL     1      11.874  73.722  12.461  1.00  0.00     0.058 C 
HETATM   15  C20 UNL     1      10.604  74.364  10.488  1.00  0.00     0.050 C 
HETATM   16  C21 UNL     1      10.903  74.981   9.191  1.00  0.00     0.015 C 
HETATM   17  C22 UNL     1      12.233  74.569   8.564  1.00  0.00    -0.014 C 
HETATM   18  C23 UNL     1      13.282  75.442   9.272  1.00  0.00     0.018 C 
HETATM   19  C24 UNL     1      12.135  73.613   4.873  1.00  0.00     0.126 C 
HETATM   20  C36 UNL     1      11.652  74.955   4.273  1.00  0.00     0.038 C 
HETATM   21  C37 UNL     1      12.616  76.070   4.442  1.00  0.00     0.005 C 
HETATM   22  C38 UNL     1      12.691  76.826   3.127  1.00  0.00    -0.031 C 
HETATM   23  C39 UNL     1      11.314  76.952   2.478  1.00  0.00     0.016 C 
HETATM   24  C40 UNL     1      13.552  75.972   2.222  1.00  0.00     0.016 C 
ENDROOT
BRANCH  19  25
HETATM   25  O5  UNL     1      10.987  72.855   4.919  1.00  0.00    -0.380 OA
BRANCH  25  26
HETATM   26  C25 UNL     1      10.909  71.789   4.069  1.00  0.00     0.122 C 
HETATM   27  C26 UNL     1      11.264  72.201   2.673  1.00  0.00     0.032 C 
HETATM   28  C27 UNL     1      10.537  71.405   1.620  1.00  0.00     0.013 C 
HETATM   29  C28 UNL     1      10.757  69.963   1.608  1.00  0.00     0.060 C 
HETATM   30  C29 UNL     1      11.850  69.375   0.761  1.00  0.00     0.093 C 
HETATM   31  C31 UNL     1      11.779  69.389   2.521  1.00  0.00     0.100 C 
HETATM   32  C30 UNL     1      11.958  69.371  -0.605  1.00  0.00     0.049 C 
HETATM   33  O6  UNL     1      12.748  69.882   1.695  1.00  0.00    -0.363 OA
HETATM   34  C35 UNL     1      11.773  68.157   1.655  1.00  0.00     0.188 C 
HETATM   35  C32 UNL     1      11.684  69.416   3.893  1.00  0.00     0.022 C 
HETATM   36  C33 UNL     1      10.268  69.062   4.367  1.00  0.00     0.013 C 
HETATM   37  C34 UNL     1      12.006  70.774   4.483  1.00  0.00     0.039 C 
BRANCH  34  38
HETATM   38  O7  UNL     1      12.917  67.386   1.692  1.00  0.00    -0.389 OA
ATOM     39  H7  UNL     1      13.417  67.447   2.496  1.00  0.00     0.210 HD
ENDBRANCH  34  38
ENDBRANCH  25  26
ENDBRANCH  19  25
BRANCH   1  40
HETATM   40  C5  UNL     1      14.086  78.643   2.078  1.00  0.00     0.222 C 
HETATM   41  N1  UNL     1      13.570  79.240   0.899  1.00  0.00    -0.361 N 
ATOM     42  H1  UNL     1      12.559  79.346   0.812  1.00  0.00     0.162 HD
HETATM   43  O1  UNL     1      15.355  78.522   2.124  1.00  0.00    -0.273 OA
BRANCH  41  44
HETATM   44  C4  UNL     1      14.400  79.699  -0.172  1.00  0.00     0.122 C 
BRANCH  44  45
HETATM   45  C3  UNL     1      14.766  78.717  -1.224  1.00  0.00     0.019 C 
BRANCH  45  46
HETATM   46  C2  UNL     1      13.610  78.167  -2.018  1.00  0.00    -0.003 C 
HETATM   47  C1  UNL     1      13.263  76.813  -1.383  1.00  0.00     0.005 C 
ENDBRANCH  45  46
ENDBRANCH  44  45
ENDBRANCH  41  44
ENDBRANCH   1  40
BRANCH  13  48
HETATM   48  C19 UNL     1      10.885  71.989  11.137  1.00  0.00     0.208 C 
HETATM   49  O3  UNL     1      10.515  71.307  10.148  1.00  0.00    -0.646 OA
HETATM   50  O4  UNL     1      10.683  71.446  12.392  1.00  0.00    -0.646 OA
ENDBRANCH  13  48
TORSDOF 8
ENDMDL
