MODEL 1
REMARK VINA RESULT: -7.398564943      0.000      0.000
REMARK  9 active torsions:
REMARK  status: ('A' for Active; 'I' for Inactive)
REMARK    1  A    between atoms: C2_2  and  C3_3 
REMARK    2  A    between atoms: C2_2  and  N1_41 
REMARK    3  A    between atoms: C3_3  and  O1_4 
REMARK    4  A    between atoms: O1_4  and  C4_5 
REMARK    5  A    between atoms: C36_38  and  O3_39 
REMARK    6  A    between atoms: N1_41  and  C37_43 
REMARK    7  A    between atoms: C37_43  and  C38_44 
REMARK    8  A    between atoms: C38_44  and  S1_45 
REMARK    9  A    between atoms: S1_45  and  N2_46 
ROOT
HETATM    1  C4  UNL     1       8.394  69.409  12.074  1.00  0.00     0.221 C 
HETATM    2  C5  UNL     1       6.955  69.176  12.054  1.00  0.00     0.166 C 
HETATM    3  O2  UNL     1       6.317  68.409  12.748  1.00  0.00    -0.294 OA
HETATM    4  C6  UNL     1       6.117  69.960  11.067  1.00  0.00     0.020 C 
HETATM    5  C7  UNL     1       5.516  71.088  11.911  1.00  0.00     0.023 C 
HETATM    6  C8  UNL     1       4.995  69.171  10.522  1.00  0.00     0.023 C 
HETATM    7  C9  UNL     1       7.067  70.549  10.112  1.00  0.00     0.012 C 
HETATM    8  C10 UNL     1       6.449  71.213   8.893  1.00  0.00     0.007 C 
HETATM    9  C11 UNL     1       7.514  72.228   8.444  1.00  0.00     0.011 C 
HETATM   10  C12 UNL     1       8.789  71.589   7.968  1.00  0.00    -0.032 C 
HETATM   11  C13 UNL     1       9.823  72.377   8.745  1.00  0.00     0.016 C 
HETATM   12  C14 UNL     1       8.766  70.158   8.335  1.00  0.00     0.005 C 
HETATM   13  C15 UNL     1      10.223  69.758   8.173  1.00  0.00     0.007 C 
HETATM   14  C16 UNL     1      10.775  70.130   6.827  1.00  0.00     0.007 C 
HETATM   15  C17 UNL     1       9.795  70.626   5.841  1.00  0.00     0.004 C 
HETATM   16  C18 UNL     1       8.983  71.723   6.440  1.00  0.00    -0.032 C 
HETATM   17  C19 UNL     1       9.529  73.109   6.363  1.00  0.00     0.016 C 
HETATM   18  C20 UNL     1       7.628  71.671   5.769  1.00  0.00     0.010 C 
HETATM   19  C21 UNL     1       7.501  72.580   4.591  1.00  0.00     0.001 C 
HETATM   20  C22 UNL     1       8.425  72.304   3.472  1.00  0.00     0.006 C 
HETATM   21  C23 UNL     1       9.126  70.982   3.489  1.00  0.00     0.003 C 
HETATM   22  C24 UNL     1       9.243  70.627   2.042  1.00  0.00    -0.043 C 
HETATM   23  C25 UNL     1       9.837  71.718   1.192  1.00  0.00     0.015 C 
HETATM   24  C26 UNL     1       7.815  70.434   1.509  1.00  0.00     0.015 C 
HETATM   25  C27 UNL     1       9.942  69.353   1.746  1.00  0.00     0.010 C 
HETATM   26  C28 UNL     1      11.211  69.571   2.440  1.00  0.00     0.010 C 
HETATM   27  C29 UNL     1      11.063  69.565   3.980  1.00  0.00    -0.040 C 
HETATM   28  C30 UNL     1      12.516  69.561   4.352  1.00  0.00     0.015 C 
HETATM   29  C31 UNL     1      10.339  68.285   4.202  1.00  0.00     0.015 C 
HETATM   30  C32 UNL     1      10.276  70.820   4.430  1.00  0.00    -0.028 C 
HETATM   31  C33 UNL     1      11.328  71.908   4.285  1.00  0.00     0.016 C 
HETATM   32  C34 UNL     1       8.141  69.643   9.558  1.00  0.00    -0.006 C 
HETATM   33  C35 UNL     1       7.528  68.267   9.191  1.00  0.00     0.019 C 
HETATM   34  C36 UNL     1       9.056  69.299  10.711  1.00  0.00     0.163 C 
ENDROOT
BRANCH   1  35
HETATM   35  O1  UNL     1       8.684  70.619  12.685  1.00  0.00    -0.374 OA
BRANCH  35  36
HETATM   36  C3  UNL     1       9.981  70.825  13.036  1.00  0.00     0.193 C 
BRANCH  36  37
HETATM   37  C2  UNL     1      10.545  72.200  12.793  1.00  0.00     0.100 C 
HETATM   38  C1  UNL     1       9.516  73.114  12.157  1.00  0.00     0.034 C 
BRANCH  37  39
HETATM   39  N1  UNL     1      11.692  72.020  11.933  1.00  0.00    -0.395 N 
ATOM     40  H1  UNL     1      11.662  71.410  11.115  1.00  0.00     0.159 HD
BRANCH  39  41
HETATM   41  C37 UNL     1      12.850  72.731  12.285  1.00  0.00     0.072 C 
BRANCH  41  42
HETATM   42  C38 UNL     1      13.141  74.026  11.632  1.00  0.00     0.206 C 
BRANCH  42  43
HETATM   43  S1  UNL     1      13.715  73.953   9.968  1.00  0.00     0.229 S 
HETATM   44  O4  UNL     1      13.132  72.728   9.262  1.00  0.00    -0.206 OA
HETATM   45  O5  UNL     1      13.209  75.126   9.163  1.00  0.00    -0.206 OA
BRANCH  43  46
HETATM   46  N2  UNL     1      15.408  73.852   9.819  1.00  0.00    -0.328 N 
ATOM     47  H22 UNL     1      15.882  72.970   9.624  1.00  0.00     0.168 HD
ATOM     48  H21 UNL     1      15.892  74.742   9.940  1.00  0.00     0.168 HD
ENDBRANCH  43  46
ENDBRANCH  42  43
ENDBRANCH  41  42
ENDBRANCH  39  41
ENDBRANCH  37  39
ENDBRANCH  36  37
ENDBRANCH  35  36
ENDBRANCH   1  35
BRANCH  34  49
HETATM   49  O3  UNL     1       9.501  67.955  10.638  1.00  0.00    -0.392 OA
ATOM     50  H3  UNL     1       9.365  67.707   9.731  1.00  0.00     0.210 HD
ENDBRANCH  34  49
TORSDOF 9
ENDMDL
MODEL 2
REMARK VINA RESULT: -7.229992543      6.171      8.938
REMARK  9 active torsions:
REMARK  status: ('A' for Active; 'I' for Inactive)
REMARK    1  A    between atoms: C2_2  and  C3_3 
REMARK    2  A    between atoms: C2_2  and  N1_41 
REMARK    3  A    between atoms: C3_3  and  O1_4 
REMARK    4  A    between atoms: O1_4  and  C4_5 
REMARK    5  A    between atoms: C36_38  and  O3_39 
REMARK    6  A    between atoms: N1_41  and  C37_43 
REMARK    7  A    between atoms: C37_43  and  C38_44 
REMARK    8  A    between atoms: C38_44  and  S1_45 
REMARK    9  A    between atoms: S1_45  and  N2_46 
ROOT
HETATM    1  C4  UNL     1       9.756  71.558   3.256  1.00  0.00     0.221 C 
HETATM    2  C5  UNL     1       8.342  71.915   3.274  1.00  0.00     0.166 C 
HETATM    3  O2  UNL     1       7.442  71.416   2.626  1.00  0.00    -0.294 OA
HETATM    4  C6  UNL     1       7.898  73.036   4.189  1.00  0.00     0.020 C 
HETATM    5  C7  UNL     1       7.314  72.307   5.403  1.00  0.00     0.023 C 
HETATM    6  C8  UNL     1       6.817  73.853   3.604  1.00  0.00     0.023 C 
HETATM    7  C9  UNL     1       9.128  73.725   4.606  1.00  0.00     0.012 C 
HETATM    8  C10 UNL     1       8.929  75.026   5.367  1.00  0.00     0.007 C 
HETATM    9  C11 UNL     1      10.222  75.179   6.184  1.00  0.00     0.011 C 
HETATM   10  C12 UNL     1      11.448  75.376   5.337  1.00  0.00    -0.032 C 
HETATM   11  C13 UNL     1      12.391  74.353   5.936  1.00  0.00     0.016 C 
HETATM   12  C14 UNL     1      11.102  75.081   3.931  1.00  0.00     0.005 C 
HETATM   13  C15 UNL     1      12.470  74.923   3.287  1.00  0.00     0.007 C 
HETATM   14  C16 UNL     1      13.372  76.091   3.558  1.00  0.00     0.007 C 
HETATM   15  C17 UNL     1      12.744  77.254   4.215  1.00  0.00     0.004 C 
HETATM   16  C18 UNL     1      12.010  76.814   5.435  1.00  0.00    -0.032 C 
HETATM   17  C19 UNL     1      12.782  76.709   6.708  1.00  0.00     0.016 C 
HETATM   18  C20 UNL     1      10.858  77.778   5.616  1.00  0.00     0.010 C 
HETATM   19  C21 UNL     1      11.160  78.917   6.533  1.00  0.00     0.001 C 
HETATM   20  C22 UNL     1      12.259  79.805   6.103  1.00  0.00     0.006 C 
HETATM   21  C23 UNL     1      12.707  79.681   4.680  1.00  0.00     0.003 C 
HETATM   22  C24 UNL     1      13.095  81.076   4.310  1.00  0.00    -0.043 C 
HETATM   23  C25 UNL     1      14.043  81.724   5.283  1.00  0.00     0.015 C 
HETATM   24  C26 UNL     1      11.817  81.928   4.364  1.00  0.00     0.015 C 
HETATM   25  C27 UNL     1      13.622  81.255   2.935  1.00  0.00     0.010 C 
HETATM   26  C28 UNL     1      14.714  80.281   2.933  1.00  0.00     0.010 C 
HETATM   27  C29 UNL     1      14.214  78.817   2.953  1.00  0.00    -0.040 C 
HETATM   28  C30 UNL     1      15.519  78.124   2.700  1.00  0.00     0.015 C 
HETATM   29  C31 UNL     1      13.255  78.818   1.816  1.00  0.00     0.015 C 
HETATM   30  C32 UNL     1      13.565  78.509   4.324  1.00  0.00    -0.028 C 
HETATM   31  C33 UNL     1      14.787  78.367   5.215  1.00  0.00     0.016 C 
HETATM   32  C34 UNL     1      10.134  74.055   3.531  1.00  0.00    -0.006 C 
HETATM   33  C35 UNL     1       9.402  74.606   2.279  1.00  0.00     0.019 C 
HETATM   34  C36 UNL     1      10.687  72.738   3.035  1.00  0.00     0.163 C 
ENDROOT
BRANCH   1  35
HETATM   35  O1  UNL     1      10.093  70.850   4.399  1.00  0.00    -0.374 OA
BRANCH  35  36
HETATM   36  C3  UNL     1      10.643  69.621   4.210  1.00  0.00     0.193 C 
BRANCH  36  37
HETATM   37  C2  UNL     1      11.982  69.366   4.851  1.00  0.00     0.100 C 
HETATM   38  C1  UNL     1      12.458  70.573   5.634  1.00  0.00     0.034 C 
BRANCH  37  39
HETATM   39  N1  UNL     1      12.891  69.045   3.775  1.00  0.00    -0.395 N 
ATOM     40  H1  UNL     1      13.669  69.657   3.526  1.00  0.00     0.159 HD
BRANCH  39  41
HETATM   41  C37 UNL     1      12.643  67.845   3.090  1.00  0.00     0.072 C 
BRANCH  41  42
HETATM   42  C38 UNL     1      12.880  67.771   1.632  1.00  0.00     0.206 C 
BRANCH  42  43
HETATM   43  S1  UNL     1      12.046  68.966   0.641  1.00  0.00     0.229 S 
HETATM   44  O4  UNL     1      10.532  68.798   0.776  1.00  0.00    -0.206 OA
HETATM   45  O5  UNL     1      12.312  70.368   1.135  1.00  0.00    -0.206 OA
BRANCH  43  46
HETATM   46  N2  UNL     1      12.410  68.871  -1.019  1.00  0.00    -0.328 N 
ATOM     47  H22 UNL     1      13.246  69.301  -1.416  1.00  0.00     0.168 HD
ATOM     48  H21 UNL     1      11.724  68.352  -1.568  1.00  0.00     0.168 HD
ENDBRANCH  43  46
ENDBRANCH  42  43
ENDBRANCH  41  42
ENDBRANCH  39  41
ENDBRANCH  37  39
ENDBRANCH  36  37
ENDBRANCH  35  36
ENDBRANCH   1  35
BRANCH  34  49
HETATM   49  O3  UNL     1      10.907  72.761   1.634  1.00  0.00    -0.392 OA
ATOM     50  H3  UNL     1      11.450  73.526   1.490  1.00  0.00     0.210 HD
ENDBRANCH  34  49
TORSDOF 9
ENDMDL
MODEL 3
REMARK VINA RESULT: -7.198468863      2.850      4.820
REMARK  9 active torsions:
REMARK  status: ('A' for Active; 'I' for Inactive)
REMARK    1  A    between atoms: C2_2  and  C3_3 
REMARK    2  A    between atoms: C2_2  and  N1_41 
REMARK    3  A    between atoms: C3_3  and  O1_4 
REMARK    4  A    between atoms: O1_4  and  C4_5 
REMARK    5  A    between atoms: C36_38  and  O3_39 
REMARK    6  A    between atoms: N1_41  and  C37_43 
REMARK    7  A    between atoms: C37_43  and  C38_44 
REMARK    8  A    between atoms: C38_44  and  S1_45 
REMARK    9  A    between atoms: S1_45  and  N2_46 
ROOT
HETATM    1  C4  UNL     1       9.684  74.372  12.215  1.00  0.00     0.221 C 
HETATM    2  C5  UNL     1       9.250  75.723  11.880  1.00  0.00     0.166 C 
HETATM    3  O2  UNL     1       8.427  76.404  12.462  1.00  0.00    -0.294 OA
HETATM    4  C6  UNL     1       9.867  76.396  10.673  1.00  0.00     0.020 C 
HETATM    5  C7  UNL     1      10.930  77.320  11.272  1.00  0.00     0.023 C 
HETATM    6  C8  UNL     1       8.905  77.245   9.943  1.00  0.00     0.023 C 
HETATM    7  C9  UNL     1      10.545  75.329   9.923  1.00  0.00     0.012 C 
HETATM    8  C10 UNL     1      11.066  75.719   8.549  1.00  0.00     0.007 C 
HETATM    9  C11 UNL     1      12.203  74.718   8.285  1.00  0.00     0.011 C 
HETATM   10  C12 UNL     1      11.733  73.295   8.164  1.00  0.00    -0.032 C 
HETATM   11  C13 UNL     1      12.690  72.585   9.100  1.00  0.00     0.016 C 
HETATM   12  C14 UNL     1      10.329  73.221   8.618  1.00  0.00     0.005 C 
HETATM   13  C15 UNL     1      10.133  71.728   8.825  1.00  0.00     0.007 C 
HETATM   14  C16 UNL     1      10.526  70.924   7.619  1.00  0.00     0.007 C 
HETATM   15  C17 UNL     1      10.838  71.696   6.401  1.00  0.00     0.004 C 
HETATM   16  C18 UNL     1      11.832  72.761   6.716  1.00  0.00    -0.032 C 
HETATM   17  C19 UNL     1      13.278  72.396   6.667  1.00  0.00     0.016 C 
HETATM   18  C20 UNL     1      11.562  73.899   5.756  1.00  0.00     0.010 C 
HETATM   19  C21 UNL     1      12.396  73.858   4.518  1.00  0.00     0.001 C 
HETATM   20  C22 UNL     1      12.210  72.667   3.666  1.00  0.00     0.006 C 
HETATM   21  C23 UNL     1      11.001  71.826   3.939  1.00  0.00     0.003 C 
HETATM   22  C24 UNL     1      10.610  71.323   2.587  1.00  0.00    -0.043 C 
HETATM   23  C25 UNL     1      11.739  70.688   1.820  1.00  0.00     0.015 C 
HETATM   24  C26 UNL     1      10.194  72.546   1.755  1.00  0.00     0.015 C 
HETATM   25  C27 UNL     1       9.437  70.415   2.553  1.00  0.00     0.010 C 
HETATM   26  C28 UNL     1       9.860  69.387   3.503  1.00  0.00     0.010 C 
HETATM   27  C29 UNL     1       9.895  69.895   4.964  1.00  0.00    -0.040 C 
HETATM   28  C30 UNL     1      10.112  68.585   5.660  1.00  0.00     0.015 C 
HETATM   29  C31 UNL     1       8.535  70.481   5.104  1.00  0.00     0.015 C 
HETATM   30  C32 UNL     1      11.042  70.922   5.129  1.00  0.00    -0.028 C 
HETATM   31  C33 UNL     1      12.261  70.015   5.152  1.00  0.00     0.016 C 
HETATM   32  C34 UNL     1       9.780  74.047   9.698  1.00  0.00    -0.006 C 
HETATM   33  C35 UNL     1       8.317  74.373   9.299  1.00  0.00     0.019 C 
HETATM   34  C36 UNL     1       9.615  73.397  11.052  1.00  0.00     0.163 C 
ENDROOT
BRANCH   1  35
HETATM   35  O1  UNL     1      10.947  74.395  12.787  1.00  0.00    -0.374 OA
BRANCH  35  36
HETATM   36  C3  UNL     1      11.128  73.613  13.884  1.00  0.00     0.193 C 
BRANCH  36  37
HETATM   37  C2  UNL     1      12.318  72.688  13.876  1.00  0.00     0.100 C 
HETATM   38  C1  UNL     1      13.112  72.824  12.592  1.00  0.00     0.034 C 
BRANCH  37  39
HETATM   39  N1  UNL     1      11.792  71.352  14.031  1.00  0.00    -0.395 N 
ATOM     40  H1  UNL     1      12.402  70.536  14.082  1.00  0.00     0.159 HD
BRANCH  39  41
HETATM   41  C37 UNL     1      10.395  71.240  14.109  1.00  0.00     0.072 C 
BRANCH  41  42
HETATM   42  C38 UNL     1       9.780  69.916  14.349  1.00  0.00     0.206 C 
BRANCH  42  43
HETATM   43  S1  UNL     1       9.246  69.029  12.924  1.00  0.00     0.229 S 
HETATM   44  O4  UNL     1       7.797  68.572  13.099  1.00  0.00    -0.206 OA
HETATM   45  O5  UNL     1       9.213  69.920  11.706  1.00  0.00    -0.206 OA
BRANCH  43  46
HETATM   46  N2  UNL     1      10.166  67.638  12.583  1.00  0.00    -0.328 N 
ATOM     47  H22 UNL     1       9.856  66.704  12.852  1.00  0.00     0.168 HD
ATOM     48  H21 UNL     1      11.042  67.825  12.094  1.00  0.00     0.168 HD
ENDBRANCH  43  46
ENDBRANCH  42  43
ENDBRANCH  41  42
ENDBRANCH  39  41
ENDBRANCH  37  39
ENDBRANCH  36  37
ENDBRANCH  35  36
ENDBRANCH   1  35
BRANCH  34  49
HETATM   49  O3  UNL     1       8.346  72.778  11.181  1.00  0.00    -0.392 OA
ATOM     50  H3  UNL     1       7.784  73.457  11.536  1.00  0.00     0.210 HD
ENDBRANCH  34  49
TORSDOF 9
ENDMDL
MODEL 4
REMARK VINA RESULT: -7.090466474      4.207      6.461
REMARK  9 active torsions:
REMARK  status: ('A' for Active; 'I' for Inactive)
REMARK    1  A    between atoms: C2_2  and  C3_3 
REMARK    2  A    between atoms: C2_2  and  N1_41 
REMARK    3  A    between atoms: C3_3  and  O1_4 
REMARK    4  A    between atoms: O1_4  and  C4_5 
REMARK    5  A    between atoms: C36_38  and  O3_39 
REMARK    6  A    between atoms: N1_41  and  C37_43 
REMARK    7  A    between atoms: C37_43  and  C38_44 
REMARK    8  A    between atoms: C38_44  and  S1_45 
REMARK    9  A    between atoms: S1_45  and  N2_46 
ROOT
HETATM    1  C4  UNL     1      11.949  70.853   6.668  1.00  0.00     0.221 C 
HETATM    2  C5  UNL     1      11.083  69.906   5.977  1.00  0.00     0.166 C 
HETATM    3  O2  UNL     1      11.174  68.693   5.957  1.00  0.00    -0.294 OA
HETATM    4  C6  UNL     1       9.921  70.452   5.175  1.00  0.00     0.020 C 
HETATM    5  C7  UNL     1       8.716  70.261   6.100  1.00  0.00     0.023 C 
HETATM    6  C8  UNL     1       9.662  69.673   3.948  1.00  0.00     0.023 C 
HETATM    7  C9  UNL     1      10.174  71.893   5.032  1.00  0.00     0.012 C 
HETATM    8  C10 UNL     1       9.249  72.632   4.078  1.00  0.00     0.007 C 
HETATM    9  C11 UNL     1       9.294  74.087   4.573  1.00  0.00     0.011 C 
HETATM   10  C12 UNL     1      10.645  74.731   4.425  1.00  0.00    -0.032 C 
HETATM   11  C13 UNL     1      10.845  75.322   5.805  1.00  0.00     0.016 C 
HETATM   12  C14 UNL     1      11.634  73.681   4.103  1.00  0.00     0.005 C 
HETATM   13  C15 UNL     1      12.953  74.383   4.383  1.00  0.00     0.007 C 
HETATM   14  C16 UNL     1      13.067  75.699   3.671  1.00  0.00     0.007 C 
HETATM   15  C17 UNL     1      12.005  75.998   2.691  1.00  0.00     0.004 C 
HETATM   16  C18 UNL     1      10.667  75.812   3.319  1.00  0.00    -0.032 C 
HETATM   17  C19 UNL     1      10.086  76.965   4.066  1.00  0.00     0.016 C 
HETATM   18  C20 UNL     1       9.724  75.397   2.211  1.00  0.00     0.010 C 
HETATM   19  C21 UNL     1       8.980  76.534   1.592  1.00  0.00     0.001 C 
HETATM   20  C22 UNL     1       9.817  77.560   0.937  1.00  0.00     0.006 C 
HETATM   21  C23 UNL     1      11.243  77.193   0.667  1.00  0.00     0.003 C 
HETATM   22  C24 UNL     1      11.553  77.902  -0.612  1.00  0.00    -0.043 C 
HETATM   23  C25 UNL     1      11.202  79.366  -0.599  1.00  0.00     0.015 C 
HETATM   24  C26 UNL     1      10.659  77.284  -1.698  1.00  0.00     0.015 C 
HETATM   25  C27 UNL     1      12.939  77.746  -1.116  1.00  0.00     0.010 C 
HETATM   26  C28 UNL     1      13.704  78.193   0.048  1.00  0.00     0.010 C 
HETATM   27  C29 UNL     1      13.625  77.205   1.236  1.00  0.00    -0.040 C 
HETATM   28  C30 UNL     1      14.672  77.818   2.117  1.00  0.00     0.015 C 
HETATM   29  C31 UNL     1      14.006  75.925   0.580  1.00  0.00     0.015 C 
HETATM   30  C32 UNL     1      12.192  77.210   1.821  1.00  0.00    -0.028 C 
HETATM   31  C33 UNL     1      12.181  78.522   2.588  1.00  0.00     0.016 C 
HETATM   32  C34 UNL     1      11.566  72.313   4.625  1.00  0.00    -0.006 C 
HETATM   33  C35 UNL     1      12.085  71.386   3.495  1.00  0.00     0.019 C 
HETATM   34  C36 UNL     1      12.478  71.967   5.780  1.00  0.00     0.163 C 
ENDROOT
BRANCH   1  35
HETATM   35  O1  UNL     1      11.319  71.357   7.796  1.00  0.00    -0.374 OA
BRANCH  35  36
HETATM   36  C3  UNL     1      11.933  72.397   8.419  1.00  0.00     0.193 C 
BRANCH  36  37
HETATM   37  C2  UNL     1      11.070  73.290   9.271  1.00  0.00     0.100 C 
HETATM   38  C1  UNL     1       9.706  73.499   8.643  1.00  0.00     0.034 C 
BRANCH  37  39
HETATM   39  N1  UNL     1      11.785  74.538   9.402  1.00  0.00    -0.395 N 
ATOM     40  H1  UNL     1      12.014  75.116   8.593  1.00  0.00     0.159 HD
BRANCH  39  41
HETATM   41  C37 UNL     1      12.149  74.911  10.706  1.00  0.00     0.072 C 
BRANCH  41  42
HETATM   42  C38 UNL     1      13.242  74.190  11.395  1.00  0.00     0.206 C 
BRANCH  42  43
HETATM   43  S1  UNL     1      12.771  73.146  12.733  1.00  0.00     0.229 S 
HETATM   44  O4  UNL     1      14.000  72.755  13.556  1.00  0.00    -0.206 OA
HETATM   45  O5  UNL     1      11.883  73.877  13.712  1.00  0.00    -0.206 OA
BRANCH  43  46
HETATM   46  N2  UNL     1      12.014  71.698  12.255  1.00  0.00    -0.328 N 
ATOM     47  H22 UNL     1      11.347  71.211  12.855  1.00  0.00     0.168 HD
ATOM     48  H21 UNL     1      12.287  71.371  11.328  1.00  0.00     0.168 HD
ENDBRANCH  43  46
ENDBRANCH  42  43
ENDBRANCH  41  42
ENDBRANCH  39  41
ENDBRANCH  37  39
ENDBRANCH  36  37
ENDBRANCH  35  36
ENDBRANCH   1  35
BRANCH  34  49
HETATM   49  O3  UNL     1      13.735  71.493   5.325  1.00  0.00    -0.392 OA
ATOM     50  H3  UNL     1      13.745  71.695   4.397  1.00  0.00     0.210 HD
ENDBRANCH  34  49
TORSDOF 9
ENDMDL
MODEL 5
REMARK VINA RESULT: -7.088781605      4.687      8.246
REMARK  9 active torsions:
REMARK  status: ('A' for Active; 'I' for Inactive)
REMARK    1  A    between atoms: C2_2  and  C3_3 
REMARK    2  A    between atoms: C2_2  and  N1_41 
REMARK    3  A    between atoms: C3_3  and  O1_4 
REMARK    4  A    between atoms: O1_4  and  C4_5 
REMARK    5  A    between atoms: C36_38  and  O3_39 
REMARK    6  A    between atoms: N1_41  and  C37_43 
REMARK    7  A    between atoms: C37_43  and  C38_44 
REMARK    8  A    between atoms: C38_44  and  S1_45 
REMARK    9  A    between atoms: S1_45  and  N2_46 
ROOT
HETATM    1  C4  UNL     1      10.233  69.905   5.764  1.00  0.00     0.221 C 
HETATM    2  C5  UNL     1       9.290  69.429   6.768  1.00  0.00     0.166 C 
HETATM    3  O2  UNL     1       8.314  68.723   6.596  1.00  0.00    -0.294 OA
HETATM    4  C6  UNL     1       9.509  69.839   8.209  1.00  0.00     0.020 C 
HETATM    5  C7  UNL     1      10.177  68.615   8.840  1.00  0.00     0.023 C 
HETATM    6  C8  UNL     1       8.243  70.073   8.932  1.00  0.00     0.023 C 
HETATM    7  C9  UNL     1      10.488  70.936   8.169  1.00  0.00     0.012 C 
HETATM    8  C10 UNL     1      10.715  71.663   9.484  1.00  0.00     0.007 C 
HETATM    9  C11 UNL     1      12.126  72.257   9.340  1.00  0.00     0.011 C 
HETATM   10  C12 UNL     1      12.231  73.300   8.264  1.00  0.00    -0.032 C 
HETATM   11  C13 UNL     1      13.454  72.824   7.507  1.00  0.00     0.016 C 
HETATM   12  C14 UNL     1      11.001  73.261   7.446  1.00  0.00     0.005 C 
HETATM   13  C15 UNL     1      11.410  74.041   6.207  1.00  0.00     0.007 C 
HETATM   14  C16 UNL     1      11.990  75.385   6.540  1.00  0.00     0.007 C 
HETATM   15  C17 UNL     1      11.891  75.801   7.952  1.00  0.00     0.004 C 
HETATM   16  C18 UNL     1      12.419  74.725   8.837  1.00  0.00    -0.032 C 
HETATM   17  C19 UNL     1      13.887  74.709   9.108  1.00  0.00     0.016 C 
HETATM   18  C20 UNL     1      11.663  74.830  10.143  1.00  0.00     0.010 C 
HETATM   19  C21 UNL     1      12.354  75.654  11.179  1.00  0.00     0.001 C 
HETATM   20  C22 UNL     1      12.576  77.069  10.821  1.00  0.00     0.006 C 
HETATM   21  C23 UNL     1      11.808  77.596   9.649  1.00  0.00     0.003 C 
HETATM   22  C24 UNL     1      11.540  79.019  10.015  1.00  0.00    -0.043 C 
HETATM   23  C25 UNL     1      12.766  79.782  10.441  1.00  0.00     0.015 C 
HETATM   24  C26 UNL     1      10.626  79.002  11.250  1.00  0.00     0.015 C 
HETATM   25  C27 UNL     1      10.807  79.818   9.002  1.00  0.00     0.010 C 
HETATM   26  C28 UNL     1      11.662  79.624   7.831  1.00  0.00     0.010 C 
HETATM   27  C29 UNL     1      11.607  78.180   7.278  1.00  0.00    -0.040 C 
HETATM   28  C30 UNL     1      12.362  78.394   6.000  1.00  0.00     0.015 C 
HETATM   29  C31 UNL     1      10.141  77.976   7.133  1.00  0.00     0.015 C 
HETATM   30  C32 UNL     1      12.281  77.214   8.283  1.00  0.00    -0.028 C 
HETATM   31  C33 UNL     1      13.753  77.514   8.053  1.00  0.00     0.016 C 
HETATM   32  C34 UNL     1      10.259  72.030   7.155  1.00  0.00    -0.006 C 
HETATM   33  C35 UNL     1       8.757  72.419   7.133  1.00  0.00     0.019 C 
HETATM   34  C36 UNL     1      10.458  71.408   5.792  1.00  0.00     0.163 C 
ENDROOT
BRANCH   1  35
HETATM   35  O1  UNL     1      11.429  69.210   5.851  1.00  0.00    -0.374 OA
BRANCH  35  36
HETATM   36  C3  UNL     1      12.312  69.394   4.834  1.00  0.00     0.193 C 
BRANCH  36  37
HETATM   37  C2  UNL     1      11.837  69.056   3.446  1.00  0.00     0.100 C 
HETATM   38  C1  UNL     1      12.838  68.181   2.718  1.00  0.00     0.034 C 
BRANCH  37  39
HETATM   39  N1  UNL     1      11.648  70.316   2.766  1.00  0.00    -0.395 N 
ATOM     40  H1  UNL     1      11.618  71.202   3.272  1.00  0.00     0.159 HD
BRANCH  39  41
HETATM   41  C37 UNL     1      11.507  70.254   1.371  1.00  0.00     0.072 C 
BRANCH  41  42
HETATM   42  C38 UNL     1      10.175  69.997   0.780  1.00  0.00     0.206 C 
BRANCH  42  43
HETATM   43  S1  UNL     1       8.807  70.793   1.554  1.00  0.00     0.229 S 
HETATM   44  O4  UNL     1       8.492  70.118   2.890  1.00  0.00    -0.206 OA
HETATM   45  O5  UNL     1       9.141  72.218   1.924  1.00  0.00    -0.206 OA
BRANCH  43  46
HETATM   46  N2  UNL     1       7.374  70.766   0.635  1.00  0.00    -0.328 N 
ATOM     47  H22 UNL     1       7.372  70.943  -0.369  1.00  0.00     0.168 HD
ATOM     48  H21 UNL     1       6.535  70.559   1.177  1.00  0.00     0.168 HD
ENDBRANCH  43  46
ENDBRANCH  42  43
ENDBRANCH  41  42
ENDBRANCH  39  41
ENDBRANCH  37  39
ENDBRANCH  36  37
ENDBRANCH  35  36
ENDBRANCH   1  35
BRANCH  34  49
HETATM   49  O3  UNL     1       9.537  71.923   4.845  1.00  0.00    -0.392 OA
ATOM     50  H3  UNL     1       8.762  72.130   5.354  1.00  0.00     0.210 HD
ENDBRANCH  34  49
TORSDOF 9
ENDMDL
