MODEL 1
REMARK VINA RESULT: -8.050033161      0.000      0.000
REMARK  8 active torsions:
REMARK  status: ('A' for Active; 'I' for Inactive)
REMARK    1  A    between atoms: O1_2  and  C2_3 
REMARK    2  A    between atoms: C2_3  and  C3_4 
REMARK    3  A    between atoms: C7_8  and  C9_10 
REMARK    4  A    between atoms: C15_16  and  C16_17 
REMARK    5  A    between atoms: C25_26  and  C26_27 
REMARK    6  A    between atoms: C26_27  and  C27_28 
REMARK    7  A    between atoms: C35_38  and  O3_39 
REMARK    8  A    between atoms: C38_43  and  O4_44 
ROOT
HETATM    1  C9  UNL     1      11.044  74.046   4.075  1.00  0.00     0.058 C 
HETATM    2  C10 UNL     1      12.184  74.356   5.031  1.00  0.00     0.021 C 
HETATM    3  C11 UNL     1      12.286  75.762   5.437  1.00  0.00     0.008 C 
HETATM    4  C12 UNL     1      12.577  76.786   4.348  1.00  0.00     0.016 C 
HETATM    5  C13 UNL     1      13.866  76.542   3.673  1.00  0.00     0.007 C 
HETATM    6  C14 UNL     1      13.882  76.553   2.172  1.00  0.00     0.007 C 
HETATM    7  C15 UNL     1      12.752  77.420   1.603  1.00  0.00     0.009 C 
HETATM    8  C36 UNL     1      11.515  76.769   2.031  1.00  0.00     0.013 C 
HETATM    9  C37 UNL     1      10.226  77.475   1.517  1.00  0.00     0.021 C 
HETATM   10  C38 UNL     1      11.170  75.367   1.896  1.00  0.00     0.130 C 
HETATM   11  C39 UNL     1      11.637  74.213   2.664  1.00  0.00     0.053 C 
HETATM   12  C40 UNL     1      11.377  77.120   3.539  1.00  0.00     0.147 C 
HETATM   13  O5  UNL     1      10.244  76.444   4.061  1.00  0.00    -0.314 OA
HETATM   14  C41 UNL     1      10.035  75.103   4.331  1.00  0.00     0.269 C 
HETATM   15  O6  UNL     1       8.918  74.856   4.810  1.00  0.00    -0.264 OA
ENDROOT
BRANCH   7  16
HETATM   16  C16 UNL     1      13.082  77.992   0.277  1.00  0.00    -0.013 C 
HETATM   17  C17 UNL     1      14.579  78.422   0.443  1.00  0.00     0.018 C 
HETATM   18  C18 UNL     1      13.090  77.165  -0.931  1.00  0.00     0.012 C 
HETATM   19  C19 UNL     1      12.031  77.422  -1.947  1.00  0.00     0.006 C 
HETATM   20  C20 UNL     1      11.940  78.766  -2.561  1.00  0.00    -0.010 C 
HETATM   21  C21 UNL     1      11.478  78.537  -3.983  1.00  0.00     0.006 C 
HETATM   22  C33 UNL     1      13.145  79.626  -2.411  1.00  0.00     0.001 C 
HETATM   23  C22 UNL     1      11.422  79.822  -4.709  1.00  0.00     0.011 C 
HETATM   24  C23 UNL     1      12.745  80.484  -4.781  1.00  0.00    -0.032 C 
HETATM   25  C24 UNL     1      12.417  81.858  -5.416  1.00  0.00     0.016 C 
HETATM   26  C25 UNL     1      13.806  79.886  -5.620  1.00  0.00     0.006 C 
HETATM   27  C31 UNL     1      13.378  80.680  -3.421  1.00  0.00    -0.032 C 
HETATM   28  C28 UNL     1      15.127  80.352  -5.091  1.00  0.00    -0.013 C 
HETATM   29  C29 UNL     1      15.811  81.434  -5.835  1.00  0.00     0.010 C 
HETATM   30  C30 UNL     1      14.874  80.788  -3.678  1.00  0.00     0.015 C 
HETATM   31  C32 UNL     1      12.967  82.079  -2.961  1.00  0.00     0.016 C 
HETATM   32  C34 UNL     1      13.054  80.213  -1.032  1.00  0.00     0.038 C 
HETATM   33  C35 UNL     1      12.486  79.378   0.050  1.00  0.00     0.127 C 
BRANCH  26  34
HETATM   34  C26 UNL     1      13.688  79.944  -7.089  1.00  0.00     0.105 C 
BRANCH  34  35
HETATM   35  C27 UNL     1      13.609  78.676  -7.835  1.00  0.00     0.231 C 
HETATM   36  N1  UNL     1      14.776  77.941  -8.182  1.00  0.00    -0.062 NA
HETATM   37  O2  UNL     1      12.497  78.216  -8.182  1.00  0.00    -0.277 OA
ENDBRANCH  34  35
ENDBRANCH  26  34
BRANCH  33  38
HETATM   38  O3  UNL     1      12.864  80.080   1.230  1.00  0.00    -0.395 OA
ATOM     39  H3  UNL     1      13.221  80.890   0.886  1.00  0.00     0.210 HD
ENDBRANCH  33  38
ENDBRANCH   7  16
BRANCH  10  40
HETATM   40  O4  UNL     1      10.987  74.951   0.542  1.00  0.00    -0.395 OA
ATOM     41  H4  UNL     1      11.286  74.066   0.372  1.00  0.00     0.210 HD
ENDBRANCH  10  40
BRANCH   1  42
HETATM   42  C7  UNL     1      10.566  72.664   4.345  1.00  0.00    -0.027 C 
HETATM   43  C6  UNL     1       9.343  72.213   3.676  1.00  0.00     0.010 C 
HETATM   44  C5  UNL     1       8.850  70.951   4.414  1.00  0.00     0.001 C 
HETATM   45  C4  UNL     1       9.846  69.870   4.165  1.00  0.00     0.007 C 
HETATM   46  C3  UNL     1      11.142  70.333   3.563  1.00  0.00     0.010 C 
HETATM   47  C42 UNL     1      11.655  71.619   4.121  1.00  0.00     0.017 C 
HETATM   48  C8  UNL     1      10.283  72.590   5.863  1.00  0.00     0.016 C 
BRANCH  46  49
HETATM   49  C2  UNL     1      12.204  69.275   3.867  1.00  0.00     0.171 C 
BRANCH  49  50
HETATM   50  O1  UNL     1      11.942  68.106   3.187  1.00  0.00    -0.396 OA
HETATM   51  C1  UNL     1      12.927  67.854   2.257  1.00  0.00     0.201 C 
ENDBRANCH  49  50
ENDBRANCH  46  49
ENDBRANCH   1  42
TORSDOF 8
ENDMDL
MODEL 2
REMARK VINA RESULT: -7.682467549      5.643      7.061
REMARK  8 active torsions:
REMARK  status: ('A' for Active; 'I' for Inactive)
REMARK    1  A    between atoms: O1_2  and  C2_3 
REMARK    2  A    between atoms: C2_3  and  C3_4 
REMARK    3  A    between atoms: C7_8  and  C9_10 
REMARK    4  A    between atoms: C15_16  and  C16_17 
REMARK    5  A    between atoms: C25_26  and  C26_27 
REMARK    6  A    between atoms: C26_27  and  C27_28 
REMARK    7  A    between atoms: C35_38  and  O3_39 
REMARK    8  A    between atoms: C38_43  and  O4_44 
ROOT
HETATM    1  C9  UNL     1      10.922  72.428   4.829  1.00  0.00     0.058 C 
HETATM    2  C10 UNL     1      10.516  72.250   6.283  1.00  0.00     0.021 C 
HETATM    3  C11 UNL     1       9.605  73.276   6.800  1.00  0.00     0.008 C 
HETATM    4  C12 UNL     1      10.120  74.709   6.850  1.00  0.00     0.016 C 
HETATM    5  C13 UNL     1      11.307  74.853   7.714  1.00  0.00     0.007 C 
HETATM    6  C14 UNL     1      12.485  75.601   7.162  1.00  0.00     0.007 C 
HETATM    7  C15 UNL     1      12.060  76.613   6.093  1.00  0.00     0.009 C 
HETATM    8  C36 UNL     1      11.494  75.813   5.009  1.00  0.00     0.013 C 
HETATM    9  C37 UNL     1      11.030  76.655   3.784  1.00  0.00     0.021 C 
HETATM   10  C38 UNL     1      12.087  74.652   4.374  1.00  0.00     0.130 C 
HETATM   11  C39 UNL     1      12.205  73.279   4.864  1.00  0.00     0.053 C 
HETATM   12  C40 UNL     1      10.093  75.374   5.522  1.00  0.00     0.147 C 
HETATM   13  O5  UNL     1       9.509  74.507   4.564  1.00  0.00    -0.314 OA
HETATM   14  C41 UNL     1       9.815  73.202   4.217  1.00  0.00     0.269 C 
HETATM   15  O6  UNL     1       9.077  72.731   3.339  1.00  0.00    -0.264 OA
ENDROOT
BRANCH   7  16
HETATM   16  C16 UNL     1      12.981  77.770   6.000  1.00  0.00    -0.013 C 
HETATM   17  C17 UNL     1      13.323  78.067   7.499  1.00  0.00     0.018 C 
HETATM   18  C18 UNL     1      14.293  77.652   5.361  1.00  0.00     0.012 C 
HETATM   19  C19 UNL     1      14.499  78.375   4.075  1.00  0.00     0.006 C 
HETATM   20  C20 UNL     1      14.336  79.846   4.047  1.00  0.00    -0.010 C 
HETATM   21  C21 UNL     1      15.339  80.352   3.034  1.00  0.00     0.006 C 
HETATM   22  C33 UNL     1      14.369  80.523   5.372  1.00  0.00     0.001 C 
HETATM   23  C22 UNL     1      15.305  81.827   2.982  1.00  0.00     0.011 C 
HETATM   24  C23 UNL     1      15.651  82.443   4.284  1.00  0.00    -0.032 C 
HETATM   25  C24 UNL     1      15.385  83.949   4.042  1.00  0.00     0.016 C 
HETATM   26  C25 UNL     1      17.040  82.345   4.782  1.00  0.00     0.006 C 
HETATM   27  C31 UNL     1      14.787  81.941   5.419  1.00  0.00    -0.032 C 
HETATM   28  C28 UNL     1      17.005  82.492   6.271  1.00  0.00    -0.013 C 
HETATM   29  C29 UNL     1      17.404  83.804   6.832  1.00  0.00     0.010 C 
HETATM   30  C30 UNL     1      15.600  82.168   6.685  1.00  0.00     0.015 C 
HETATM   31  C32 UNL     1      13.622  82.924   5.532  1.00  0.00     0.016 C 
HETATM   32  C34 UNL     1      12.995  80.348   5.951  1.00  0.00     0.038 C 
HETATM   33  C35 UNL     1      12.275  79.084   5.679  1.00  0.00     0.127 C 
BRANCH  26  34
HETATM   34  C26 UNL     1      18.104  83.124   4.121  1.00  0.00     0.105 C 
BRANCH  34  35
HETATM   35  C27 UNL     1      19.437  82.512   3.985  1.00  0.00     0.231 C 
HETATM   36  N1  UNL     1      20.627  83.285   4.094  1.00  0.00    -0.062 NA
HETATM   37  O2  UNL     1      19.550  81.284   3.766  1.00  0.00    -0.277 OA
ENDBRANCH  34  35
ENDBRANCH  26  34
BRANCH  33  38
HETATM   38  O3  UNL     1      11.212  79.108   6.625  1.00  0.00    -0.395 OA
ATOM     39  H3  UNL     1      11.010  80.034   6.690  1.00  0.00     0.210 HD
ENDBRANCH  33  38
ENDBRANCH   7  16
BRANCH  10  40
HETATM   40  O4  UNL     1      13.260  74.952   3.615  1.00  0.00    -0.395 OA
ATOM     41  H4  UNL     1      13.230  74.626   2.724  1.00  0.00     0.210 HD
ENDBRANCH  10  40
BRANCH   1  42
HETATM   42  C7  UNL     1      11.132  71.083   4.231  1.00  0.00    -0.027 C 
HETATM   43  C6  UNL     1      10.101  70.063   4.442  1.00  0.00     0.010 C 
HETATM   44  C5  UNL     1      10.724  68.696   4.095  1.00  0.00     0.001 C 
HETATM   45  C4  UNL     1      10.983  68.683   2.627  1.00  0.00     0.007 C 
HETATM   46  C3  UNL     1      10.871  70.021   1.954  1.00  0.00     0.010 C 
HETATM   47  C42 UNL     1      11.445  71.154   2.740  1.00  0.00     0.017 C 
HETATM   48  C8  UNL     1      12.429  70.524   4.859  1.00  0.00     0.016 C 
BRANCH  46  49
HETATM   49  C2  UNL     1      11.661  69.956   0.646  1.00  0.00     0.171 C 
BRANCH  49  50
HETATM   50  O1  UNL     1      12.728  69.093   0.758  1.00  0.00    -0.396 OA
HETATM   51  C1  UNL     1      12.962  68.452  -0.439  1.00  0.00     0.201 C 
ENDBRANCH  49  50
ENDBRANCH  46  49
ENDBRANCH   1  42
TORSDOF 8
ENDMDL
MODEL 3
REMARK VINA RESULT: -7.657678954      4.554      5.976
REMARK  8 active torsions:
REMARK  status: ('A' for Active; 'I' for Inactive)
REMARK    1  A    between atoms: O1_2  and  C2_3 
REMARK    2  A    between atoms: C2_3  and  C3_4 
REMARK    3  A    between atoms: C7_8  and  C9_10 
REMARK    4  A    between atoms: C15_16  and  C16_17 
REMARK    5  A    between atoms: C25_26  and  C26_27 
REMARK    6  A    between atoms: C26_27  and  C27_28 
REMARK    7  A    between atoms: C35_38  and  O3_39 
REMARK    8  A    between atoms: C38_43  and  O4_44 
ROOT
HETATM    1  C9  UNL     1      10.385  72.259   3.677  1.00  0.00     0.058 C 
HETATM    2  C10 UNL     1       9.325  72.578   4.718  1.00  0.00     0.021 C 
HETATM    3  C11 UNL     1       8.381  73.633   4.335  1.00  0.00     0.008 C 
HETATM    4  C12 UNL     1       8.947  75.029   4.107  1.00  0.00     0.016 C 
HETATM    5  C13 UNL     1       9.591  75.582   5.314  1.00  0.00     0.007 C 
HETATM    6  C14 UNL     1      10.957  76.186   5.161  1.00  0.00     0.007 C 
HETATM    7  C15 UNL     1      11.188  76.704   3.737  1.00  0.00     0.009 C 
HETATM    8  C36 UNL     1      11.128  75.519   2.883  1.00  0.00     0.013 C 
HETATM    9  C37 UNL     1      11.382  75.820   1.376  1.00  0.00     0.021 C 
HETATM   10  C38 UNL     1      11.836  74.267   3.068  1.00  0.00     0.130 C 
HETATM   11  C39 UNL     1      11.574  73.179   4.009  1.00  0.00     0.053 C 
HETATM   12  C40 UNL     1       9.616  75.167   2.788  1.00  0.00     0.147 C 
HETATM   13  O5  UNL     1       9.474  73.965   2.050  1.00  0.00    -0.314 OA
HETATM   14  C41 UNL     1       9.781  72.657   2.383  1.00  0.00     0.269 C 
HETATM   15  O6  UNL     1       9.504  71.836   1.495  1.00  0.00    -0.264 OA
ENDROOT
BRANCH   7  16
HETATM   16  C16 UNL     1      12.150  77.829   3.685  1.00  0.00    -0.013 C 
HETATM   17  C17 UNL     1      11.572  78.834   4.738  1.00  0.00     0.018 C 
HETATM   18  C18 UNL     1      13.545  77.660   4.096  1.00  0.00     0.012 C 
HETATM   19  C19 UNL     1      14.588  77.738   3.035  1.00  0.00     0.006 C 
HETATM   20  C20 UNL     1      14.708  78.979   2.239  1.00  0.00    -0.010 C 
HETATM   21  C21 UNL     1      16.181  79.130   1.931  1.00  0.00     0.006 C 
HETATM   22  C33 UNL     1      14.050  80.182   2.818  1.00  0.00     0.001 C 
HETATM   23  C22 UNL     1      16.417  80.387   1.192  1.00  0.00     0.011 C 
HETATM   24  C23 UNL     1      16.010  81.580   1.971  1.00  0.00    -0.032 C 
HETATM   25  C24 UNL     1      16.182  82.737   0.956  1.00  0.00     0.016 C 
HETATM   26  C25 UNL     1      16.791  81.962   3.167  1.00  0.00     0.006 C 
HETATM   27  C31 UNL     1      14.574  81.512   2.440  1.00  0.00    -0.032 C 
HETATM   28  C28 UNL     1      15.898  82.766   4.060  1.00  0.00    -0.013 C 
HETATM   29  C29 UNL     1      16.084  84.236   4.058  1.00  0.00     0.010 C 
HETATM   30  C30 UNL     1      14.495  82.430   3.651  1.00  0.00     0.015 C 
HETATM   31  C32 UNL     1      13.744  82.221   1.368  1.00  0.00     0.016 C 
HETATM   32  C34 UNL     1      12.596  80.057   2.467  1.00  0.00     0.038 C 
HETATM   33  C35 UNL     1      11.993  78.706   2.447  1.00  0.00     0.127 C 
BRANCH  26  34
HETATM   34  C26 UNL     1      18.145  82.523   3.000  1.00  0.00     0.105 C 
BRANCH  34  35
HETATM   35  C27 UNL     1      19.274  81.827   3.641  1.00  0.00     0.231 C 
HETATM   36  N1  UNL     1      19.278  80.414   3.814  1.00  0.00    -0.062 NA
HETATM   37  O2  UNL     1      20.265  82.474   4.051  1.00  0.00    -0.277 OA
ENDBRANCH  34  35
ENDBRANCH  26  34
BRANCH  33  38
HETATM   38  O3  UNL     1      10.595  78.977   2.429  1.00  0.00    -0.395 OA
ATOM     39  H3  UNL     1      10.351  78.875   3.342  1.00  0.00     0.210 HD
ENDBRANCH  33  38
ENDBRANCH   7  16
BRANCH  10  40
HETATM   40  O4  UNL     1      13.250  74.381   2.907  1.00  0.00    -0.395 OA
ATOM     41  H4  UNL     1      13.585  73.914   2.151  1.00  0.00     0.210 HD
ENDBRANCH  10  40
BRANCH   1  42
HETATM   42  C7  UNL     1      10.722  70.813   3.777  1.00  0.00    -0.027 C 
HETATM   43  C6  UNL     1       9.632  69.863   4.016  1.00  0.00     0.010 C 
HETATM   44  C5  UNL     1      10.268  68.537   4.478  1.00  0.00     0.001 C 
HETATM   45  C4  UNL     1      11.020  67.974   3.320  1.00  0.00     0.007 C 
HETATM   46  C3  UNL     1      11.216  68.925   2.173  1.00  0.00     0.010 C 
HETATM   47  C42 UNL     1      11.537  70.325   2.583  1.00  0.00     0.017 C 
HETATM   48  C8  UNL     1      11.690  70.673   4.973  1.00  0.00     0.016 C 
BRANCH  46  49
HETATM   49  C2  UNL     1      12.407  68.430   1.352  1.00  0.00     0.171 C 
BRANCH  49  50
HETATM   50  O1  UNL     1      12.736  69.334   0.366  1.00  0.00    -0.396 OA
HETATM   51  C1  UNL     1      12.664  68.745  -0.877  1.00  0.00     0.201 C 
ENDBRANCH  49  50
ENDBRANCH  46  49
ENDBRANCH   1  42
TORSDOF 8
ENDMDL
MODEL 4
REMARK VINA RESULT: -7.288299450      5.646     12.892
REMARK  8 active torsions:
REMARK  status: ('A' for Active; 'I' for Inactive)
REMARK    1  A    between atoms: O1_2  and  C2_3 
REMARK    2  A    between atoms: C2_3  and  C3_4 
REMARK    3  A    between atoms: C7_8  and  C9_10 
REMARK    4  A    between atoms: C15_16  and  C16_17 
REMARK    5  A    between atoms: C25_26  and  C26_27 
REMARK    6  A    between atoms: C26_27  and  C27_28 
REMARK    7  A    between atoms: C35_38  and  O3_39 
REMARK    8  A    between atoms: C38_43  and  O4_44 
ROOT
HETATM    1  C9  UNL     1      14.011  77.832   2.459  1.00  0.00     0.058 C 
HETATM    2  C10 UNL     1      13.920  76.681   1.471  1.00  0.00     0.021 C 
HETATM    3  C11 UNL     1      12.575  76.124   1.294  1.00  0.00     0.008 C 
HETATM    4  C12 UNL     1      11.920  75.475   2.507  1.00  0.00     0.016 C 
HETATM    5  C13 UNL     1      12.692  74.325   3.017  1.00  0.00     0.007 C 
HETATM    6  C14 UNL     1      12.962  74.266   4.492  1.00  0.00     0.007 C 
HETATM    7  C15 UNL     1      11.894  75.022   5.292  1.00  0.00     0.009 C 
HETATM    8  C36 UNL     1      12.015  76.416   4.873  1.00  0.00     0.013 C 
HETATM    9  C37 UNL     1      11.034  77.378   5.606  1.00  0.00     0.021 C 
HETATM   10  C38 UNL     1      13.227  77.210   4.806  1.00  0.00     0.130 C 
HETATM   11  C39 UNL     1      14.308  77.180   3.821  1.00  0.00     0.053 C 
HETATM   12  C40 UNL     1      11.368  76.470   3.461  1.00  0.00     0.147 C 
HETATM   13  O5  UNL     1      11.529  77.778   2.935  1.00  0.00    -0.314 OA
HETATM   14  C41 UNL     1      12.655  78.434   2.469  1.00  0.00     0.269 C 
HETATM   15  O6  UNL     1      12.431  79.582   2.055  1.00  0.00    -0.264 OA
ENDROOT
BRANCH   7  16
HETATM   16  C16 UNL     1      11.715  74.483   6.660  1.00  0.00    -0.013 C 
HETATM   17  C17 UNL     1      11.145  73.047   6.399  1.00  0.00     0.018 C 
HETATM   18  C18 UNL     1      12.858  74.248   7.545  1.00  0.00     0.012 C 
HETATM   19  C19 UNL     1      12.989  75.122   8.744  1.00  0.00     0.006 C 
HETATM   20  C20 UNL     1      11.896  75.138   9.741  1.00  0.00    -0.010 C 
HETATM   21  C21 UNL     1      12.566  75.343  11.082  1.00  0.00     0.006 C 
HETATM   22  C33 UNL     1      10.944  73.997   9.672  1.00  0.00     0.001 C 
HETATM   23  C22 UNL     1      11.560  75.303  12.162  1.00  0.00     0.011 C 
HETATM   24  C23 UNL     1      10.853  74.003  12.222  1.00  0.00    -0.032 C 
HETATM   25  C24 UNL     1       9.755  74.249  13.286  1.00  0.00     0.016 C 
HETATM   26  C25 UNL     1      11.591  72.800  12.664  1.00  0.00     0.006 C 
HETATM   27  C31 UNL     1      10.219  73.618  10.904  1.00  0.00    -0.032 C 
HETATM   28  C28 UNL     1      10.894  71.601  12.100  1.00  0.00    -0.013 C 
HETATM   29  C29 UNL     1      10.031  70.824  13.019  1.00  0.00     0.010 C 
HETATM   30  C30 UNL     1      10.082  72.103  10.943  1.00  0.00     0.015 C 
HETATM   31  C32 UNL     1       8.781  74.134  10.958  1.00  0.00     0.016 C 
HETATM   32  C34 UNL     1       9.985  74.336   8.567  1.00  0.00     0.038 C 
HETATM   33  C35 UNL     1      10.504  75.062   7.386  1.00  0.00     0.127 C 
BRANCH  26  34
HETATM   34  C26 UNL     1      11.977  72.666  14.081  1.00  0.00     0.105 C 
BRANCH  34  35
HETATM   35  C27 UNL     1      13.252  72.000  14.399  1.00  0.00     0.231 C 
HETATM   36  N1  UNL     1      13.291  70.743  15.066  1.00  0.00    -0.062 NA
HETATM   37  O2  UNL     1      14.340  72.535  14.084  1.00  0.00    -0.277 OA
ENDBRANCH  34  35
ENDBRANCH  26  34
BRANCH  33  38
HETATM   38  O3  UNL     1       9.461  74.909   6.430  1.00  0.00    -0.395 OA
ATOM     39  H3  UNL     1       9.142  75.797   6.324  1.00  0.00     0.210 HD
ENDBRANCH  33  38
ENDBRANCH   7  16
BRANCH  10  40
HETATM   40  O4  UNL     1      13.802  77.485   6.084  1.00  0.00    -0.395 OA
ATOM     41  H4  UNL     1      14.102  78.381   6.181  1.00  0.00     0.210 HD
ENDBRANCH  10  40
BRANCH   1  42
HETATM   42  C7  UNL     1      15.087  78.755   2.008  1.00  0.00    -0.027 C 
HETATM   43  C6  UNL     1      14.867  80.197   2.155  1.00  0.00     0.010 C 
HETATM   44  C5  UNL     1      15.904  80.915   1.268  1.00  0.00     0.001 C 
HETATM   45  C4  UNL     1      17.249  80.668   1.863  1.00  0.00     0.007 C 
HETATM   46  C3  UNL     1      17.285  79.601   2.920  1.00  0.00     0.010 C 
HETATM   47  C42 UNL     1      16.442  78.407   2.617  1.00  0.00     0.017 C 
HETATM   48  C8  UNL     1      15.278  78.497   0.497  1.00  0.00     0.016 C 
BRANCH  46  49
HETATM   49  C2  UNL     1      18.725  79.099   3.030  1.00  0.00     0.171 C 
BRANCH  49  50
HETATM   50  O1  UNL     1      19.476  79.929   3.832  1.00  0.00    -0.396 OA
HETATM   51  C1  UNL     1      18.775  80.272   4.968  1.00  0.00     0.201 C 
ENDBRANCH  49  50
ENDBRANCH  46  49
ENDBRANCH   1  42
TORSDOF 8
ENDMDL
MODEL 5
REMARK VINA RESULT: -7.229241471      5.190      6.879
REMARK  8 active torsions:
REMARK  status: ('A' for Active; 'I' for Inactive)
REMARK    1  A    between atoms: O1_2  and  C2_3 
REMARK    2  A    between atoms: C2_3  and  C3_4 
REMARK    3  A    between atoms: C7_8  and  C9_10 
REMARK    4  A    between atoms: C15_16  and  C16_17 
REMARK    5  A    between atoms: C25_26  and  C26_27 
REMARK    6  A    between atoms: C26_27  and  C27_28 
REMARK    7  A    between atoms: C35_38  and  O3_39 
REMARK    8  A    between atoms: C38_43  and  O4_44 
ROOT
HETATM    1  C9  UNL     1      10.034  72.316   3.229  1.00  0.00     0.058 C 
HETATM    2  C10 UNL     1       8.650  72.728   3.704  1.00  0.00     0.021 C 
HETATM    3  C11 UNL     1       8.044  73.833   2.954  1.00  0.00     0.008 C 
HETATM    4  C12 UNL     1       8.747  75.183   3.005  1.00  0.00     0.016 C 
HETATM    5  C13 UNL     1       8.836  75.722   4.376  1.00  0.00     0.007 C 
HETATM    6  C14 UNL     1      10.169  76.233   4.840  1.00  0.00     0.007 C 
HETATM    7  C15 UNL     1      11.034  76.700   3.664  1.00  0.00     0.009 C 
HETATM    8  C36 UNL     1      11.272  75.502   2.862  1.00  0.00     0.013 C 
HETATM    9  C37 UNL     1      12.179  75.748   1.620  1.00  0.00     0.021 C 
HETATM   10  C38 UNL     1      11.739  74.211   3.329  1.00  0.00     0.130 C 
HETATM   11  C39 UNL     1      11.019  73.165   4.054  1.00  0.00     0.053 C 
HETATM   12  C40 UNL     1       9.933  75.246   2.113  1.00  0.00     0.147 C 
HETATM   13  O5  UNL     1      10.045  74.038   1.379  1.00  0.00    -0.314 OA
HETATM   14  C41 UNL     1      10.084  72.721   1.804  1.00  0.00     0.269 C 
HETATM   15  O6  UNL     1      10.167  71.899   0.879  1.00  0.00    -0.264 OA
ENDROOT
BRANCH   7  16
HETATM   16  C16 UNL     1      11.997  77.758   4.046  1.00  0.00    -0.013 C 
HETATM   17  C17 UNL     1      11.379  78.335   5.365  1.00  0.00     0.018 C 
HETATM   18  C18 UNL     1      13.376  77.438   4.419  1.00  0.00     0.012 C 
HETATM   19  C19 UNL     1      14.458  77.871   3.491  1.00  0.00     0.006 C 
HETATM   20  C20 UNL     1      14.606  79.312   3.188  1.00  0.00    -0.010 C 
HETATM   21  C21 UNL     1      16.090  79.543   3.004  1.00  0.00     0.006 C 
HETATM   22  C33 UNL     1      13.927  80.242   4.131  1.00  0.00     0.001 C 
HETATM   23  C22 UNL     1      16.353  80.977   2.766  1.00  0.00     0.011 C 
HETATM   24  C23 UNL     1      15.917  81.824   3.900  1.00  0.00    -0.032 C 
HETATM   25  C24 UNL     1      16.126  83.262   3.364  1.00  0.00     0.016 C 
HETATM   26  C25 UNL     1      16.652  81.750   5.180  1.00  0.00     0.006 C 
HETATM   27  C31 UNL     1      14.464  81.614   4.264  1.00  0.00    -0.032 C 
HETATM   28  C28 UNL     1      15.727  82.199   6.268  1.00  0.00    -0.013 C 
HETATM   29  C29 UNL     1      15.911  83.573   6.790  1.00  0.00     0.010 C 
HETATM   30  C30 UNL     1      14.340  82.047   5.717  1.00  0.00     0.015 C 
HETATM   31  C32 UNL     1      13.674  82.665   3.483  1.00  0.00     0.016 C 
HETATM   32  C34 UNL     1      12.487  80.267   3.708  1.00  0.00     0.038 C 
HETATM   33  C35 UNL     1      11.885  79.017   3.191  1.00  0.00     0.127 C 
BRANCH  26  34
HETATM   34  C26 UNL     1      18.012  82.316   5.269  1.00  0.00     0.105 C 
BRANCH  34  35
HETATM   35  C27 UNL     1      19.127  81.551   4.687  1.00  0.00     0.231 C 
HETATM   36  N1  UNL     1      19.236  80.143   4.859  1.00  0.00    -0.062 NA
HETATM   37  O2  UNL     1      20.014  82.134   4.021  1.00  0.00    -0.277 OA
ENDBRANCH  34  35
ENDBRANCH  26  34
BRANCH  33  38
HETATM   38  O3  UNL     1      10.489  79.295   3.222  1.00  0.00    -0.395 OA
ATOM     39  H3  UNL     1      10.416  80.064   2.670  1.00  0.00     0.210 HD
ENDBRANCH  33  38
ENDBRANCH   7  16
BRANCH  10  40
HETATM   40  O4  UNL     1      13.087  74.229   3.804  1.00  0.00    -0.395 OA
ATOM     41  H4  UNL     1      13.313  73.474   4.334  1.00  0.00     0.210 HD
ENDBRANCH  10  40
BRANCH   1  42
HETATM   42  C7  UNL     1      10.194  70.854   3.457  1.00  0.00    -0.027 C 
HETATM   43  C6  UNL     1      11.414  70.207   2.965  1.00  0.00     0.010 C 
HETATM   44  C5  UNL     1      11.157  68.687   2.952  1.00  0.00     0.001 C 
HETATM   45  C4  UNL     1      11.031  68.243   4.370  1.00  0.00     0.007 C 
HETATM   46  C3  UNL     1      10.883  69.355   5.369  1.00  0.00     0.010 C 
HETATM   47  C42 UNL     1       9.997  70.470   4.920  1.00  0.00     0.017 C 
HETATM   48  C8  UNL     1       9.015  70.169   2.728  1.00  0.00     0.016 C 
BRANCH  46  49
HETATM   49  C2  UNL     1      10.241  68.772   6.629  1.00  0.00     0.171 C 
BRANCH  49  50
HETATM   50  O1  UNL     1      10.897  67.630   7.031  1.00  0.00    -0.396 OA
HETATM   51  C1  UNL     1      10.051  66.810   7.746  1.00  0.00     0.201 C 
ENDBRANCH  49  50
ENDBRANCH  46  49
ENDBRANCH   1  42
TORSDOF 8
ENDMDL
