MODEL 1
REMARK VINA RESULT: -5.475960722      0.000      0.000
REMARK  5 active torsions:
REMARK  status: ('A' for Active; 'I' for Inactive)
REMARK    1  A    between atoms: N1_2  and  C2_5 
REMARK    2  A    between atoms: C2_5  and  C3_6 
REMARK    3  A    between atoms: C3_6  and  N2_7 
REMARK    4  A    between atoms: N2_7  and  C4_9 
REMARK    5  A    between atoms: C4_9  and  C5_10 
ROOT
HETATM    1  N2  UNL     1      83.565  45.450  -8.357  1.00  0.00    -0.394 N 
ATOM      2  H2  UNL     1      83.792  46.421  -8.143  1.00  0.00     0.159 HD
ENDROOT
BRANCH   1   3
HETATM    3  C3  UNL     1      82.222  44.974  -8.393  1.00  0.00     0.146 C 
BRANCH   3   4
HETATM    4  C2  UNL     1      82.246  43.648  -9.217  1.00  0.00     0.251 C 
BRANCH   4   5
HETATM    5  N1  UNL     1      80.818  43.572  -9.592  1.00  0.00    -0.077 N 
HETATM    6  C1  UNL     1      80.619  43.033 -10.906  1.00  0.00     0.267 C 
ATOM      7  H12 UNL     1      80.366  44.480  -9.496  1.00  0.00     0.276 HD
ATOM      8  H11 UNL     1      80.285  43.048  -8.897  1.00  0.00     0.276 HD
ENDBRANCH   4   5
ENDBRANCH   3   4
ENDBRANCH   1   3
BRANCH   1   9
HETATM    9  C4  UNL     1      84.553  44.495  -8.638  1.00  0.00     0.132 C 
BRANCH   9  10
HETATM   10  C5  UNL     1      85.810  44.743  -7.895  1.00  0.00     0.122 A 
HETATM   11  N3  UNL     1      85.962  44.811  -6.555  1.00  0.00    -0.350 N 
HETATM   12  C6  UNL     1      87.245  45.077  -6.261  1.00  0.00     0.107 A 
ATOM     13  H3  UNL     1      85.216  44.680  -5.871  1.00  0.00     0.166 HD
HETATM   14  C7  UNL     1      87.876  45.171  -7.476  1.00  0.00     0.109 A 
HETATM   15  N4  UNL     1      86.997  44.966  -8.447  1.00  0.00    -0.345 N 
HETATM   16  C8  UNL     1      87.363  45.031  -9.885  1.00  0.00     0.157 C 
ENDBRANCH   9  10
ENDBRANCH   1   9
TORSDOF 5
ENDMDL
MODEL 2
REMARK VINA RESULT: -5.459780908      1.760      5.208
REMARK  5 active torsions:
REMARK  status: ('A' for Active; 'I' for Inactive)
REMARK    1  A    between atoms: N1_2  and  C2_5 
REMARK    2  A    between atoms: C2_5  and  C3_6 
REMARK    3  A    between atoms: C3_6  and  N2_7 
REMARK    4  A    between atoms: N2_7  and  C4_9 
REMARK    5  A    between atoms: C4_9  and  C5_10 
ROOT
HETATM    1  N2  UNL     1      85.920  44.802  -6.644  1.00  0.00    -0.394 N 
ATOM      2  H2  UNL     1      85.174  44.817  -5.949  1.00  0.00     0.159 HD
ENDROOT
BRANCH   1   3
HETATM    3  C3  UNL     1      87.260  45.169  -6.328  1.00  0.00     0.146 C 
BRANCH   3   4
HETATM    4  C2  UNL     1      88.184  44.242  -7.180  1.00  0.00     0.251 C 
BRANCH   4   5
HETATM    5  N1  UNL     1      88.559  43.258  -6.141  1.00  0.00    -0.077 N 
HETATM    6  C1  UNL     1      88.515  41.907  -6.619  1.00  0.00     0.267 C 
ATOM      7  H12 UNL     1      87.985  43.371  -5.306  1.00  0.00     0.276 HD
ATOM      8  H11 UNL     1      89.473  43.477  -5.744  1.00  0.00     0.276 HD
ENDBRANCH   4   5
ENDBRANCH   3   4
ENDBRANCH   1   3
BRANCH   1   9
HETATM    9  C4  UNL     1      85.696  44.418  -7.974  1.00  0.00     0.132 C 
BRANCH   9  10
HETATM   10  C5  UNL     1      84.343  44.785  -8.452  1.00  0.00     0.122 A 
HETATM   11  N3  UNL     1      83.167  44.524  -7.841  1.00  0.00    -0.350 N 
HETATM   12  C6  UNL     1      82.156  44.990  -8.593  1.00  0.00     0.107 A 
ATOM     13  H3  UNL     1      83.063  44.046  -6.946  1.00  0.00     0.166 HD
HETATM   14  C7  UNL     1      82.759  45.548  -9.692  1.00  0.00     0.109 A 
HETATM   15  N4  UNL     1      84.075  45.416  -9.589  1.00  0.00    -0.345 N 
HETATM   16  C8  UNL     1      85.011  45.894 -10.638  1.00  0.00     0.157 C 
ENDBRANCH   9  10
ENDBRANCH   1   9
TORSDOF 5
ENDMDL
MODEL 3
REMARK VINA RESULT: -5.316913880      1.453      1.480
REMARK  5 active torsions:
REMARK  status: ('A' for Active; 'I' for Inactive)
REMARK    1  A    between atoms: N1_2  and  C2_5 
REMARK    2  A    between atoms: C2_5  and  C3_6 
REMARK    3  A    between atoms: C3_6  and  N2_7 
REMARK    4  A    between atoms: N2_7  and  C4_9 
REMARK    5  A    between atoms: C4_9  and  C5_10 
ROOT
HETATM    1  N2  UNL     1      83.708  45.360  -8.388  1.00  0.00    -0.394 N 
ATOM      2  H2  UNL     1      83.987  46.137  -7.789  1.00  0.00     0.159 HD
ENDROOT
BRANCH   1   3
HETATM    3  C3  UNL     1      82.552  45.418  -9.220  1.00  0.00     0.146 C 
BRANCH   3   4
HETATM    4  C2  UNL     1      82.131  43.939  -9.493  1.00  0.00     0.251 C 
BRANCH   4   5
HETATM    5  N1  UNL     1      81.727  44.064 -10.910  1.00  0.00    -0.077 N 
HETATM    6  C1  UNL     1      82.559  44.972 -11.644  1.00  0.00     0.267 C 
ATOM      7  H12 UNL     1      80.744  44.322 -10.989  1.00  0.00     0.276 HD
ATOM      8  H11 UNL     1      81.694  43.150 -11.363  1.00  0.00     0.276 HD
ENDBRANCH   4   5
ENDBRANCH   3   4
ENDBRANCH   1   3
BRANCH   1   9
HETATM    9  C4  UNL     1      84.436  44.163  -8.448  1.00  0.00     0.132 C 
BRANCH   9  10
HETATM   10  C5  UNL     1      85.670  44.206  -7.629  1.00  0.00     0.122 A 
HETATM   11  N3  UNL     1      85.932  45.041  -6.600  1.00  0.00    -0.350 N 
HETATM   12  C6  UNL     1      87.164  44.794  -6.124  1.00  0.00     0.107 A 
ATOM     13  H3  UNL     1      85.293  45.749  -6.239  1.00  0.00     0.166 HD
HETATM   14  C7  UNL     1      87.649  43.774  -6.904  1.00  0.00     0.109 A 
HETATM   15  N4  UNL     1      86.735  43.434  -7.803  1.00  0.00    -0.345 N 
HETATM   16  C8  UNL     1      86.968  42.375  -8.818  1.00  0.00     0.157 C 
ENDBRANCH   9  10
ENDBRANCH   1   9
TORSDOF 5
ENDMDL
MODEL 4
REMARK VINA RESULT: -5.172994750      1.207      2.054
REMARK  5 active torsions:
REMARK  status: ('A' for Active; 'I' for Inactive)
REMARK    1  A    between atoms: N1_2  and  C2_5 
REMARK    2  A    between atoms: C2_5  and  C3_6 
REMARK    3  A    between atoms: C3_6  and  N2_7 
REMARK    4  A    between atoms: N2_7  and  C4_9 
REMARK    5  A    between atoms: C4_9  and  C5_10 
ROOT
HETATM    1  N2  UNL     1      83.610  45.441  -8.314  1.00  0.00    -0.394 N 
ATOM      2  H2  UNL     1      83.556  46.172  -7.605  1.00  0.00     0.159 HD
ENDROOT
BRANCH   1   3
HETATM    3  C3  UNL     1      82.776  45.440  -9.470  1.00  0.00     0.146 C 
BRANCH   3   4
HETATM    4  C2  UNL     1      82.149  44.013  -9.561  1.00  0.00     0.251 C 
BRANCH   4   5
HETATM    5  N1  UNL     1      81.764  44.011 -10.989  1.00  0.00    -0.077 N 
HETATM    6  C1  UNL     1      82.480  44.989 -11.755  1.00  0.00     0.267 C 
ATOM      7  H12 UNL     1      80.757  44.126 -11.096  1.00  0.00     0.276 HD
ATOM      8  H11 UNL     1      81.868  43.080 -11.394  1.00  0.00     0.276 HD
ENDBRANCH   4   5
ENDBRANCH   3   4
ENDBRANCH   1   3
BRANCH   1   9
HETATM    9  C4  UNL     1      84.509  44.368  -8.217  1.00  0.00     0.132 C 
BRANCH   9  10
HETATM   10  C5  UNL     1      85.910  44.776  -8.474  1.00  0.00     0.122 A 
HETATM   11  N3  UNL     1      86.466  45.063  -9.671  1.00  0.00    -0.350 N 
HETATM   12  C6  UNL     1      87.764  45.366  -9.502  1.00  0.00     0.107 A 
ATOM     13  H3  UNL     1      85.976  45.052 -10.565  1.00  0.00     0.166 HD
HETATM   14  C7  UNL     1      87.983  45.253  -8.152  1.00  0.00     0.109 A 
HETATM   15  N4  UNL     1      86.856  44.898  -7.550  1.00  0.00    -0.345 N 
HETATM   16  C8  UNL     1      86.771  44.663  -6.086  1.00  0.00     0.157 C 
ENDBRANCH   9  10
ENDBRANCH   1   9
TORSDOF 5
ENDMDL
MODEL 5
REMARK VINA RESULT: -5.163110467      3.101      6.067
REMARK  5 active torsions:
REMARK  status: ('A' for Active; 'I' for Inactive)
REMARK    1  A    between atoms: N1_2  and  C2_5 
REMARK    2  A    between atoms: C2_5  and  C3_6 
REMARK    3  A    between atoms: C3_6  and  N2_7 
REMARK    4  A    between atoms: N2_7  and  C4_9 
REMARK    5  A    between atoms: C4_9  and  C5_10 
ROOT
HETATM    1  N2  UNL     1      81.735  43.981 -10.568  1.00  0.00    -0.394 N 
ATOM      2  H2  UNL     1      80.842  43.552 -10.808  1.00  0.00     0.159 HD
ENDROOT
BRANCH   1   3
HETATM    3  C3  UNL     1      82.358  43.782  -9.301  1.00  0.00     0.146 C 
BRANCH   3   4
HETATM    4  C2  UNL     1      82.125  45.093  -8.485  1.00  0.00     0.251 C 
BRANCH   4   5
HETATM    5  N1  UNL     1      83.531  45.462  -8.218  1.00  0.00    -0.077 N 
HETATM    6  C1  UNL     1      84.419  44.338  -8.283  1.00  0.00     0.267 C 
ATOM      7  H12 UNL     1      83.619  45.948  -7.326  1.00  0.00     0.276 HD
ATOM      8  H11 UNL     1      83.839  46.208  -8.843  1.00  0.00     0.276 HD
ENDBRANCH   4   5
ENDBRANCH   3   4
ENDBRANCH   1   3
BRANCH   1   9
HETATM    9  C4  UNL     1      82.434  44.805 -11.462  1.00  0.00     0.132 C 
BRANCH   9  10
HETATM   10  C5  UNL     1      82.140  44.486 -12.878  1.00  0.00     0.122 A 
HETATM   11  N3  UNL     1      80.921  44.333 -13.440  1.00  0.00    -0.350 N 
HETATM   12  C6  UNL     1      81.061  44.022 -14.739  1.00  0.00     0.107 A 
ATOM     13  H3  UNL     1      80.031  44.438 -12.952  1.00  0.00     0.166 HD
HETATM   14  C7  UNL     1      82.417  43.990 -14.953  1.00  0.00     0.109 A 
HETATM   15  N4  UNL     1      83.049  44.272 -13.822  1.00  0.00    -0.345 N 
HETATM   16  C8  UNL     1      84.530  44.288 -13.717  1.00  0.00     0.157 C 
ENDBRANCH   9  10
ENDBRANCH   1   9
TORSDOF 5
ENDMDL
