MODEL 1
REMARK VINA RESULT: -5.255306069      0.000      0.000
REMARK  6 active torsions:
REMARK  status: ('A' for Active; 'I' for Inactive)
REMARK    1  A    between atoms: C2_2  and  C3_3 
REMARK    2  A    between atoms: C3_3  and  N1_4 
REMARK    3  A    between atoms: N1_4  and  C4_7 
REMARK    4  A    between atoms: C4_7  and  C5_8 
REMARK    5  A    between atoms: C5_8  and  N2_9 
REMARK    6  A    between atoms: N2_9  and  C6_12 
ROOT
HETATM    1  N2  UNL     1      84.086  45.448  -8.416  1.00  0.00    -0.068 N 
ATOM      2  H21 UNL     1      84.751  46.066  -8.881  1.00  0.00     0.277 HD
ATOM      3  H22 UNL     1      84.092  45.880  -7.492  1.00  0.00     0.277 HD
ENDROOT
BRANCH   1   4
HETATM    4  C5  UNL     1      84.564  44.102  -8.370  1.00  0.00     0.260 C 
BRANCH   4   5
HETATM    5  C4  UNL     1      85.896  43.899  -7.743  1.00  0.00     0.260 C 
BRANCH   5   6
HETATM    6  N1  UNL     1      86.179  44.831  -6.671  1.00  0.00    -0.070 N 
ATOM      7  H12 UNL     1      85.949  44.441  -5.757  1.00  0.00     0.277 HD
ATOM      8  H11 UNL     1      85.529  45.616  -6.668  1.00  0.00     0.277 HD
BRANCH   6   9
HETATM    9  C3  UNL     1      87.554  45.271  -6.736  1.00  0.00     0.259 C 
BRANCH   9  10
HETATM   10  C2  UNL     1      88.203  45.158  -8.034  1.00  0.00    -0.010 C 
HETATM   11  C1  UNL     1      88.555  46.252  -8.714  1.00  0.00     0.008 C 
ENDBRANCH   9  10
ENDBRANCH   6   9
ENDBRANCH   5   6
ENDBRANCH   4   5
ENDBRANCH   1   4
BRANCH   1  12
HETATM   12  C6  UNL     1      82.768  45.516  -9.033  1.00  0.00     0.213 C 
HETATM   13  C7  UNL     1      82.848  44.814 -10.369  1.00  0.00     0.062 C 
HETATM   14  C8  UNL     1      81.723  43.829 -10.354  1.00  0.00     0.234 C 
HETATM   15  N3  UNL     1      81.019  43.917  -9.126  1.00  0.00    -0.073 N 
HETATM   16  C9  UNL     1      81.698  44.851  -8.251  1.00  0.00     0.265 C 
ATOM     17  H32 UNL     1      80.037  44.157  -9.260  1.00  0.00     0.277 HD
ATOM     18  H31 UNL     1      80.888  43.005  -8.689  1.00  0.00     0.277 HD
ENDBRANCH   1  12
TORSDOF 6
ENDMDL
MODEL 2
REMARK VINA RESULT: -5.136426810      1.292      1.603
REMARK  6 active torsions:
REMARK  status: ('A' for Active; 'I' for Inactive)
REMARK    1  A    between atoms: C2_2  and  C3_3 
REMARK    2  A    between atoms: C3_3  and  N1_4 
REMARK    3  A    between atoms: N1_4  and  C4_7 
REMARK    4  A    between atoms: C4_7  and  C5_8 
REMARK    5  A    between atoms: C5_8  and  N2_9 
REMARK    6  A    between atoms: N2_9  and  C6_12 
ROOT
HETATM    1  N2  UNL     1      83.956  45.481  -8.469  1.00  0.00    -0.068 N 
ATOM      2  H21 UNL     1      84.568  46.194  -8.864  1.00  0.00     0.277 HD
ATOM      3  H22 UNL     1      83.912  45.827  -7.510  1.00  0.00     0.277 HD
ENDROOT
BRANCH   1   4
HETATM    4  C5  UNL     1      84.551  44.183  -8.531  1.00  0.00     0.260 C 
BRANCH   4   5
HETATM    5  C4  UNL     1      85.931  44.066  -7.992  1.00  0.00     0.260 C 
BRANCH   5   6
HETATM    6  N1  UNL     1      86.108  44.716  -6.709  1.00  0.00    -0.070 N 
ATOM      7  H12 UNL     1      85.227  44.805  -6.204  1.00  0.00     0.277 HD
ATOM      8  H11 UNL     1      86.323  45.707  -6.811  1.00  0.00     0.277 HD
BRANCH   6   9
HETATM    9  C3  UNL     1      87.108  44.025  -5.929  1.00  0.00     0.259 C 
BRANCH   9  10
HETATM   10  C2  UNL     1      88.139  43.325  -6.681  1.00  0.00    -0.010 C 
HETATM   11  C1  UNL     1      88.520  42.095  -6.326  1.00  0.00     0.008 C 
ENDBRANCH   9  10
ENDBRANCH   6   9
ENDBRANCH   5   6
ENDBRANCH   4   5
ENDBRANCH   1   4
BRANCH   1  12
HETATM   12  C6  UNL     1      82.644  45.487  -9.103  1.00  0.00     0.213 C 
HETATM   13  C7  UNL     1      82.764  44.748 -10.415  1.00  0.00     0.062 C 
HETATM   14  C8  UNL     1      81.670  43.728 -10.384  1.00  0.00     0.234 C 
HETATM   15  N3  UNL     1      80.949  43.831  -9.167  1.00  0.00    -0.073 N 
HETATM   16  C9  UNL     1      81.585  44.813  -8.314  1.00  0.00     0.265 C 
ATOM     17  H32 UNL     1      79.961  44.034  -9.320  1.00  0.00     0.277 HD
ATOM     18  H31 UNL     1      80.841  42.928  -8.704  1.00  0.00     0.277 HD
ENDBRANCH   1  12
TORSDOF 6
ENDMDL
MODEL 3
REMARK VINA RESULT: -5.126579854      3.535      5.108
REMARK  6 active torsions:
REMARK  status: ('A' for Active; 'I' for Inactive)
REMARK    1  A    between atoms: C2_2  and  C3_3 
REMARK    2  A    between atoms: C3_3  and  N1_4 
REMARK    3  A    between atoms: N1_4  and  C4_7 
REMARK    4  A    between atoms: C4_7  and  C5_8 
REMARK    5  A    between atoms: C5_8  and  N2_9 
REMARK    6  A    between atoms: N2_9  and  C6_12 
ROOT
HETATM    1  N2  UNL     1      82.062  45.137 -12.033  1.00  0.00    -0.068 N 
ATOM      2  H21 UNL     1      81.405  45.894 -11.847  1.00  0.00     0.277 HD
ATOM      3  H22 UNL     1      82.820  45.685 -12.441  1.00  0.00     0.277 HD
ENDROOT
BRANCH   1   4
HETATM    4  C5  UNL     1      81.530  44.197 -12.969  1.00  0.00     0.260 C 
BRANCH   4   5
HETATM    5  C4  UNL     1      82.275  44.048 -14.246  1.00  0.00     0.260 C 
BRANCH   5   6
HETATM    6  N1  UNL     1      83.501  43.287 -14.115  1.00  0.00    -0.070 N 
ATOM      7  H12 UNL     1      83.492  42.449 -14.697  1.00  0.00     0.277 HD
ATOM      8  H11 UNL     1      83.573  42.836 -13.203  1.00  0.00     0.277 HD
BRANCH   6   9
HETATM    9  C3  UNL     1      84.645  44.124 -14.394  1.00  0.00     0.259 C 
BRANCH   9  10
HETATM   10  C2  UNL     1      85.510  44.427 -13.264  1.00  0.00    -0.010 C 
HETATM   11  C1  UNL     1      85.524  45.650 -12.729  1.00  0.00     0.008 C 
ENDBRANCH   9  10
ENDBRANCH   6   9
ENDBRANCH   5   6
ENDBRANCH   4   5
ENDBRANCH   1   4
BRANCH   1  12
HETATM   12  C6  UNL     1      82.480  44.474 -10.804  1.00  0.00     0.213 C 
HETATM   13  C7  UNL     1      82.886  45.545  -9.819  1.00  0.00     0.062 C 
HETATM   14  C8  UNL     1      82.112  45.237  -8.575  1.00  0.00     0.234 C 
HETATM   15  N3  UNL     1      81.308  44.087  -8.780  1.00  0.00    -0.073 N 
HETATM   16  C9  UNL     1      81.418  43.664 -10.160  1.00  0.00     0.265 C 
ATOM     17  H32 UNL     1      81.534  43.337  -8.126  1.00  0.00     0.277 HD
ATOM     18  H31 UNL     1      80.339  44.238  -8.498  1.00  0.00     0.277 HD
ENDBRANCH   1  12
TORSDOF 6
ENDMDL
MODEL 4
REMARK VINA RESULT: -5.112330506      3.087      5.706
REMARK  6 active torsions:
REMARK  status: ('A' for Active; 'I' for Inactive)
REMARK    1  A    between atoms: C2_2  and  C3_3 
REMARK    2  A    between atoms: C3_3  and  N1_4 
REMARK    3  A    between atoms: N1_4  and  C4_7 
REMARK    4  A    between atoms: C4_7  and  C5_8 
REMARK    5  A    between atoms: C5_8  and  N2_9 
REMARK    6  A    between atoms: N2_9  and  C6_12 
ROOT
HETATM    1  N2  UNL     1      81.701  43.802 -10.497  1.00  0.00    -0.068 N 
ATOM      2  H21 UNL     1      81.750  42.850 -10.860  1.00  0.00     0.277 HD
ATOM      3  H22 UNL     1      80.687  43.919 -10.504  1.00  0.00     0.277 HD
ENDROOT
BRANCH   1   4
HETATM    4  C5  UNL     1      82.344  44.732 -11.370  1.00  0.00     0.260 C 
BRANCH   4   5
HETATM    5  C4  UNL     1      81.900  44.717 -12.788  1.00  0.00     0.260 C 
BRANCH   5   6
HETATM    6  N1  UNL     1      82.388  43.574 -13.534  1.00  0.00    -0.070 N 
ATOM      7  H12 UNL     1      81.765  42.771 -13.450  1.00  0.00     0.277 HD
ATOM      8  H11 UNL     1      83.218  43.166 -13.105  1.00  0.00     0.277 HD
BRANCH   6   9
HETATM    9  C3  UNL     1      82.617  43.935 -14.915  1.00  0.00     0.259 C 
BRANCH   9  10
HETATM   10  C2  UNL     1      84.007  44.005 -15.338  1.00  0.00    -0.010 C 
HETATM   11  C1  UNL     1      84.845  42.996 -15.085  1.00  0.00     0.008 C 
ENDBRANCH   9  10
ENDBRANCH   6   9
ENDBRANCH   5   6
ENDBRANCH   4   5
ENDBRANCH   1   4
BRANCH   1  12
HETATM   12  C6  UNL     1      82.241  43.891  -9.146  1.00  0.00     0.213 C 
HETATM   13  C7  UNL     1      83.713  43.557  -9.217  1.00  0.00     0.062 C 
HETATM   14  C8  UNL     1      84.399  44.691  -8.523  1.00  0.00     0.234 C 
HETATM   15  N3  UNL     1      83.438  45.632  -8.070  1.00  0.00    -0.073 N 
HETATM   16  C9  UNL     1      82.124  45.236  -8.533  1.00  0.00     0.265 C 
ATOM     17  H32 UNL     1      83.469  45.759  -7.059  1.00  0.00     0.277 HD
ATOM     18  H31 UNL     1      83.672  46.586  -8.344  1.00  0.00     0.277 HD
ENDBRANCH   1  12
TORSDOF 6
ENDMDL
MODEL 5
REMARK VINA RESULT: -5.072259153      1.471      5.569
REMARK  6 active torsions:
REMARK  status: ('A' for Active; 'I' for Inactive)
REMARK    1  A    between atoms: C2_2  and  C3_3 
REMARK    2  A    between atoms: C3_3  and  N1_4 
REMARK    3  A    between atoms: N1_4  and  C4_7 
REMARK    4  A    between atoms: C4_7  and  C5_8 
REMARK    5  A    between atoms: C5_8  and  N2_9 
REMARK    6  A    between atoms: N2_9  and  C6_12 
ROOT
HETATM    1  N2  UNL     1      85.036  44.703  -7.607  1.00  0.00    -0.068 N 
ATOM      2  H21 UNL     1      84.635  44.827  -6.678  1.00  0.00     0.277 HD
ATOM      3  H22 UNL     1      85.232  45.680  -7.825  1.00  0.00     0.277 HD
ENDROOT
BRANCH   1   4
HETATM    4  C5  UNL     1      84.090  44.141  -8.518  1.00  0.00     0.260 C 
BRANCH   4   5
HETATM    5  C4  UNL     1      82.705  44.674  -8.439  1.00  0.00     0.260 C 
BRANCH   5   6
HETATM    6  N1  UNL     1      82.304  45.418  -9.616  1.00  0.00    -0.070 N 
ATOM      7  H12 UNL     1      82.314  46.425  -9.451  1.00  0.00     0.277 HD
ATOM      8  H11 UNL     1      81.310  45.308  -9.815  1.00  0.00     0.277 HD
BRANCH   6   9
HETATM    9  C3  UNL     1      83.124  45.050 -10.747  1.00  0.00     0.259 C 
BRANCH   9  10
HETATM   10  C2  UNL     1      82.543  45.277 -12.063  1.00  0.00    -0.010 C 
HETATM   11  C1  UNL     1      81.726  44.372 -12.608  1.00  0.00     0.008 C 
ENDBRANCH   9  10
ENDBRANCH   6   9
ENDBRANCH   5   6
ENDBRANCH   4   5
ENDBRANCH   1   4
BRANCH   1  12
HETATM   12  C6  UNL     1      86.257  43.907  -7.563  1.00  0.00     0.213 C 
HETATM   13  C7  UNL     1      87.211  44.471  -8.590  1.00  0.00     0.062 C 
HETATM   14  C8  UNL     1      88.488  44.701  -7.844  1.00  0.00     0.234 C 
HETATM   15  N3  UNL     1      88.331  44.315  -6.488  1.00  0.00    -0.073 N 
HETATM   16  C9  UNL     1      86.953  43.937  -6.254  1.00  0.00     0.265 C 
ATOM     17  H32 UNL     1      88.985  43.581  -6.218  1.00  0.00     0.277 HD
ATOM     18  H31 UNL     1      88.648  45.038  -5.842  1.00  0.00     0.277 HD
ENDBRANCH   1  12
TORSDOF 6
ENDMDL
