MODEL 1
REMARK VINA RESULT: -5.746860594      0.000      0.000
REMARK  6 active torsions:
REMARK  status: ('A' for Active; 'I' for Inactive)
REMARK    1  A    between atoms: N1_1  and  C1_5 
REMARK    2  A    between atoms: C1_5  and  C2_6 
REMARK    3  A    between atoms: C2_6  and  N2_7 
REMARK    4  A    between atoms: N2_7  and  C3_10 
REMARK    5  A    between atoms: C5_12  and  N3_13 
REMARK    6  A    between atoms: N3_13  and  C6_15 
ROOT
HETATM    1  C3  UNL     1      84.373  44.859  -8.621  1.00  0.00     0.384 C 
HETATM    2  C4  UNL     1      83.647  43.556  -8.971  1.00  0.00     0.089 C 
HETATM    3  C5  UNL     1      82.587  44.158  -9.885  1.00  0.00     0.113 C 
HETATM    4  C7  UNL     1      82.216  45.397  -9.098  1.00  0.00     0.259 C 
HETATM    5  N4  UNL     1      83.231  45.596  -8.092  1.00  0.00    -0.044 N 
ATOM      6  H41 UNL     1      83.422  46.573  -7.871  1.00  0.00     0.279 HD
ATOM      7  H42 UNL     1      82.951  45.326  -7.149  1.00  0.00     0.279 HD
ENDROOT
BRANCH   1   8
HETATM    8  N2  UNL     1      85.296  44.692  -7.529  1.00  0.00    -0.044 N 
ATOM      9  H22 UNL     1      85.108  43.868  -6.957  1.00  0.00     0.279 HD
ATOM     10  H21 UNL     1      85.181  45.382  -6.788  1.00  0.00     0.279 HD
BRANCH   8  11
HETATM   11  C2  UNL     1      86.621  44.695  -8.131  1.00  0.00     0.262 C 
BRANCH  11  12
HETATM   12  C1  UNL     1      87.691  45.136  -7.184  1.00  0.00     0.257 C 
BRANCH  12  13
HETATM   13  N1  UNL     1      87.104  45.563  -5.935  1.00  0.00    -0.078 N 
ATOM     14  H13 UNL     1      87.775  46.057  -5.347  1.00  0.00     0.274 HD
ATOM     15  H12 UNL     1      86.434  46.321  -6.067  1.00  0.00     0.274 HD
ATOM     16  H11 UNL     1      86.687  44.767  -5.452  1.00  0.00     0.274 HD
ENDBRANCH  12  13
ENDBRANCH  11  12
ENDBRANCH   8  11
ENDBRANCH   1   8
BRANCH   3  17
HETATM   17  N3  UNL     1      81.435  43.337 -10.026  1.00  0.00    -0.362 N 
ATOM     18  H3  UNL     1      81.024  42.870  -9.218  1.00  0.00     0.162 HD
BRANCH  17  19
HETATM   19  C6  UNL     1      80.874  43.186 -11.316  1.00  0.00     0.348 C 
HETATM   20  O1  UNL     1      79.902  42.392 -11.530  1.00  0.00    -0.284 OA
ENDBRANCH  17  19
ENDBRANCH   3  17
TORSDOF 6
ENDMDL
MODEL 2
REMARK VINA RESULT: -5.611911493      3.552      6.018
REMARK  6 active torsions:
REMARK  status: ('A' for Active; 'I' for Inactive)
REMARK    1  A    between atoms: N1_1  and  C1_5 
REMARK    2  A    between atoms: C1_5  and  C2_6 
REMARK    3  A    between atoms: C2_6  and  N2_7 
REMARK    4  A    between atoms: N2_7  and  C3_10 
REMARK    5  A    between atoms: C5_12  and  N3_13 
REMARK    6  A    between atoms: N3_13  and  C6_15 
ROOT
HETATM    1  C3  UNL     1      85.547  44.292  -7.671  1.00  0.00     0.384 C 
HETATM    2  C4  UNL     1      86.737  44.519  -8.608  1.00  0.00     0.089 C 
HETATM    3  C5  UNL     1      87.799  43.846  -7.749  1.00  0.00     0.113 C 
HETATM    4  C7  UNL     1      87.417  44.368  -6.379  1.00  0.00     0.259 C 
HETATM    5  N4  UNL     1      86.095  44.936  -6.482  1.00  0.00    -0.044 N 
ATOM      6  H41 UNL     1      85.524  44.835  -5.644  1.00  0.00     0.279 HD
ATOM      7  H42 UNL     1      86.072  45.955  -6.504  1.00  0.00     0.279 HD
ENDROOT
BRANCH   1   8
HETATM    8  N2  UNL     1      84.393  45.059  -8.060  1.00  0.00    -0.044 N 
ATOM      9  H22 UNL     1      84.619  45.883  -8.618  1.00  0.00     0.279 HD
ATOM     10  H21 UNL     1      83.952  45.555  -7.285  1.00  0.00     0.279 HD
BRANCH   8  11
HETATM   11  C2  UNL     1      83.506  44.122  -8.734  1.00  0.00     0.262 C 
BRANCH  11  12
HETATM   12  C1  UNL     1      82.059  44.416  -8.498  1.00  0.00     0.257 C 
BRANCH  12  13
HETATM   13  N1  UNL     1      81.874  45.824  -8.234  1.00  0.00    -0.078 N 
ATOM     14  H13 UNL     1      82.702  46.369  -8.473  1.00  0.00     0.274 HD
ATOM     15  H12 UNL     1      81.219  46.252  -8.887  1.00  0.00     0.274 HD
ATOM     16  H11 UNL     1      81.592  45.965  -7.264  1.00  0.00     0.274 HD
ENDBRANCH  12  13
ENDBRANCH  11  12
ENDBRANCH   8  11
ENDBRANCH   1   8
BRANCH   3  17
HETATM   17  N3  UNL     1      89.121  44.271  -8.053  1.00  0.00    -0.362 N 
ATOM     18  H3  UNL     1      89.929  43.807  -7.639  1.00  0.00     0.162 HD
BRANCH  17  19
HETATM   19  C6  UNL     1      89.286  45.357  -8.946  1.00  0.00     0.348 C 
HETATM   20  O1  UNL     1      89.572  46.524  -8.527  1.00  0.00    -0.284 OA
ENDBRANCH  17  19
ENDBRANCH   3  17
TORSDOF 6
ENDMDL
MODEL 3
REMARK VINA RESULT: -5.577183791      3.268      5.919
REMARK  6 active torsions:
REMARK  status: ('A' for Active; 'I' for Inactive)
REMARK    1  A    between atoms: N1_1  and  C1_5 
REMARK    2  A    between atoms: C1_5  and  C2_6 
REMARK    3  A    between atoms: C2_6  and  N2_7 
REMARK    4  A    between atoms: N2_7  and  C3_10 
REMARK    5  A    between atoms: C5_12  and  N3_13 
REMARK    6  A    between atoms: N3_13  and  C6_15 
ROOT
HETATM    1  C3  UNL     1      83.753  44.791 -10.105  1.00  0.00     0.384 C 
HETATM    2  C4  UNL     1      84.000  45.431  -8.736  1.00  0.00     0.089 C 
HETATM    3  C5  UNL     1      85.317  44.732  -8.424  1.00  0.00     0.113 C 
HETATM    4  C7  UNL     1      85.000  43.327  -8.893  1.00  0.00     0.259 C 
HETATM    5  N4  UNL     1      83.800  43.393  -9.691  1.00  0.00    -0.044 N 
ATOM      6  H41 UNL     1      83.764  42.722 -10.458  1.00  0.00     0.279 HD
ATOM      7  H42 UNL     1      82.959  43.061  -9.220  1.00  0.00     0.279 HD
ENDROOT
BRANCH   1   8
HETATM    8  N2  UNL     1      82.417  45.033 -10.585  1.00  0.00    -0.044 N 
ATOM      9  H22 UNL     1      81.942  45.797 -10.105  1.00  0.00     0.279 HD
ATOM     10  H21 UNL     1      81.754  44.300 -10.334  1.00  0.00     0.279 HD
BRANCH   8  11
HETATM   11  C2  UNL     1      82.546  45.235 -12.021  1.00  0.00     0.262 C 
BRANCH  11  12
HETATM   12  C1  UNL     1      81.657  44.336 -12.819  1.00  0.00     0.257 C 
BRANCH  12  13
HETATM   13  N1  UNL     1      80.906  43.471 -11.940  1.00  0.00    -0.078 N 
ATOM     14  H13 UNL     1      81.394  43.304 -11.060  1.00  0.00     0.274 HD
ATOM     15  H12 UNL     1      80.077  43.933 -11.565  1.00  0.00     0.274 HD
ATOM     16  H11 UNL     1      80.673  42.601 -12.418  1.00  0.00     0.274 HD
ENDBRANCH  12  13
ENDBRANCH  11  12
ENDBRANCH   8  11
ENDBRANCH   1   8
BRANCH   3  17
HETATM   17  N3  UNL     1      85.620  44.697  -7.036  1.00  0.00    -0.362 N 
ATOM     18  H3  UNL     1      84.882  44.772  -6.337  1.00  0.00     0.162 HD
BRANCH  17  19
HETATM   19  C6  UNL     1      86.975  44.558  -6.649  1.00  0.00     0.348 C 
HETATM   20  O1  UNL     1      87.672  45.562  -6.295  1.00  0.00    -0.284 OA
ENDBRANCH  17  19
ENDBRANCH   3  17
TORSDOF 6
ENDMDL
MODEL 4
REMARK VINA RESULT: -5.550165811      3.394      5.830
REMARK  6 active torsions:
REMARK  status: ('A' for Active; 'I' for Inactive)
REMARK    1  A    between atoms: N1_1  and  C1_5 
REMARK    2  A    between atoms: C1_5  and  C2_6 
REMARK    3  A    between atoms: C2_6  and  N2_7 
REMARK    4  A    between atoms: N2_7  and  C3_10 
REMARK    5  A    between atoms: C5_12  and  N3_13 
REMARK    6  A    between atoms: N3_13  and  C6_15 
ROOT
HETATM    1  C3  UNL     1      85.652  44.223  -7.645  1.00  0.00     0.384 C 
HETATM    2  C4  UNL     1      86.519  44.842  -8.745  1.00  0.00     0.089 C 
HETATM    3  C5  UNL     1      87.876  44.504  -8.143  1.00  0.00     0.113 C 
HETATM    4  C7  UNL     1      87.621  44.832  -6.687  1.00  0.00     0.259 C 
HETATM    5  N4  UNL     1      86.196  44.963  -6.512  1.00  0.00    -0.044 N 
ATOM      6  H41 UNL     1      85.850  44.659  -5.602  1.00  0.00     0.279 HD
ATOM      7  H42 UNL     1      85.864  45.925  -6.436  1.00  0.00     0.279 HD
ENDROOT
BRANCH   1   8
HETATM    8  N2  UNL     1      84.269  44.606  -7.761  1.00  0.00    -0.044 N 
ATOM      9  H22 UNL     1      83.946  45.205  -7.002  1.00  0.00     0.279 HD
ATOM     10  H21 UNL     1      83.618  43.839  -7.596  1.00  0.00     0.279 HD
BRANCH   8  11
HETATM   11  C2  UNL     1      84.137  45.210  -9.079  1.00  0.00     0.262 C 
BRANCH  11  12
HETATM   12  C1  UNL     1      82.718  45.497  -9.450  1.00  0.00     0.257 C 
BRANCH  12  13
HETATM   13  N1  UNL     1      81.959  45.855  -8.275  1.00  0.00    -0.078 N 
ATOM     14  H13 UNL     1      82.528  46.354  -7.591  1.00  0.00     0.274 HD
ATOM     15  H12 UNL     1      81.279  46.590  -8.469  1.00  0.00     0.274 HD
ATOM     16  H11 UNL     1      81.521  45.026  -7.874  1.00  0.00     0.274 HD
ENDBRANCH  12  13
ENDBRANCH  11  12
ENDBRANCH   8  11
ENDBRANCH   1   8
BRANCH   3  17
HETATM   17  N3  UNL     1      88.927  45.331  -8.626  1.00  0.00    -0.362 N 
ATOM     18  H3  UNL     1      89.858  44.949  -8.796  1.00  0.00     0.162 HD
BRANCH  17  19
HETATM   19  C6  UNL     1      88.649  46.698  -8.864  1.00  0.00     0.348 C 
HETATM   20  O1  UNL     1      88.835  47.225 -10.007  1.00  0.00    -0.284 OA
ENDBRANCH  17  19
ENDBRANCH   3  17
TORSDOF 6
ENDMDL
MODEL 5
REMARK VINA RESULT: -5.486848838      1.355      1.355
REMARK  6 active torsions:
REMARK  status: ('A' for Active; 'I' for Inactive)
REMARK    1  A    between atoms: N1_1  and  C1_5 
REMARK    2  A    between atoms: C1_5  and  C2_6 
REMARK    3  A    between atoms: C2_6  and  N2_7 
REMARK    4  A    between atoms: N2_7  and  C3_10 
REMARK    5  A    between atoms: C5_12  and  N3_13 
REMARK    6  A    between atoms: N3_13  and  C6_15 
ROOT
HETATM    1  C3  UNL     1      84.258  44.963  -8.419  1.00  0.00     0.384 C 
HETATM    2  C4  UNL     1      84.028  44.241  -9.749  1.00  0.00     0.089 C 
HETATM    3  C5  UNL     1      82.765  44.984 -10.164  1.00  0.00     0.113 C 
HETATM    4  C7  UNL     1      82.025  45.029  -8.842  1.00  0.00     0.259 C 
HETATM    5  N4  UNL     1      82.965  44.682  -7.805  1.00  0.00    -0.044 N 
ATOM      6  H41 UNL     1      82.807  45.154  -6.915  1.00  0.00     0.279 HD
ATOM      7  H42 UNL     1      82.865  43.734  -7.441  1.00  0.00     0.279 HD
ENDROOT
BRANCH   1   8
HETATM    8  N2  UNL     1      85.250  44.307  -7.608  1.00  0.00    -0.044 N 
ATOM      9  H22 UNL     1      85.158  43.291  -7.591  1.00  0.00     0.279 HD
ATOM     10  H21 UNL     1      85.124  44.457  -6.607  1.00  0.00     0.279 HD
BRANCH   8  11
HETATM   11  C2  UNL     1      86.536  44.768  -8.109  1.00  0.00     0.262 C 
BRANCH  11  12
HETATM   12  C1  UNL     1      87.494  45.126  -7.019  1.00  0.00     0.257 C 
BRANCH  12  13
HETATM   13  N1  UNL     1      86.772  45.478  -5.819  1.00  0.00    -0.078 N 
ATOM     14  H13 UNL     1      85.777  45.268  -5.897  1.00  0.00     0.274 HD
ATOM     15  H12 UNL     1      86.996  44.856  -5.042  1.00  0.00     0.274 HD
ATOM     16  H11 UNL     1      86.938  46.457  -5.584  1.00  0.00     0.274 HD
ENDBRANCH  12  13
ENDBRANCH  11  12
ENDBRANCH   8  11
ENDBRANCH   1   8
BRANCH   3  17
HETATM   17  N3  UNL     1      81.978  44.272 -11.109  1.00  0.00    -0.362 N 
ATOM     18  H3  UNL     1      81.363  43.514 -10.814  1.00  0.00     0.162 HD
BRANCH  17  19
HETATM   19  C6  UNL     1      82.069  44.642 -12.472  1.00  0.00     0.348 C 
HETATM   20  O1  UNL     1      82.308  43.783 -13.380  1.00  0.00    -0.284 OA
ENDBRANCH  17  19
ENDBRANCH   3  17
TORSDOF 6
ENDMDL
