MODEL 1
REMARK VINA RESULT: -5.927743514      0.000      0.000
REMARK  5 active torsions:
REMARK  status: ('A' for Active; 'I' for Inactive)
REMARK    1  A    between atoms: N3_4  and  O1_6 
REMARK    2  A    between atoms: O1_6  and  C2_7 
REMARK    3  A    between atoms: C2_7  and  C3_8 
REMARK    4  A    between atoms: C3_8  and  N4_9 
REMARK    5  A    between atoms: N4_9  and  C4_11 
ROOT
HETATM    1  C3  UNL     1      84.377  43.933  -8.606  1.00  0.00     0.143 C 
ENDROOT
BRANCH   1   2
HETATM    2  C2  UNL     1      82.911  44.297  -8.505  1.00  0.00     0.220 C 
BRANCH   2   3
HETATM    3  O1  UNL     1      82.335  44.313  -9.812  1.00  0.00    -0.277 OA
BRANCH   3   4
HETATM    4  N3  UNL     1      81.311  43.476 -10.120  1.00  0.00    -0.241 N 
HETATM    5  C1  UNL     1      80.905  43.195 -11.293  1.00  0.00     0.221 C 
HETATM    6  N1  UNL     1      81.482  43.734 -12.475  1.00  0.00    -0.065 NA
HETATM    7  N2  UNL     1      79.821  42.300 -11.442  1.00  0.00    -0.065 NA
ATOM      8  H3  UNL     1      80.825  43.032  -9.342  1.00  0.00     0.196 HD
ENDBRANCH   3   4
ENDBRANCH   2   3
ENDBRANCH   1   2
BRANCH   1   9
HETATM    9  N4  UNL     1      85.147  44.665  -7.660  1.00  0.00    -0.412 N 
ATOM     10  H4  UNL     1      84.798  45.534  -7.258  1.00  0.00     0.153 HD
BRANCH   9  11
HETATM   11  C4  UNL     1      86.396  44.159  -7.299  1.00  0.00     0.127 C 
HETATM   12  C5  UNL     1      87.627  44.994  -7.591  1.00  0.00     0.258 C 
HETATM   13  N5  UNL     1      88.240  44.247  -6.476  1.00  0.00    -0.071 N 
HETATM   14  C6  UNL     1      86.886  44.294  -5.890  1.00  0.00     0.258 C 
ATOM     15  H52 UNL     1      88.746  43.372  -6.616  1.00  0.00     0.277 HD
ATOM     16  H51 UNL     1      89.065  44.583  -5.979  1.00  0.00     0.277 HD
ENDBRANCH   9  11
ENDBRANCH   1   9
TORSDOF 5
ENDMDL
MODEL 2
REMARK VINA RESULT: -5.667306021      0.539      1.105
REMARK  5 active torsions:
REMARK  status: ('A' for Active; 'I' for Inactive)
REMARK    1  A    between atoms: N3_4  and  O1_6 
REMARK    2  A    between atoms: O1_6  and  C2_7 
REMARK    3  A    between atoms: C2_7  and  C3_8 
REMARK    4  A    between atoms: C3_8  and  N4_9 
REMARK    5  A    between atoms: N4_9  and  C4_11 
ROOT
HETATM    1  C3  UNL     1      84.295  44.007  -8.599  1.00  0.00     0.143 C 
ENDROOT
BRANCH   1   2
HETATM    2  C2  UNL     1      82.831  44.373  -8.480  1.00  0.00     0.220 C 
BRANCH   2   3
HETATM    3  O1  UNL     1      82.082  43.663  -9.468  1.00  0.00    -0.277 OA
BRANCH   3   4
HETATM    4  N3  UNL     1      82.071  44.089 -10.757  1.00  0.00    -0.241 N 
HETATM    5  C1  UNL     1      81.340  43.625 -11.689  1.00  0.00     0.221 C 
HETATM    6  N1  UNL     1      80.409  42.567 -11.506  1.00  0.00    -0.065 NA
HETATM    7  N2  UNL     1      81.452  44.183 -12.984  1.00  0.00    -0.065 NA
ATOM      8  H3  UNL     1      82.706  44.850 -10.999  1.00  0.00     0.196 HD
ENDBRANCH   3   4
ENDBRANCH   2   3
ENDBRANCH   1   2
BRANCH   1   9
HETATM    9  N4  UNL     1      85.077  44.724  -7.652  1.00  0.00    -0.412 N 
ATOM     10  H4  UNL     1      84.755  45.614  -7.271  1.00  0.00     0.153 HD
BRANCH   9  11
HETATM   11  C4  UNL     1      86.297  44.175  -7.259  1.00  0.00     0.127 C 
HETATM   12  C5  UNL     1      87.575  44.864  -7.697  1.00  0.00     0.258 C 
HETATM   13  N5  UNL     1      88.173  44.229  -6.507  1.00  0.00    -0.071 N 
HETATM   14  C6  UNL     1      86.850  44.462  -5.896  1.00  0.00     0.258 C 
ATOM     15  H52 UNL     1      88.607  43.307  -6.538  1.00  0.00     0.277 HD
ATOM     16  H51 UNL     1      89.038  44.564  -6.084  1.00  0.00     0.277 HD
ENDBRANCH   9  11
ENDBRANCH   1   9
TORSDOF 5
ENDMDL
MODEL 3
REMARK VINA RESULT: -5.637759710      1.462      2.094
REMARK  5 active torsions:
REMARK  status: ('A' for Active; 'I' for Inactive)
REMARK    1  A    between atoms: N3_4  and  O1_6 
REMARK    2  A    between atoms: O1_6  and  C2_7 
REMARK    3  A    between atoms: C2_7  and  C3_8 
REMARK    4  A    between atoms: C3_8  and  N4_9 
REMARK    5  A    between atoms: N4_9  and  C4_11 
ROOT
HETATM    1  C3  UNL     1      85.673  44.269  -9.055  1.00  0.00     0.143 C 
ENDROOT
BRANCH   1   2
HETATM    2  C2  UNL     1      85.252  45.476  -9.865  1.00  0.00     0.220 C 
BRANCH   2   3
HETATM    3  O1  UNL     1      83.857  45.715  -9.672  1.00  0.00    -0.277 OA
BRANCH   3   4
HETATM    4  N3  UNL     1      82.936  44.922 -10.277  1.00  0.00    -0.241 N 
HETATM    5  C1  UNL     1      82.166  44.094  -9.693  1.00  0.00     0.221 C 
HETATM    6  N1  UNL     1      82.164  43.877  -8.288  1.00  0.00    -0.065 NA
HETATM    7  N2  UNL     1      81.259  43.340 -10.474  1.00  0.00    -0.065 NA
ATOM      8  H3  UNL     1      82.853  44.998 -11.290  1.00  0.00     0.196 HD
ENDBRANCH   3   4
ENDBRANCH   2   3
ENDBRANCH   1   2
BRANCH   1   9
HETATM    9  N4  UNL     1      85.398  44.463  -7.673  1.00  0.00    -0.412 N 
ATOM     10  H4  UNL     1      84.471  44.750  -7.357  1.00  0.00     0.153 HD
BRANCH   9  11
HETATM   11  C4  UNL     1      86.432  44.250  -6.763  1.00  0.00     0.127 C 
HETATM   12  C5  UNL     1      87.518  43.255  -7.122  1.00  0.00     0.258 C 
HETATM   13  N5  UNL     1      88.362  44.039  -6.200  1.00  0.00    -0.071 N 
HETATM   14  C6  UNL     1      87.596  45.193  -6.709  1.00  0.00     0.258 C 
ATOM     15  H52 UNL     1      88.433  43.824  -5.205  1.00  0.00     0.277 HD
ATOM     16  H51 UNL     1      89.381  44.003  -6.226  1.00  0.00     0.277 HD
ENDBRANCH   9  11
ENDBRANCH   1   9
TORSDOF 5
ENDMDL
MODEL 4
REMARK VINA RESULT: -5.577842984      1.988      2.534
REMARK  5 active torsions:
REMARK  status: ('A' for Active; 'I' for Inactive)
REMARK    1  A    between atoms: N3_4  and  O1_6 
REMARK    2  A    between atoms: O1_6  and  C2_7 
REMARK    3  A    between atoms: C2_7  and  C3_8 
REMARK    4  A    between atoms: C3_8  and  N4_9 
REMARK    5  A    between atoms: N4_9  and  C4_11 
ROOT
HETATM    1  C3  UNL     1      82.953  45.507  -8.802  1.00  0.00     0.143 C 
ENDROOT
BRANCH   1   2
HETATM    2  C2  UNL     1      81.748  44.665  -8.442  1.00  0.00     0.220 C 
BRANCH   2   3
HETATM    3  O1  UNL     1      81.584  43.631  -9.414  1.00  0.00    -0.277 OA
BRANCH   3   4
HETATM    4  N3  UNL     1      81.757  43.897 -10.734  1.00  0.00    -0.241 N 
HETATM    5  C1  UNL     1      81.084  43.396 -11.690  1.00  0.00     0.221 C 
HETATM    6  N1  UNL     1      80.029  42.461 -11.504  1.00  0.00    -0.065 NA
HETATM    7  N2  UNL     1      81.394  43.780 -13.016  1.00  0.00    -0.065 NA
ATOM      8  H3  UNL     1      82.493  44.558 -10.981  1.00  0.00     0.196 HD
ENDBRANCH   3   4
ENDBRANCH   2   3
ENDBRANCH   1   2
BRANCH   1   9
HETATM    9  N4  UNL     1      84.090  45.118  -8.040  1.00  0.00    -0.412 N 
ATOM     10  H4  UNL     1      84.104  45.226  -7.026  1.00  0.00     0.153 HD
BRANCH   9  11
HETATM   11  C4  UNL     1      85.184  44.586  -8.721  1.00  0.00     0.127 C 
HETATM   12  C5  UNL     1      85.173  43.110  -9.066  1.00  0.00     0.258 C 
HETATM   13  N5  UNL     1      86.092  43.489 -10.156  1.00  0.00    -0.071 N 
HETATM   14  C6  UNL     1      85.287  44.725 -10.209  1.00  0.00     0.258 C 
ATOM     15  H52 UNL     1      87.105  43.499 -10.040  1.00  0.00     0.277 HD
ATOM     16  H51 UNL     1      86.245  42.899 -10.974  1.00  0.00     0.277 HD
ENDBRANCH   9  11
ENDBRANCH   1   9
TORSDOF 5
ENDMDL
MODEL 5
REMARK VINA RESULT: -5.555805368      3.212      4.199
REMARK  5 active torsions:
REMARK  status: ('A' for Active; 'I' for Inactive)
REMARK    1  A    between atoms: N3_4  and  O1_6 
REMARK    2  A    between atoms: O1_6  and  C2_7 
REMARK    3  A    between atoms: C2_7  and  C3_8 
REMARK    4  A    between atoms: C3_8  and  N4_9 
REMARK    5  A    between atoms: N4_9  and  C4_11 
ROOT
HETATM    1  C3  UNL     1      82.491  44.973 -12.231  1.00  0.00     0.143 C 
ENDROOT
BRANCH   1   2
HETATM    2  C2  UNL     1      81.386  43.945 -12.335  1.00  0.00     0.220 C 
BRANCH   2   3
HETATM    3  O1  UNL     1      81.393  43.121 -11.169  1.00  0.00    -0.277 OA
BRANCH   3   4
HETATM    4  N3  UNL     1      81.231  43.673  -9.939  1.00  0.00    -0.241 N 
HETATM    5  C1  UNL     1      82.131  43.777  -9.044  1.00  0.00     0.221 C 
HETATM    6  N1  UNL     1      83.465  43.317  -9.213  1.00  0.00    -0.065 NA
HETATM    7  N2  UNL     1      81.797  44.381  -7.810  1.00  0.00    -0.065 NA
ATOM      8  H3  UNL     1      80.306  44.036  -9.711  1.00  0.00     0.196 HD
ENDBRANCH   3   4
ENDBRANCH   2   3
ENDBRANCH   1   2
BRANCH   1   9
HETATM    9  N4  UNL     1      83.769  44.361 -12.359  1.00  0.00    -0.412 N 
ATOM     10  H4  UNL     1      83.856  43.374 -12.602  1.00  0.00     0.153 HD
BRANCH   9  11
HETATM   11  C4  UNL     1      84.899  45.149 -12.142  1.00  0.00     0.127 C 
HETATM   12  C5  UNL     1      84.886  46.129 -10.985  1.00  0.00     0.258 C 
HETATM   13  N5  UNL     1      86.355  45.995 -11.023  1.00  0.00    -0.071 N 
HETATM   14  C6  UNL     1      86.073  44.594 -11.394  1.00  0.00     0.258 C 
ATOM     15  H52 UNL     1      86.945  46.604 -11.589  1.00  0.00     0.277 HD
ATOM     16  H51 UNL     1      86.948  46.244 -10.232  1.00  0.00     0.277 HD
ENDBRANCH   9  11
ENDBRANCH   1   9
TORSDOF 5
ENDMDL
