MODEL 1
REMARK VINA RESULT: -8.617078068      0.000      0.000
REMARK  13 active torsions:
REMARK  status: ('A' for Active; 'I' for Inactive)
REMARK    1  A    between atoms: C2_2  and  C4_4 
REMARK    2  A    between atoms: C4_4  and  C5_5 
REMARK    3  A    between atoms: C5_5  and  C6_6 
REMARK    4  A    between atoms: C6_6  and  C7_7 
REMARK       I    between atoms: C7_7  and  N1_9 
REMARK    5  A    between atoms: N1_9  and  C8_11 
REMARK    6  A    between atoms: C9_16  and  C10_17 
REMARK    7  A    between atoms: C10_17  and  C11_18 
REMARK    8  A    between atoms: C11_18  and  C12_19 
REMARK    9  A    between atoms: C12_19  and  C13_20 
REMARK   10  A    between atoms: C13_20  and  C14_21 
REMARK       I    between atoms: N6_27  and  C16_29 
REMARK   11  A    between atoms: C16_29  and  C17_31 
REMARK   12  A    between atoms: C17_31  and  C18_32 
REMARK   13  A    between atoms: C18_32  and  C19_33 
ROOT
HETATM    1  C14 UNL     1       3.694  -5.175  17.599  1.00  0.00     0.069 A 
HETATM    2  N4  UNL     1       4.810  -5.205  18.297  1.00  0.00    -0.296 N 
ATOM      3  H4  UNL     1       5.092  -4.386  18.835  1.00  0.00     0.187 HD
HETATM    4  N5  UNL     1       5.540  -6.247  18.308  1.00  0.00    -0.279 N 
ATOM      5  H5  UNL     1       6.403  -6.263  18.853  1.00  0.00     0.189 HD
HETATM    6  C15 UNL     1       5.173  -7.316  17.604  1.00  0.00     0.167 A 
HETATM    7  N6  UNL     1       5.688  -8.472  17.429  1.00  0.00    -0.306 N 
ATOM      8  H6  UNL     1       5.120  -9.053  16.812  1.00  0.00     0.171 HD
HETATM    9  C16 UNL     1       6.804  -9.121  17.860  1.00  0.00     0.223 C 
HETATM   10  O2  UNL     1       6.877 -10.394  17.629  1.00  0.00    -0.273 OA
HETATM   11  S1  UNL     1       3.679  -6.730  16.906  1.00  0.00    -0.038 SA
ENDROOT
BRANCH   1  12
HETATM   12  C13 UNL     1       2.691  -4.048  17.460  1.00  0.00     0.066 C 
BRANCH  12  13
HETATM   13  C12 UNL     1       3.265  -3.101  16.462  1.00  0.00     0.007 C 
BRANCH  13  14
HETATM   14  C11 UNL     1       2.617  -3.112  15.126  1.00  0.00     0.007 C 
BRANCH  14  15
HETATM   15  C10 UNL     1       2.086  -1.802  14.641  1.00  0.00     0.066 C 
BRANCH  15  16
HETATM   16  C9  UNL     1       3.277  -1.017  14.130  1.00  0.00     0.069 A 
HETATM   17  N3  UNL     1       3.912  -0.025  14.741  1.00  0.00    -0.296 N 
HETATM   18  N2  UNL     1       4.900   0.541  14.191  1.00  0.00    -0.279 N 
ATOM     19  H3  UNL     1       3.600   0.283  15.663  1.00  0.00     0.187 HD
HETATM   20  C8  UNL     1       5.294   0.122  12.982  1.00  0.00     0.167 A 
ATOM     21  H2  UNL     1       5.387   1.305  14.660  1.00  0.00     0.189 HD
HETATM   22  S2  UNL     1       4.165  -1.134  12.676  1.00  0.00    -0.038 SA
BRANCH  20  23
HETATM   23  N1  UNL     1       6.291   0.576  12.249  1.00  0.00    -0.306 N 
HETATM   24  C7  UNL     1       7.535   0.662  12.868  1.00  0.00     0.223 C 
HETATM   25  O1  UNL     1       7.832   1.563  13.645  1.00  0.00    -0.273 OA
ATOM     26  H1  UNL     1       6.158   0.850  11.276  1.00  0.00     0.171 HD
BRANCH  24  27
HETATM   27  C6  UNL     1       8.566  -0.413  12.562  1.00  0.00     0.107 C 
BRANCH  27  28
HETATM   28  C5  UNL     1       8.682  -1.296  13.744  1.00  0.00     0.036 C 
BRANCH  28  29
HETATM   29  C4  UNL     1       7.745  -2.389  13.845  1.00  0.00    -0.024 C 
BRANCH  29  30
HETATM   30  C2  UNL     1       6.932  -2.831  14.741  1.00  0.00    -0.091 C 
HETATM   31  C1  UNL     1       6.088  -4.076  14.423  1.00  0.00     0.042 C 
HETATM   32  C3  UNL     1       6.716  -2.234  16.063  1.00  0.00     0.042 C 
ENDBRANCH  29  30
ENDBRANCH  28  29
ENDBRANCH  27  28
ENDBRANCH  24  27
ENDBRANCH  20  23
ENDBRANCH  15  16
ENDBRANCH  14  15
ENDBRANCH  13  14
ENDBRANCH  12  13
ENDBRANCH   1  12
BRANCH   9  33
HETATM   33  C17 UNL     1       7.927  -8.453  18.571  1.00  0.00     0.108 C 
BRANCH  33  34
HETATM   34  C18 UNL     1       9.088  -8.361  17.600  1.00  0.00     0.049 C 
BRANCH  34  35
HETATM   35  C19 UNL     1       9.439  -6.984  17.222  1.00  0.00    -0.042 A 
HETATM   36  C20 UNL     1       9.106  -6.470  15.986  1.00  0.00     0.014 A 
HETATM   37  C21 UNL     1       9.429  -5.162  15.618  1.00  0.00     0.075 A 
HETATM   38  C22 UNL     1      10.101  -4.337  16.495  1.00  0.00     0.245 A 
HETATM   39  O3  UNL     1      10.415  -3.146  16.212  1.00  0.00    -0.268 OA
HETATM   40  N7  UNL     1      10.416  -4.857  17.697  1.00  0.00    -0.333 N 
HETATM   41  C23 UNL     1      10.114  -6.120  18.076  1.00  0.00     0.098 A 
ATOM     42  H7  UNL     1      10.912  -4.262  18.361  1.00  0.00     0.168 HD
ENDBRANCH  34  35
ENDBRANCH  33  34
ENDBRANCH   9  33
TORSDOF 13
ENDMDL
MODEL 2
REMARK VINA RESULT: -8.526703528      2.831      4.427
REMARK  13 active torsions:
REMARK  status: ('A' for Active; 'I' for Inactive)
REMARK    1  A    between atoms: C2_2  and  C4_4 
REMARK    2  A    between atoms: C4_4  and  C5_5 
REMARK    3  A    between atoms: C5_5  and  C6_6 
REMARK    4  A    between atoms: C6_6  and  C7_7 
REMARK       I    between atoms: C7_7  and  N1_9 
REMARK    5  A    between atoms: N1_9  and  C8_11 
REMARK    6  A    between atoms: C9_16  and  C10_17 
REMARK    7  A    between atoms: C10_17  and  C11_18 
REMARK    8  A    between atoms: C11_18  and  C12_19 
REMARK    9  A    between atoms: C12_19  and  C13_20 
REMARK   10  A    between atoms: C13_20  and  C14_21 
REMARK       I    between atoms: N6_27  and  C16_29 
REMARK   11  A    between atoms: C16_29  and  C17_31 
REMARK   12  A    between atoms: C17_31  and  C18_32 
REMARK   13  A    between atoms: C18_32  and  C19_33 
ROOT
HETATM    1  C14 UNL     1       4.803  -5.968  18.225  1.00  0.00     0.069 A 
HETATM    2  N4  UNL     1       5.720  -5.044  18.029  1.00  0.00    -0.296 N 
ATOM      3  H4  UNL     1       5.440  -4.107  17.743  1.00  0.00     0.187 HD
HETATM    4  N5  UNL     1       6.953  -5.309  18.193  1.00  0.00    -0.279 N 
ATOM      5  H5  UNL     1       7.658  -4.588  18.041  1.00  0.00     0.189 HD
HETATM    6  C15 UNL     1       7.320  -6.535  18.565  1.00  0.00     0.167 A 
HETATM    7  N6  UNL     1       8.450  -7.080  18.803  1.00  0.00    -0.306 N 
ATOM      8  H6  UNL     1       8.354  -8.058  19.073  1.00  0.00     0.171 HD
HETATM    9  C16 UNL     1       9.752  -6.680  18.786  1.00  0.00     0.223 C 
HETATM   10  O2  UNL     1      10.626  -7.482  19.307  1.00  0.00    -0.273 OA
HETATM   11  S1  UNL     1       5.753  -7.308  18.671  1.00  0.00    -0.038 SA
ENDROOT
BRANCH   1  12
HETATM   12  C13 UNL     1       3.298  -5.856  18.091  1.00  0.00     0.066 C 
BRANCH  12  13
HETATM   13  C12 UNL     1       3.010  -4.419  17.820  1.00  0.00     0.007 C 
BRANCH  13  14
HETATM   14  C11 UNL     1       2.519  -4.114  16.453  1.00  0.00     0.007 C 
BRANCH  14  15
HETATM   15  C10 UNL     1       3.539  -4.163  15.361  1.00  0.00     0.066 C 
BRANCH  15  16
HETATM   16  C9  UNL     1       3.929  -2.728  15.071  1.00  0.00     0.069 A 
HETATM   17  N3  UNL     1       4.691  -1.933  15.812  1.00  0.00    -0.296 N 
HETATM   18  N2  UNL     1       4.935  -0.749  15.442  1.00  0.00    -0.279 N 
ATOM     19  H3  UNL     1       5.083  -2.281  16.688  1.00  0.00     0.187 HD
HETATM   20  C8  UNL     1       4.414  -0.311  14.290  1.00  0.00     0.167 A 
ATOM     21  H2  UNL     1       5.520  -0.137  16.012  1.00  0.00     0.189 HD
HETATM   22  S2  UNL     1       3.548  -1.697  13.764  1.00  0.00    -0.038 SA
BRANCH  20  23
HETATM   23  N1  UNL     1       4.549   0.876  13.734  1.00  0.00    -0.306 N 
HETATM   24  C7  UNL     1       4.395   0.942  12.352  1.00  0.00     0.223 C 
HETATM   25  O1  UNL     1       5.268   0.589  11.568  1.00  0.00    -0.273 OA
ATOM     26  H1  UNL     1       4.756   1.706  14.290  1.00  0.00     0.171 HD
BRANCH  24  27
HETATM   27  C6  UNL     1       3.084   1.477  11.800  1.00  0.00     0.107 C 
BRANCH  27  28
HETATM   28  C5  UNL     1       2.427   0.396  11.032  1.00  0.00     0.036 C 
BRANCH  28  29
HETATM   29  C4  UNL     1       1.292   0.759  10.218  1.00  0.00    -0.024 C 
BRANCH  29  30
HETATM   30  C2  UNL     1       0.727   1.858   9.855  1.00  0.00    -0.091 C 
HETATM   31  C1  UNL     1      -0.591   2.269  10.530  1.00  0.00     0.042 C 
HETATM   32  C3  UNL     1       1.225   2.768   8.818  1.00  0.00     0.042 C 
ENDBRANCH  29  30
ENDBRANCH  28  29
ENDBRANCH  27  28
ENDBRANCH  24  27
ENDBRANCH  20  23
ENDBRANCH  15  16
ENDBRANCH  14  15
ENDBRANCH  13  14
ENDBRANCH  12  13
ENDBRANCH   1  12
BRANCH   9  33
HETATM   33  C17 UNL     1      10.214  -5.389  18.208  1.00  0.00     0.108 C 
BRANCH  33  34
HETATM   34  C18 UNL     1      10.331  -5.580  16.708  1.00  0.00     0.049 C 
BRANCH  34  35
HETATM   35  C19 UNL     1       9.539  -4.621  15.923  1.00  0.00    -0.042 A 
HETATM   36  C20 UNL     1       9.885  -3.288  15.857  1.00  0.00     0.014 A 
HETATM   37  C21 UNL     1       9.143  -2.369  15.111  1.00  0.00     0.075 A 
HETATM   38  C22 UNL     1       8.028  -2.778  14.411  1.00  0.00     0.245 A 
HETATM   39  O3  UNL     1       7.324  -1.987  13.720  1.00  0.00    -0.268 OA
HETATM   40  N7  UNL     1       7.707  -4.083  14.488  1.00  0.00    -0.333 N 
HETATM   41  C23 UNL     1       8.409  -4.992  15.204  1.00  0.00     0.098 A 
ATOM     42  H7  UNL     1       6.887  -4.407  13.977  1.00  0.00     0.168 HD
ENDBRANCH  34  35
ENDBRANCH  33  34
ENDBRANCH   9  33
TORSDOF 13
ENDMDL
MODEL 3
REMARK VINA RESULT: -8.371740901      2.741      6.393
REMARK  13 active torsions:
REMARK  status: ('A' for Active; 'I' for Inactive)
REMARK    1  A    between atoms: C2_2  and  C4_4 
REMARK    2  A    between atoms: C4_4  and  C5_5 
REMARK    3  A    between atoms: C5_5  and  C6_6 
REMARK    4  A    between atoms: C6_6  and  C7_7 
REMARK       I    between atoms: C7_7  and  N1_9 
REMARK    5  A    between atoms: N1_9  and  C8_11 
REMARK    6  A    between atoms: C9_16  and  C10_17 
REMARK    7  A    between atoms: C10_17  and  C11_18 
REMARK    8  A    between atoms: C11_18  and  C12_19 
REMARK    9  A    between atoms: C12_19  and  C13_20 
REMARK   10  A    between atoms: C13_20  and  C14_21 
REMARK       I    between atoms: N6_27  and  C16_29 
REMARK   11  A    between atoms: C16_29  and  C17_31 
REMARK   12  A    between atoms: C17_31  and  C18_32 
REMARK   13  A    between atoms: C18_32  and  C19_33 
ROOT
HETATM    1  C14 UNL     1       7.551  -5.954  17.767  1.00  0.00     0.069 A 
HETATM    2  N4  UNL     1       7.055  -4.760  17.517  1.00  0.00    -0.296 N 
ATOM      3  H4  UNL     1       6.146  -4.501  17.899  1.00  0.00     0.187 HD
HETATM    4  N5  UNL     1       7.698  -3.927  16.803  1.00  0.00    -0.279 N 
ATOM      5  H5  UNL     1       7.307  -3.004  16.615  1.00  0.00     0.189 HD
HETATM    6  C15 UNL     1       8.884  -4.266  16.303  1.00  0.00     0.167 A 
HETATM    7  N6  UNL     1       9.737  -3.656  15.574  1.00  0.00    -0.306 N 
ATOM      8  H6  UNL     1      10.556  -4.232  15.379  1.00  0.00     0.171 HD
HETATM    9  C16 UNL     1       9.827  -2.428  14.992  1.00  0.00     0.223 C 
HETATM   10  O2  UNL     1      10.972  -2.091  14.490  1.00  0.00    -0.273 OA
HETATM   11  S1  UNL     1       9.032  -5.893  16.930  1.00  0.00    -0.038 SA
ENDROOT
BRANCH   1  12
HETATM   12  C13 UNL     1       6.955  -7.078  18.590  1.00  0.00     0.066 C 
BRANCH  12  13
HETATM   13  C12 UNL     1       5.522  -7.171  18.190  1.00  0.00     0.007 C 
BRANCH  13  14
HETATM   14  C11 UNL     1       4.552  -6.595  19.156  1.00  0.00     0.007 C 
BRANCH  14  15
HETATM   15  C10 UNL     1       3.167  -6.368  18.641  1.00  0.00     0.066 C 
BRANCH  15  16
HETATM   16  C9  UNL     1       3.217  -5.097  17.816  1.00  0.00     0.069 A 
HETATM   17  N3  UNL     1       3.619  -3.896  18.209  1.00  0.00    -0.296 N 
HETATM   18  N2  UNL     1       3.609  -2.919  17.405  1.00  0.00    -0.279 N 
ATOM     19  H3  UNL     1       3.941  -3.758  19.168  1.00  0.00     0.187 HD
HETATM   20  C8  UNL     1       3.186  -3.119  16.152  1.00  0.00     0.167 A 
ATOM     21  H2  UNL     1       3.917  -1.995  17.708  1.00  0.00     0.189 HD
HETATM   22  S2  UNL     1       2.801  -4.792  16.188  1.00  0.00    -0.038 SA
BRANCH  20  23
HETATM   23  N1  UNL     1       3.100  -2.242  15.172  1.00  0.00    -0.306 N 
HETATM   24  C7  UNL     1       4.285  -1.912  14.521  1.00  0.00     0.223 C 
HETATM   25  O1  UNL     1       5.115  -1.146  14.997  1.00  0.00    -0.273 OA
ATOM     26  H1  UNL     1       2.209  -1.825  14.904  1.00  0.00     0.171 HD
BRANCH  24  27
HETATM   27  C6  UNL     1       4.555  -2.533  13.160  1.00  0.00     0.107 C 
BRANCH  27  28
HETATM   28  C5  UNL     1       4.707  -1.441  12.172  1.00  0.00     0.036 C 
BRANCH  28  29
HETATM   29  C4  UNL     1       3.528  -0.675  11.848  1.00  0.00    -0.024 C 
BRANCH  29  30
HETATM   30  C2  UNL     1       3.205   0.572  11.850  1.00  0.00    -0.091 C 
HETATM   31  C1  UNL     1       1.715   0.949  11.830  1.00  0.00     0.042 C 
HETATM   32  C3  UNL     1       4.148   1.695  11.849  1.00  0.00     0.042 C 
ENDBRANCH  29  30
ENDBRANCH  28  29
ENDBRANCH  27  28
ENDBRANCH  24  27
ENDBRANCH  20  23
ENDBRANCH  15  16
ENDBRANCH  14  15
ENDBRANCH  13  14
ENDBRANCH  12  13
ENDBRANCH   1  12
BRANCH   9  33
HETATM   33  C17 UNL     1       8.693  -1.468  14.905  1.00  0.00     0.108 C 
BRANCH  33  34
HETATM   34  C18 UNL     1       8.217  -1.458  13.465  1.00  0.00     0.049 C 
BRANCH  34  35
HETATM   35  C19 UNL     1       8.054  -0.110  12.903  1.00  0.00    -0.042 A 
HETATM   36  C20 UNL     1       8.216   0.132  11.555  1.00  0.00     0.014 A 
HETATM   37  C21 UNL     1       8.059   1.408  11.009  1.00  0.00     0.075 A 
HETATM   38  C22 UNL     1       7.733   2.476  11.817  1.00  0.00     0.245 A 
HETATM   39  O3  UNL     1       7.577   3.650  11.373  1.00  0.00    -0.268 OA
HETATM   40  N7  UNL     1       7.578   2.220  13.129  1.00  0.00    -0.333 N 
HETATM   41  C23 UNL     1       7.725   0.994  13.682  1.00  0.00     0.098 A 
ATOM     42  H7  UNL     1       7.336   2.996  13.744  1.00  0.00     0.168 HD
ENDBRANCH  34  35
ENDBRANCH  33  34
ENDBRANCH   9  33
TORSDOF 13
ENDMDL
MODEL 4
REMARK VINA RESULT: -8.322669372      3.144      9.231
REMARK  13 active torsions:
REMARK  status: ('A' for Active; 'I' for Inactive)
REMARK    1  A    between atoms: C2_2  and  C4_4 
REMARK    2  A    between atoms: C4_4  and  C5_5 
REMARK    3  A    between atoms: C5_5  and  C6_6 
REMARK    4  A    between atoms: C6_6  and  C7_7 
REMARK       I    between atoms: C7_7  and  N1_9 
REMARK    5  A    between atoms: N1_9  and  C8_11 
REMARK    6  A    between atoms: C9_16  and  C10_17 
REMARK    7  A    between atoms: C10_17  and  C11_18 
REMARK    8  A    between atoms: C11_18  and  C12_19 
REMARK    9  A    between atoms: C12_19  and  C13_20 
REMARK   10  A    between atoms: C13_20  and  C14_21 
REMARK       I    between atoms: N6_27  and  C16_29 
REMARK   11  A    between atoms: C16_29  and  C17_31 
REMARK   12  A    between atoms: C17_31  and  C18_32 
REMARK   13  A    between atoms: C18_32  and  C19_33 
ROOT
HETATM    1  C14 UNL     1       9.587  -1.816  14.030  1.00  0.00     0.069 A 
HETATM    2  N4  UNL     1       8.276  -1.709  14.088  1.00  0.00    -0.296 N 
ATOM      3  H4  UNL     1       7.770  -2.128  14.868  1.00  0.00     0.187 HD
HETATM    4  N5  UNL     1       7.635  -1.089  13.182  1.00  0.00    -0.279 N 
ATOM      5  H5  UNL     1       6.619  -1.010  13.235  1.00  0.00     0.189 HD
HETATM    6  C15 UNL     1       8.296  -0.544  12.162  1.00  0.00     0.167 A 
HETATM    7  N6  UNL     1       7.933   0.121  11.134  1.00  0.00    -0.306 N 
ATOM      8  H6  UNL     1       8.727   0.388  10.551  1.00  0.00     0.171 HD
HETATM    9  C16 UNL     1       6.752   0.563  10.621  1.00  0.00     0.223 C 
HETATM   10  O2  UNL     1       6.808   1.410   9.643  1.00  0.00    -0.273 OA
HETATM   11  S1  UNL     1       9.937  -0.981  12.588  1.00  0.00    -0.038 SA
ENDROOT
BRANCH   1  12
HETATM   12  C13 UNL     1      10.529  -2.499  15.000  1.00  0.00     0.066 C 
BRANCH  12  13
HETATM   13  C12 UNL     1       9.673  -3.067  16.080  1.00  0.00     0.007 C 
BRANCH  13  14
HETATM   14  C11 UNL     1       9.789  -4.534  16.281  1.00  0.00     0.007 C 
BRANCH  14  15
HETATM   15  C10 UNL     1       9.174  -5.393  15.224  1.00  0.00     0.066 C 
BRANCH  15  16
HETATM   16  C9  UNL     1       7.722  -5.583  15.616  1.00  0.00     0.069 A 
HETATM   17  N3  UNL     1       7.233  -6.424  16.518  1.00  0.00    -0.296 N 
HETATM   18  N2  UNL     1       5.990  -6.473  16.743  1.00  0.00    -0.279 N 
ATOM     19  H3  UNL     1       7.866  -7.035  17.035  1.00  0.00     0.187 HD
HETATM   20  C8  UNL     1       5.176  -5.662  16.057  1.00  0.00     0.167 A 
ATOM     21  H2  UNL     1       5.613  -7.120  17.436  1.00  0.00     0.189 HD
HETATM   22  S2  UNL     1       6.296  -4.821  15.064  1.00  0.00    -0.038 SA
BRANCH  20  23
HETATM   23  N1  UNL     1       3.865  -5.561  16.144  1.00  0.00    -0.306 N 
HETATM   24  C7  UNL     1       3.361  -4.888  17.254  1.00  0.00     0.223 C 
HETATM   25  O1  UNL     1       3.293  -5.396  18.367  1.00  0.00    -0.273 OA
ATOM     26  H1  UNL     1       3.249  -5.956  15.433  1.00  0.00     0.171 HD
BRANCH  24  27
HETATM   27  C6  UNL     1       2.876  -3.459  17.068  1.00  0.00     0.107 C 
BRANCH  27  28
HETATM   28  C5  UNL     1       2.131  -3.382  15.791  1.00  0.00     0.036 C 
BRANCH  28  29
HETATM   29  C4  UNL     1       2.554  -2.384  14.839  1.00  0.00    -0.024 C 
BRANCH  29  30
HETATM   30  C2  UNL     1       3.645  -2.103  14.214  1.00  0.00    -0.091 C 
HETATM   31  C1  UNL     1       4.606  -1.074  14.830  1.00  0.00     0.042 C 
HETATM   32  C3  UNL     1       4.058  -2.673  12.928  1.00  0.00     0.042 C 
ENDBRANCH  29  30
ENDBRANCH  28  29
ENDBRANCH  27  28
ENDBRANCH  24  27
ENDBRANCH  20  23
ENDBRANCH  15  16
ENDBRANCH  14  15
ENDBRANCH  13  14
ENDBRANCH  12  13
ENDBRANCH   1  12
BRANCH   9  33
HETATM   33  C17 UNL     1       5.419   0.128  11.121  1.00  0.00     0.108 C 
BRANCH  33  34
HETATM   34  C18 UNL     1       4.912   1.207  12.058  1.00  0.00     0.049 C 
BRANCH  34  35
HETATM   35  C19 UNL     1       3.508   1.580  11.831  1.00  0.00    -0.042 A 
HETATM   36  C20 UNL     1       2.478   0.706  12.107  1.00  0.00     0.014 A 
HETATM   37  C21 UNL     1       1.140   1.051  11.900  1.00  0.00     0.075 A 
HETATM   38  C22 UNL     1       0.810   2.294  11.404  1.00  0.00     0.245 A 
HETATM   39  O3  UNL     1      -0.384   2.656  11.200  1.00  0.00    -0.268 OA
HETATM   40  N7  UNL     1       1.830   3.133  11.141  1.00  0.00    -0.333 N 
HETATM   41  C23 UNL     1       3.132   2.823  11.333  1.00  0.00     0.098 A 
ATOM     42  H7  UNL     1       1.607   4.059  10.775  1.00  0.00     0.168 HD
ENDBRANCH  34  35
ENDBRANCH  33  34
ENDBRANCH   9  33
TORSDOF 13
ENDMDL
MODEL 5
REMARK VINA RESULT: -8.319342332      2.309      3.691
REMARK  13 active torsions:
REMARK  status: ('A' for Active; 'I' for Inactive)
REMARK    1  A    between atoms: C2_2  and  C4_4 
REMARK    2  A    between atoms: C4_4  and  C5_5 
REMARK    3  A    between atoms: C5_5  and  C6_6 
REMARK    4  A    between atoms: C6_6  and  C7_7 
REMARK       I    between atoms: C7_7  and  N1_9 
REMARK    5  A    between atoms: N1_9  and  C8_11 
REMARK    6  A    between atoms: C9_16  and  C10_17 
REMARK    7  A    between atoms: C10_17  and  C11_18 
REMARK    8  A    between atoms: C11_18  and  C12_19 
REMARK    9  A    between atoms: C12_19  and  C13_20 
REMARK   10  A    between atoms: C13_20  and  C14_21 
REMARK       I    between atoms: N6_27  and  C16_29 
REMARK   11  A    between atoms: C16_29  and  C17_31 
REMARK   12  A    between atoms: C17_31  and  C18_32 
REMARK   13  A    between atoms: C18_32  and  C19_33 
ROOT
HETATM    1  C14 UNL     1       3.736  -4.298  16.842  1.00  0.00     0.069 A 
HETATM    2  N4  UNL     1       4.894  -3.891  17.319  1.00  0.00    -0.296 N 
ATOM      3  H4  UNL     1       5.007  -2.919  17.607  1.00  0.00     0.187 HD
HETATM    4  N5  UNL     1       5.872  -4.696  17.425  1.00  0.00    -0.279 N 
ATOM      5  H5  UNL     1       6.765  -4.373  17.797  1.00  0.00     0.189 HD
HETATM    6  C15 UNL     1       5.724  -5.965  17.048  1.00  0.00     0.167 A 
HETATM    7  N6  UNL     1       6.505  -6.976  17.039  1.00  0.00    -0.306 N 
ATOM      8  H6  UNL     1       6.045  -7.811  16.675  1.00  0.00     0.171 HD
HETATM    9  C16 UNL     1       7.797  -7.218  17.394  1.00  0.00     0.223 C 
HETATM   10  O2  UNL     1       8.180  -8.454  17.436  1.00  0.00    -0.273 OA
HETATM   11  S1  UNL     1       4.056  -5.939  16.519  1.00  0.00    -0.038 SA
ENDROOT
BRANCH   1  12
HETATM   12  C13 UNL     1       2.459  -3.508  16.644  1.00  0.00     0.066 C 
BRANCH  12  13
HETATM   13  C12 UNL     1       2.287  -3.358  15.170  1.00  0.00     0.007 C 
BRANCH  13  14
HETATM   14  C11 UNL     1       3.104  -2.292  14.538  1.00  0.00     0.007 C 
BRANCH  14  15
HETATM   15  C10 UNL     1       4.206  -2.753  13.639  1.00  0.00     0.066 C 
BRANCH  15  16
HETATM   16  C9  UNL     1       5.006  -1.519  13.271  1.00  0.00     0.069 A 
HETATM   17  N3  UNL     1       5.900  -1.399  12.299  1.00  0.00    -0.296 N 
HETATM   18  N2  UNL     1       6.494  -0.299  12.104  1.00  0.00    -0.279 N 
ATOM     19  H3  UNL     1       6.111  -2.200  11.702  1.00  0.00     0.187 HD
HETATM   20  C8  UNL     1       6.203   0.741  12.895  1.00  0.00     0.167 A 
ATOM     21  H2  UNL     1       7.183  -0.206  11.358  1.00  0.00     0.189 HD
HETATM   22  S2  UNL     1       5.027   0.052  13.939  1.00  0.00    -0.038 SA
BRANCH  20  23
HETATM   23  N1  UNL     1       6.705   1.959  12.856  1.00  0.00    -0.306 N 
HETATM   24  C7  UNL     1       6.854   2.535  11.597  1.00  0.00     0.223 C 
HETATM   25  O1  UNL     1       7.768   2.244  10.835  1.00  0.00    -0.273 OA
ATOM     26  H1  UNL     1       6.972   2.455  13.706  1.00  0.00     0.171 HD
BRANCH  24  27
HETATM   27  C6  UNL     1       5.831   3.570  11.156  1.00  0.00     0.107 C 
BRANCH  27  28
HETATM   28  C5  UNL     1       4.704   2.863  10.507  1.00  0.00     0.036 C 
BRANCH  28  29
HETATM   29  C4  UNL     1       3.478   2.745  11.259  1.00  0.00    -0.024 C 
BRANCH  29  30
HETATM   30  C2  UNL     1       2.482   1.929  11.283  1.00  0.00    -0.091 C 
HETATM   31  C1  UNL     1       1.065   2.497  11.460  1.00  0.00     0.042 C 
HETATM   32  C3  UNL     1       2.576   0.469  11.173  1.00  0.00     0.042 C 
ENDBRANCH  29  30
ENDBRANCH  28  29
ENDBRANCH  27  28
ENDBRANCH  24  27
ENDBRANCH  20  23
ENDBRANCH  15  16
ENDBRANCH  14  15
ENDBRANCH  13  14
ENDBRANCH  12  13
ENDBRANCH   1  12
BRANCH   9  33
HETATM   33  C17 UNL     1       8.776  -6.149  17.730  1.00  0.00     0.108 C 
BRANCH  33  34
HETATM   34  C18 UNL     1       9.654  -5.938  16.511  1.00  0.00     0.049 C 
BRANCH  34  35
HETATM   35  C19 UNL     1       9.402  -4.670  15.809  1.00  0.00    -0.042 A 
HETATM   36  C20 UNL     1      10.232  -3.581  15.972  1.00  0.00     0.014 A 
HETATM   37  C21 UNL     1      10.005  -2.374  15.307  1.00  0.00     0.075 A 
HETATM   38  C22 UNL     1       8.927  -2.238  14.458  1.00  0.00     0.245 A 
HETATM   39  O3  UNL     1       8.679  -1.168  13.832  1.00  0.00    -0.268 OA
HETATM   40  N7  UNL     1       8.130  -3.312  14.312  1.00  0.00    -0.333 N 
HETATM   41  C23 UNL     1       8.328  -4.492  14.945  1.00  0.00     0.098 A 
ATOM     42  H7  UNL     1       7.328  -3.233  13.687  1.00  0.00     0.168 HD
ENDBRANCH  34  35
ENDBRANCH  33  34
ENDBRANCH   9  33
TORSDOF 13
ENDMDL
