MODEL 1
REMARK VINA RESULT: -8.009995281      0.000      0.000
REMARK  11 active torsions:
REMARK  status: ('A' for Active; 'I' for Inactive)
REMARK    1  A    between atoms: C2_2  and  C3_3 
REMARK    2  A    between atoms: C3_3  and  C4_4 
REMARK    3  A    between atoms: C4_4  and  N1_5 
REMARK    4  A    between atoms: N3_14  and  C9_16 
REMARK    5  A    between atoms: C9_16  and  C10_17 
REMARK    6  A    between atoms: C10_17  and  C11_18 
REMARK    7  A    between atoms: C11_18  and  N4_19 
REMARK    8  A    between atoms: N4_19  and  S3_21 
REMARK    9  A    between atoms: S3_21  and  N5_24 
REMARK   10  A    between atoms: N5_24  and  C12_25 
REMARK   11  A    between atoms: N5_24  and  C14_27 
ROOT
HETATM    1  N1  UNL     1       8.568  -4.749  17.120  1.00  0.00    -0.290 N 
HETATM    2  C5  UNL     1       7.276  -4.998  17.318  1.00  0.00     0.181 A 
HETATM    3  S1  UNL     1       6.743  -6.021  18.484  1.00  0.00    -0.040 SA
HETATM    4  N2  UNL     1       6.424  -4.360  16.503  1.00  0.00    -0.326 N 
ATOM      5  H2  UNL     1       5.419  -4.508  16.601  1.00  0.00     0.169 HD
HETATM    6  C6  UNL     1       6.892  -3.519  15.546  1.00  0.00     0.093 A 
HETATM    7  S2  UNL     1       6.112  -2.568  14.367  1.00  0.00    -0.067 SA
HETATM    8  C7  UNL     1       7.468  -1.852  13.623  1.00  0.00     0.062 A 
HETATM    9  C8  UNL     1       7.583  -0.956  12.575  1.00  0.00     0.123 A 
HETATM   10  N3  UNL     1       6.641  -0.458  11.918  1.00  0.00    -0.355 N 
ATOM     11  H3  UNL     1       6.941   0.184  11.184  1.00  0.00     0.166 HD
HETATM   12  N6  UNL     1       8.857  -0.565  12.210  1.00  0.00    -0.351 N 
ATOM     13  H6  UNL     1       8.998   0.093  11.444  1.00  0.00     0.166 HD
HETATM   14  C16 UNL     1       9.888  -1.059  12.869  1.00  0.00     0.090 A 
HETATM   15  C17 UNL     1       9.779  -1.936  13.896  1.00  0.00     0.031 A 
HETATM   16  C18 UNL     1       8.512  -2.384  14.329  1.00  0.00     0.005 A 
HETATM   17  C19 UNL     1       8.214  -3.248  15.326  1.00  0.00     0.078 A 
HETATM   18  C20 UNL     1       9.082  -3.937  16.203  1.00  0.00     0.263 A 
HETATM   19  O3  UNL     1      10.329  -3.806  16.141  1.00  0.00    -0.267 OA
ENDROOT
BRANCH  10  20
HETATM   20  C9  UNL     1       5.245  -0.617  12.002  1.00  0.00     0.064 C 
BRANCH  20  21
HETATM   21  C10 UNL     1       4.473   0.452  11.240  1.00  0.00     0.065 C 
BRANCH  21  22
HETATM   22  C11 UNL     1       5.413   1.634  11.027  1.00  0.00     0.138 C 
BRANCH  22  23
HETATM   23  N4  UNL     1       5.574   1.894   9.628  1.00  0.00    -0.306 N 
ATOM     24  H4  UNL     1       4.840   1.776   8.930  1.00  0.00     0.173 HD
BRANCH  23  25
HETATM   25  S3  UNL     1       7.158   2.428   9.282  1.00  0.00     0.298 S 
HETATM   26  O1  UNL     1       7.348   3.829   9.805  1.00  0.00    -0.188 OA
HETATM   27  O2  UNL     1       8.109   1.554  10.069  1.00  0.00    -0.188 OA
BRANCH  25  28
HETATM   28  N5  UNL     1       7.594   2.329   7.638  1.00  0.00    -0.194 NA
BRANCH  28  29
HETATM   29  C12 UNL     1       6.978   1.233   6.925  1.00  0.00     0.104 C 
HETATM   30  C13 UNL     1       6.296   1.834   5.692  1.00  0.00     0.022 C 
ENDBRANCH  28  29
BRANCH  28  31
HETATM   31  C14 UNL     1       7.571   3.574   6.930  1.00  0.00     0.104 C 
HETATM   32  C15 UNL     1       9.005   4.033   6.703  1.00  0.00     0.022 C 
ENDBRANCH  28  31
ENDBRANCH  25  28
ENDBRANCH  23  25
ENDBRANCH  22  23
ENDBRANCH  21  22
ENDBRANCH  20  21
ENDBRANCH  10  20
BRANCH   1  33
HETATM   33  C4  UNL     1       9.499  -5.450  18.013  1.00  0.00     0.135 C 
BRANCH  33  34
HETATM   34  C3  UNL     1      10.035  -6.630  17.202  1.00  0.00     0.020 C 
BRANCH  34  35
HETATM   35  C2  UNL     1      11.332  -7.046  17.870  1.00  0.00    -0.003 C 
HETATM   36  C1  UNL     1      11.037  -8.036  18.955  1.00  0.00     0.005 C 
ENDBRANCH  34  35
ENDBRANCH  33  34
ENDBRANCH   1  33
TORSDOF 11
ENDMDL
MODEL 2
REMARK VINA RESULT: -7.914330500      1.924      2.288
REMARK  11 active torsions:
REMARK  status: ('A' for Active; 'I' for Inactive)
REMARK    1  A    between atoms: C2_2  and  C3_3 
REMARK    2  A    between atoms: C3_3  and  C4_4 
REMARK    3  A    between atoms: C4_4  and  N1_5 
REMARK    4  A    between atoms: N3_14  and  C9_16 
REMARK    5  A    between atoms: C9_16  and  C10_17 
REMARK    6  A    between atoms: C10_17  and  C11_18 
REMARK    7  A    between atoms: C11_18  and  N4_19 
REMARK    8  A    between atoms: N4_19  and  S3_21 
REMARK    9  A    between atoms: S3_21  and  N5_24 
REMARK   10  A    between atoms: N5_24  and  C12_25 
REMARK   11  A    between atoms: N5_24  and  C14_27 
ROOT
HETATM    1  N1  UNL     1       7.977  -5.239  16.883  1.00  0.00    -0.290 N 
HETATM    2  C5  UNL     1       6.781  -5.289  17.464  1.00  0.00     0.181 A 
HETATM    3  S1  UNL     1       6.384  -6.435  18.568  1.00  0.00    -0.040 SA
HETATM    4  N2  UNL     1       5.909  -4.342  17.093  1.00  0.00    -0.326 N 
ATOM      5  H2  UNL     1       4.973  -4.324  17.500  1.00  0.00     0.169 HD
HETATM    6  C6  UNL     1       6.264  -3.406  16.177  1.00  0.00     0.093 A 
HETATM    7  S2  UNL     1       5.426  -2.089  15.492  1.00  0.00    -0.067 SA
HETATM    8  C7  UNL     1       6.634  -1.481  14.455  1.00  0.00     0.062 A 
HETATM    9  C8  UNL     1       6.648  -0.408  13.580  1.00  0.00     0.123 A 
HETATM   10  N3  UNL     1       5.705   0.387  13.365  1.00  0.00    -0.355 N 
ATOM     11  H3  UNL     1       5.922   1.112  12.682  1.00  0.00     0.166 HD
HETATM   12  N6  UNL     1       7.812  -0.181  12.872  1.00  0.00    -0.351 N 
ATOM     13  H6  UNL     1       7.877   0.596  12.215  1.00  0.00     0.166 HD
HETATM   14  C16 UNL     1       8.840  -0.988  13.060  1.00  0.00     0.090 A 
HETATM   15  C17 UNL     1       8.829  -2.039  13.915  1.00  0.00     0.031 A 
HETATM   16  C18 UNL     1       7.677  -2.338  14.675  1.00  0.00     0.005 A 
HETATM   17  C19 UNL     1       7.486  -3.335  15.568  1.00  0.00     0.078 A 
HETATM   18  C20 UNL     1       8.379  -4.348  15.983  1.00  0.00     0.263 A 
HETATM   19  O3  UNL     1       9.545  -4.434  15.525  1.00  0.00    -0.267 OA
ENDROOT
BRANCH  10  20
HETATM   20  C9  UNL     1       4.402   0.467  13.890  1.00  0.00     0.064 C 
BRANCH  20  21
HETATM   21  C10 UNL     1       3.345  -0.115  12.961  1.00  0.00     0.065 C 
BRANCH  21  22
HETATM   22  C11 UNL     1       2.759   1.037  12.150  1.00  0.00     0.138 C 
BRANCH  22  23
HETATM   23  N4  UNL     1       3.331   1.061  10.838  1.00  0.00    -0.306 N 
ATOM     24  H4  UNL     1       3.144   0.368  10.114  1.00  0.00     0.173 HD
BRANCH  23  25
HETATM   25  S3  UNL     1       4.367   2.405  10.645  1.00  0.00     0.298 S 
HETATM   26  O1  UNL     1       4.026   3.130   9.368  1.00  0.00    -0.188 OA
HETATM   27  O2  UNL     1       4.065   3.369  11.770  1.00  0.00    -0.188 OA
BRANCH  25  28
HETATM   28  N5  UNL     1       6.027   2.030  10.707  1.00  0.00    -0.194 NA
BRANCH  28  29
HETATM   29  C12 UNL     1       6.415   0.909   9.881  1.00  0.00     0.104 C 
HETATM   30  C13 UNL     1       7.077   1.490   8.628  1.00  0.00     0.022 C 
ENDBRANCH  28  29
BRANCH  28  31
HETATM   31  C14 UNL     1       6.906   3.158  10.613  1.00  0.00     0.104 C 
HETATM   32  C15 UNL     1       7.681   3.284  11.917  1.00  0.00     0.022 C 
ENDBRANCH  28  31
ENDBRANCH  25  28
ENDBRANCH  23  25
ENDBRANCH  22  23
ENDBRANCH  21  22
ENDBRANCH  20  21
ENDBRANCH  10  20
BRANCH   1  33
HETATM   33  C4  UNL     1       8.931  -6.280  17.289  1.00  0.00     0.135 C 
BRANCH  33  34
HETATM   34  C3  UNL     1       9.979  -5.565  18.142  1.00  0.00     0.020 C 
BRANCH  34  35
HETATM   35  C2  UNL     1      11.265  -6.354  17.978  1.00  0.00    -0.003 C 
HETATM   36  C1  UNL     1      11.093  -7.714  18.581  1.00  0.00     0.005 C 
ENDBRANCH  34  35
ENDBRANCH  33  34
ENDBRANCH   1  33
TORSDOF 11
ENDMDL
MODEL 3
REMARK VINA RESULT: -7.908100032      2.724      4.012
REMARK  11 active torsions:
REMARK  status: ('A' for Active; 'I' for Inactive)
REMARK    1  A    between atoms: C2_2  and  C3_3 
REMARK    2  A    between atoms: C3_3  and  C4_4 
REMARK    3  A    between atoms: C4_4  and  N1_5 
REMARK    4  A    between atoms: N3_14  and  C9_16 
REMARK    5  A    between atoms: C9_16  and  C10_17 
REMARK    6  A    between atoms: C10_17  and  C11_18 
REMARK    7  A    between atoms: C11_18  and  N4_19 
REMARK    8  A    between atoms: N4_19  and  S3_21 
REMARK    9  A    between atoms: S3_21  and  N5_24 
REMARK   10  A    between atoms: N5_24  and  C12_25 
REMARK   11  A    between atoms: N5_24  and  C14_27 
ROOT
HETATM    1  N1  UNL     1       8.216  -3.620  16.201  1.00  0.00    -0.290 N 
HETATM    2  C5  UNL     1       8.954  -2.789  15.470  1.00  0.00     0.181 A 
HETATM    3  S1  UNL     1      10.594  -2.825  15.479  1.00  0.00    -0.040 SA
HETATM    4  N2  UNL     1       8.277  -1.910  14.718  1.00  0.00    -0.326 N 
ATOM      5  H2  UNL     1       8.784  -1.244  14.134  1.00  0.00     0.169 HD
HETATM    6  C6  UNL     1       6.920  -1.902  14.730  1.00  0.00     0.093 A 
HETATM    7  S2  UNL     1       5.767  -0.946  13.916  1.00  0.00    -0.067 SA
HETATM    8  C7  UNL     1       4.332  -1.631  14.531  1.00  0.00     0.062 A 
HETATM    9  C8  UNL     1       2.998  -1.344  14.302  1.00  0.00     0.123 A 
HETATM   10  N3  UNL     1       2.550  -0.458  13.539  1.00  0.00    -0.355 N 
ATOM     11  H3  UNL     1       1.532  -0.410  13.512  1.00  0.00     0.166 HD
HETATM   12  N6  UNL     1       2.060  -2.104  14.973  1.00  0.00    -0.351 N 
ATOM     13  H6  UNL     1       1.064  -1.934  14.841  1.00  0.00     0.166 HD
HETATM   14  C16 UNL     1       2.477  -3.054  15.791  1.00  0.00     0.090 A 
HETATM   15  C17 UNL     1       3.782  -3.337  16.016  1.00  0.00     0.031 A 
HETATM   16  C18 UNL     1       4.801  -2.606  15.369  1.00  0.00     0.005 A 
HETATM   17  C19 UNL     1       6.142  -2.747  15.472  1.00  0.00     0.078 A 
HETATM   18  C20 UNL     1       6.889  -3.658  16.252  1.00  0.00     0.263 A 
HETATM   19  O3  UNL     1       6.336  -4.505  16.994  1.00  0.00    -0.267 OA
ENDROOT
BRANCH  10  20
HETATM   20  C9  UNL     1       3.188   0.485  12.712  1.00  0.00     0.064 C 
BRANCH  20  21
HETATM   21  C10 UNL     1       2.223   1.236  11.804  1.00  0.00     0.065 C 
BRANCH  21  22
HETATM   22  C11 UNL     1       3.042   2.222  10.977  1.00  0.00     0.138 C 
BRANCH  22  23
HETATM   23  N4  UNL     1       4.047   2.839  11.790  1.00  0.00    -0.306 N 
ATOM     24  H4  UNL     1       3.890   3.188  12.735  1.00  0.00     0.173 HD
BRANCH  23  25
HETATM   25  S3  UNL     1       5.541   2.912  10.969  1.00  0.00     0.298 S 
HETATM   26  O1  UNL     1       5.302   2.971   9.482  1.00  0.00    -0.188 OA
HETATM   27  O2  UNL     1       6.194   4.224  11.342  1.00  0.00    -0.188 OA
BRANCH  25  28
HETATM   28  N5  UNL     1       6.625   1.657  11.361  1.00  0.00    -0.194 NA
BRANCH  28  29
HETATM   29  C12 UNL     1       6.660   0.581  10.398  1.00  0.00     0.104 C 
HETATM   30  C13 UNL     1       8.101   0.495   9.883  1.00  0.00     0.022 C 
ENDBRANCH  28  29
BRANCH  28  31
HETATM   31  C14 UNL     1       7.916   2.089  11.805  1.00  0.00     0.104 C 
HETATM   32  C15 UNL     1       7.984   1.953  13.319  1.00  0.00     0.022 C 
ENDBRANCH  28  31
ENDBRANCH  25  28
ENDBRANCH  23  25
ENDBRANCH  22  23
ENDBRANCH  21  22
ENDBRANCH  20  21
ENDBRANCH  10  20
BRANCH   1  33
HETATM   33  C4  UNL     1       8.960  -4.580  17.027  1.00  0.00     0.135 C 
BRANCH  33  34
HETATM   34  C3  UNL     1       9.107  -5.834  16.165  1.00  0.00     0.020 C 
BRANCH  34  35
HETATM   35  C2  UNL     1       9.794  -6.868  17.038  1.00  0.00    -0.003 C 
HETATM   36  C1  UNL     1      11.001  -6.254  17.678  1.00  0.00     0.005 C 
ENDBRANCH  34  35
ENDBRANCH  33  34
ENDBRANCH   1  33
TORSDOF 11
ENDMDL
MODEL 4
REMARK VINA RESULT: -7.899483092      2.518      3.699
REMARK  11 active torsions:
REMARK  status: ('A' for Active; 'I' for Inactive)
REMARK    1  A    between atoms: C2_2  and  C3_3 
REMARK    2  A    between atoms: C3_3  and  C4_4 
REMARK    3  A    between atoms: C4_4  and  N1_5 
REMARK    4  A    between atoms: N3_14  and  C9_16 
REMARK    5  A    between atoms: C9_16  and  C10_17 
REMARK    6  A    between atoms: C10_17  and  C11_18 
REMARK    7  A    between atoms: C11_18  and  N4_19 
REMARK    8  A    between atoms: N4_19  and  S3_21 
REMARK    9  A    between atoms: S3_21  and  N5_24 
REMARK   10  A    between atoms: N5_24  and  C12_25 
REMARK   11  A    between atoms: N5_24  and  C14_27 
ROOT
HETATM    1  N1  UNL     1       8.229  -3.689  16.292  1.00  0.00    -0.290 N 
HETATM    2  C5  UNL     1       9.037  -2.820  15.691  1.00  0.00     0.181 A 
HETATM    3  S1  UNL     1      10.671  -2.906  15.808  1.00  0.00    -0.040 SA
HETATM    4  N2  UNL     1       8.436  -1.857  14.977  1.00  0.00    -0.326 N 
ATOM      5  H2  UNL     1       8.998  -1.158  14.492  1.00  0.00     0.169 HD
HETATM    6  C6  UNL     1       7.082  -1.809  14.898  1.00  0.00     0.093 A 
HETATM    7  S2  UNL     1       6.013  -0.750  14.098  1.00  0.00    -0.067 SA
HETATM    8  C7  UNL     1       4.522  -1.442  14.550  1.00  0.00     0.062 A 
HETATM    9  C8  UNL     1       3.215  -1.095  14.258  1.00  0.00     0.123 A 
HETATM   10  N3  UNL     1       2.843  -0.132  13.550  1.00  0.00    -0.355 N 
ATOM     11  H3  UNL     1       1.830  -0.051  13.458  1.00  0.00     0.166 HD
HETATM   12  N6  UNL     1       2.214  -1.883  14.793  1.00  0.00    -0.351 N 
ATOM     13  H6  UNL     1       1.234  -1.672  14.609  1.00  0.00     0.166 HD
HETATM   14  C16 UNL     1       2.549  -2.914  15.547  1.00  0.00     0.090 A 
HETATM   15  C17 UNL     1       3.828  -3.255  15.834  1.00  0.00     0.031 A 
HETATM   16  C18 UNL     1       4.907  -2.501  15.326  1.00  0.00     0.005 A 
HETATM   17  C19 UNL     1       6.234  -2.692  15.506  1.00  0.00     0.078 A 
HETATM   18  C20 UNL     1       6.902  -3.691  16.250  1.00  0.00     0.263 A 
HETATM   19  O3  UNL     1       6.277  -4.583  16.873  1.00  0.00    -0.267 OA
ENDROOT
BRANCH  10  20
HETATM   20  C9  UNL     1       3.560   0.860  12.856  1.00  0.00     0.064 C 
BRANCH  20  21
HETATM   21  C10 UNL     1       3.743   0.545  11.378  1.00  0.00     0.065 C 
BRANCH  21  22
HETATM   22  C11 UNL     1       4.542   1.687  10.758  1.00  0.00     0.138 C 
BRANCH  22  23
HETATM   23  N4  UNL     1       5.325   2.346  11.760  1.00  0.00    -0.306 N 
ATOM     24  H4  UNL     1       4.940   2.797  12.589  1.00  0.00     0.173 HD
BRANCH  23  25
HETATM   25  S3  UNL     1       6.988   2.275  11.383  1.00  0.00     0.298 S 
HETATM   26  O1  UNL     1       7.417   3.564  10.728  1.00  0.00    -0.188 OA
HETATM   27  O2  UNL     1       7.742   2.197  12.691  1.00  0.00    -0.188 OA
BRANCH  25  28
HETATM   28  N5  UNL     1       7.441   0.932  10.436  1.00  0.00    -0.194 NA
BRANCH  28  29
HETATM   29  C12 UNL     1       8.101   1.275   9.197  1.00  0.00     0.104 C 
HETATM   30  C13 UNL     1       7.031   1.240   8.101  1.00  0.00     0.022 C 
ENDBRANCH  28  29
BRANCH  28  31
HETATM   31  C14 UNL     1       8.068  -0.134  11.159  1.00  0.00     0.104 C 
HETATM   32  C15 UNL     1       9.557  -0.130  10.841  1.00  0.00     0.022 C 
ENDBRANCH  28  31
ENDBRANCH  25  28
ENDBRANCH  23  25
ENDBRANCH  22  23
ENDBRANCH  21  22
ENDBRANCH  20  21
ENDBRANCH  10  20
BRANCH   1  33
HETATM   33  C4  UNL     1       8.891  -4.741  17.076  1.00  0.00     0.135 C 
BRANCH  33  34
HETATM   34  C3  UNL     1       9.041  -5.928  16.124  1.00  0.00     0.020 C 
BRANCH  34  35
HETATM   35  C2  UNL     1       9.651  -7.050  16.943  1.00  0.00    -0.003 C 
HETATM   36  C1  UNL     1      10.857  -6.536  17.669  1.00  0.00     0.005 C 
ENDBRANCH  34  35
ENDBRANCH  33  34
ENDBRANCH   1  33
TORSDOF 11
ENDMDL
MODEL 5
REMARK VINA RESULT: -7.829180700      2.483      3.542
REMARK  11 active torsions:
REMARK  status: ('A' for Active; 'I' for Inactive)
REMARK    1  A    between atoms: C2_2  and  C3_3 
REMARK    2  A    between atoms: C3_3  and  C4_4 
REMARK    3  A    between atoms: C4_4  and  N1_5 
REMARK    4  A    between atoms: N3_14  and  C9_16 
REMARK    5  A    between atoms: C9_16  and  C10_17 
REMARK    6  A    between atoms: C10_17  and  C11_18 
REMARK    7  A    between atoms: C11_18  and  N4_19 
REMARK    8  A    between atoms: N4_19  and  S3_21 
REMARK    9  A    between atoms: S3_21  and  N5_24 
REMARK   10  A    between atoms: N5_24  and  C12_25 
REMARK   11  A    between atoms: N5_24  and  C14_27 
ROOT
HETATM    1  N1  UNL     1       8.267  -3.699  16.317  1.00  0.00    -0.290 N 
HETATM    2  C5  UNL     1       9.079  -2.849  15.694  1.00  0.00     0.181 A 
HETATM    3  S1  UNL     1      10.713  -2.943  15.810  1.00  0.00    -0.040 SA
HETATM    4  N2  UNL     1       8.483  -1.899  14.960  1.00  0.00    -0.326 N 
ATOM      5  H2  UNL     1       9.049  -1.215  14.457  1.00  0.00     0.169 HD
HETATM    6  C6  UNL     1       7.129  -1.844  14.881  1.00  0.00     0.093 A 
HETATM    7  S2  UNL     1       6.066  -0.796  14.060  1.00  0.00    -0.067 SA
HETATM    8  C7  UNL     1       4.571  -1.468  14.529  1.00  0.00     0.062 A 
HETATM    9  C8  UNL     1       3.265  -1.120  14.231  1.00  0.00     0.123 A 
HETATM   10  N3  UNL     1       2.898  -0.170  13.502  1.00  0.00    -0.355 N 
ATOM     11  H3  UNL     1       1.886  -0.085  13.411  1.00  0.00     0.166 HD
HETATM   12  N6  UNL     1       2.260  -1.889  14.786  1.00  0.00    -0.351 N 
ATOM     13  H6  UNL     1       1.281  -1.676  14.599  1.00  0.00     0.166 HD
HETATM   14  C16 UNL     1       2.590  -2.904  15.563  1.00  0.00     0.090 A 
HETATM   15  C17 UNL     1       3.868  -3.247  15.856  1.00  0.00     0.031 A 
HETATM   16  C18 UNL     1       4.951  -2.512  15.329  1.00  0.00     0.005 A 
HETATM   17  C19 UNL     1       6.276  -2.707  15.511  1.00  0.00     0.078 A 
HETATM   18  C20 UNL     1       6.939  -3.693  16.276  1.00  0.00     0.263 A 
HETATM   19  O3  UNL     1       6.310  -4.567  16.921  1.00  0.00    -0.267 OA
ENDROOT
BRANCH  10  20
HETATM   20  C9  UNL     1       3.621   0.801  12.785  1.00  0.00     0.064 C 
BRANCH  20  21
HETATM   21  C10 UNL     1       3.745   0.481  11.302  1.00  0.00     0.065 C 
BRANCH  21  22
HETATM   22  C11 UNL     1       4.694   1.506  10.688  1.00  0.00     0.138 C 
BRANCH  22  23
HETATM   23  N4  UNL     1       5.877   1.629  11.486  1.00  0.00    -0.306 N 
ATOM     24  H4  UNL     1       6.019   1.163  12.382  1.00  0.00     0.173 HD
BRANCH  23  25
HETATM   25  S3  UNL     1       7.017   2.657  10.740  1.00  0.00     0.298 S 
HETATM   26  O1  UNL     1       6.320   3.879  10.198  1.00  0.00    -0.188 OA
HETATM   27  O2  UNL     1       7.952   3.150  11.821  1.00  0.00    -0.188 OA
BRANCH  25  28
HETATM   28  N5  UNL     1       7.959   1.909   9.533  1.00  0.00    -0.194 NA
BRANCH  28  29
HETATM   29  C12 UNL     1       8.048   0.472   9.655  1.00  0.00     0.104 C 
HETATM   30  C13 UNL     1       9.260   0.177  10.545  1.00  0.00     0.022 C 
ENDBRANCH  28  29
BRANCH  28  31
HETATM   31  C14 UNL     1       7.711   2.369   8.200  1.00  0.00     0.104 C 
HETATM   32  C15 UNL     1       6.990   1.272   7.430  1.00  0.00     0.022 C 
ENDBRANCH  28  31
ENDBRANCH  25  28
ENDBRANCH  23  25
ENDBRANCH  22  23
ENDBRANCH  21  22
ENDBRANCH  20  21
ENDBRANCH  10  20
BRANCH   1  33
HETATM   33  C4  UNL     1       8.923  -4.737  17.123  1.00  0.00     0.135 C 
BRANCH  33  34
HETATM   34  C3  UNL     1       9.007  -5.966  16.219  1.00  0.00     0.020 C 
BRANCH  34  35
HETATM   35  C2  UNL     1       9.779  -7.013  17.000  1.00  0.00    -0.003 C 
HETATM   36  C1  UNL     1      10.893  -6.349  17.752  1.00  0.00     0.005 C 
ENDBRANCH  34  35
ENDBRANCH  33  34
ENDBRANCH   1  33
TORSDOF 11
ENDMDL
