MODEL 1
REMARK VINA RESULT: -8.468938704      0.000      0.000
REMARK  11 active torsions:
REMARK  status: ('A' for Active; 'I' for Inactive)
REMARK    1  A    between atoms: N1_2  and  S1_4 
REMARK    2  A    between atoms: S1_4  and  N2_7 
REMARK    3  A    between atoms: N2_7  and  C3_9 
REMARK    4  A    between atoms: C5_11  and  C6_12 
REMARK    5  A    between atoms: C6_12  and  C7_13 
REMARK    6  A    between atoms: C7_13  and  N3_14 
REMARK    7  A    between atoms: N3_14  and  C8_16 
REMARK    8  A    between atoms: C11_21  and  N5_22 
REMARK    9  A    between atoms: N5_22  and  C12_24 
REMARK   10  A    between atoms: C12_24  and  C13_25 
REMARK   11  A    between atoms: C13_25  and  C14_26 
ROOT
HETATM    1  C8  UNL     1      16.340 -12.987  19.504  1.00  0.00     0.118 A 
HETATM    2  C9  UNL     1      15.831 -12.765  18.238  1.00  0.00     0.066 A 
HETATM    3  C10 UNL     1      14.604 -13.260  17.896  1.00  0.00     0.110 A 
HETATM    4  N4  UNL     1      13.927 -13.959  18.835  1.00  0.00    -0.202 N 
ATOM      5  H4  UNL     1      13.009 -14.340  18.609  1.00  0.00     0.183 HD
HETATM    6  C11 UNL     1      14.441 -14.163  20.062  1.00  0.00     0.679 A 
HETATM    7  N6  UNL     1      15.638 -13.681  20.397  1.00  0.00    -0.177 N 
ATOM      8  H6  UNL     1      16.014 -13.844  21.331  1.00  0.00     0.185 HD
ENDROOT
BRANCH   1   9
HETATM    9  N3  UNL     1      17.495 -12.519  19.826  1.00  0.00    -0.376 N 
ATOM     10  H3  UNL     1      17.558 -11.693  20.420  1.00  0.00     0.161 HD
BRANCH   9  11
HETATM   11  C7  UNL     1      18.708 -13.155  19.351  1.00  0.00     0.126 C 
BRANCH  11  12
HETATM   12  C6  UNL     1      19.647 -13.232  20.544  1.00  0.00     0.060 C 
BRANCH  12  13
HETATM   13  C5  UNL     1      19.274 -14.331  21.459  1.00  0.00    -0.039 A 
HETATM   14  C4  UNL     1      19.322 -14.213  22.907  1.00  0.00     0.040 A 
HETATM   15  C3  UNL     1      18.985 -15.200  23.734  1.00  0.00     0.059 A 
HETATM   16  C21 UNL     1      18.552 -16.449  23.115  1.00  0.00     0.117 A 
HETATM   17  N7  UNL     1      18.504 -16.569  21.831  1.00  0.00    -0.373 N 
HETATM   18  C20 UNL     1      18.874 -15.485  20.954  1.00  0.00     0.095 A 
ATOM     19  H7  UNL     1      18.198 -17.454  21.425  1.00  0.00     0.164 HD
BRANCH  15  20
HETATM   20  N2  UNL     1      19.043 -15.053  25.147  1.00  0.00    -0.267 N 
ATOM     21  H2  UNL     1      18.200 -15.149  25.713  1.00  0.00     0.180 HD
BRANCH  20  22
HETATM   22  S1  UNL     1      20.544 -14.715  25.877  1.00  0.00     0.320 S 
HETATM   23  O1  UNL     1      20.668 -13.204  26.006  1.00  0.00    -0.182 OA
HETATM   24  O2  UNL     1      20.492 -15.238  27.291  1.00  0.00    -0.182 OA
BRANCH  22  25
HETATM   25  N1  UNL     1      21.897 -15.271  25.030  1.00  0.00    -0.303 N 
HETATM   26  C1  UNL     1      22.886 -14.307  24.697  1.00  0.00     0.163 C 
HETATM   27  C2  UNL     1      22.365 -16.576  25.357  1.00  0.00     0.163 C 
ENDBRANCH  22  25
ENDBRANCH  20  22
ENDBRANCH  15  20
ENDBRANCH  12  13
ENDBRANCH  11  12
ENDBRANCH   9  11
ENDBRANCH   1   9
BRANCH   6  28
HETATM   28  N5  UNL     1      13.759 -14.836  20.925  1.00  0.00    -0.226 N 
ATOM     29  H5  UNL     1      13.566 -15.823  20.755  1.00  0.00     0.177 HD
BRANCH  28  30
HETATM   30  C12 UNL     1      13.257 -14.202  22.147  1.00  0.00     0.142 C 
BRANCH  30  31
HETATM   31  C13 UNL     1      11.936 -13.534  21.857  1.00  0.00     0.058 C 
BRANCH  31  32
HETATM   32  C14 UNL     1      11.927 -12.243  22.613  1.00  0.00    -0.057 A 
HETATM   33  C15 UNL     1      12.698 -11.167  22.255  1.00  0.00     0.009 A 
HETATM   34  C16 UNL     1      12.662 -10.009  22.974  1.00  0.00     0.024 A 
HETATM   35  C17 UNL     1      11.838  -9.933  24.067  1.00  0.00     0.034 A 
HETATM   36 CL1  UNL     1      11.843  -8.401  24.948  1.00  0.00    -0.084 Cl
HETATM   37  C18 UNL     1      11.062 -10.992  24.441  1.00  0.00     0.024 A 
HETATM   38  C19 UNL     1      11.103 -12.168  23.707  1.00  0.00     0.009 A 
ENDBRANCH  31  32
ENDBRANCH  30  31
ENDBRANCH  28  30
ENDBRANCH   6  28
TORSDOF 11
ENDMDL
MODEL 2
REMARK VINA RESULT: -8.222916852      3.105      4.688
REMARK  11 active torsions:
REMARK  status: ('A' for Active; 'I' for Inactive)
REMARK    1  A    between atoms: N1_2  and  S1_4 
REMARK    2  A    between atoms: S1_4  and  N2_7 
REMARK    3  A    between atoms: N2_7  and  C3_9 
REMARK    4  A    between atoms: C5_11  and  C6_12 
REMARK    5  A    between atoms: C6_12  and  C7_13 
REMARK    6  A    between atoms: C7_13  and  N3_14 
REMARK    7  A    between atoms: N3_14  and  C8_16 
REMARK    8  A    between atoms: C11_21  and  N5_22 
REMARK    9  A    between atoms: N5_22  and  C12_24 
REMARK   10  A    between atoms: C12_24  and  C13_25 
REMARK   11  A    between atoms: C13_25  and  C14_26 
ROOT
HETATM    1  C8  UNL     1      14.152 -11.696  21.276  1.00  0.00     0.118 A 
HETATM    2  C9  UNL     1      13.310 -10.631  21.544  1.00  0.00     0.066 A 
HETATM    3  C10 UNL     1      12.106 -10.846  22.153  1.00  0.00     0.110 A 
HETATM    4  N4  UNL     1      11.786 -12.119  22.475  1.00  0.00    -0.202 N 
ATOM      5  H4  UNL     1      10.894 -12.310  22.931  1.00  0.00     0.183 HD
HETATM    6  C11 UNL     1      12.619 -13.141  22.206  1.00  0.00     0.679 A 
HETATM    7  N6  UNL     1      13.795 -12.933  21.611  1.00  0.00    -0.177 N 
ATOM      8  H6  UNL     1      14.416 -13.717  21.413  1.00  0.00     0.185 HD
ENDROOT
BRANCH   1   9
HETATM    9  N3  UNL     1      15.286 -11.492  20.704  1.00  0.00    -0.376 N 
ATOM     10  H3  UNL     1      15.636 -10.539  20.599  1.00  0.00     0.161 HD
BRANCH   9  11
HETATM   11  C7  UNL     1      16.073 -12.603  20.205  1.00  0.00     0.126 C 
BRANCH  11  12
HETATM   12  C6  UNL     1      17.470 -12.430  20.779  1.00  0.00     0.060 C 
BRANCH  12  13
HETATM   13  C5  UNL     1      17.795 -13.499  21.746  1.00  0.00    -0.039 A 
HETATM   14  C4  UNL     1      19.152 -13.798  22.177  1.00  0.00     0.040 A 
HETATM   15  C3  UNL     1      19.448 -14.758  23.049  1.00  0.00     0.059 A 
HETATM   16  C21 UNL     1      18.326 -15.528  23.576  1.00  0.00     0.117 A 
HETATM   17  N7  UNL     1      17.116 -15.275  23.204  1.00  0.00    -0.373 N 
HETATM   18  C20 UNL     1      16.818 -14.228  22.257  1.00  0.00     0.095 A 
ATOM     19  H7  UNL     1      16.351 -15.829  23.589  1.00  0.00     0.164 HD
BRANCH  15  20
HETATM   20  N2  UNL     1      20.785 -15.027  23.450  1.00  0.00    -0.267 N 
ATOM     21  H2  UNL     1      21.442 -15.466  22.805  1.00  0.00     0.180 HD
BRANCH  20  22
HETATM   22  S1  UNL     1      21.271 -14.600  25.026  1.00  0.00     0.320 S 
HETATM   23  O1  UNL     1      22.690 -14.057  24.944  1.00  0.00    -0.182 OA
HETATM   24  O2  UNL     1      20.418 -13.437  25.468  1.00  0.00    -0.182 OA
BRANCH  22  25
HETATM   25  N1  UNL     1      21.270 -15.867  26.146  1.00  0.00    -0.303 N 
HETATM   26  C1  UNL     1      20.053 -16.108  26.839  1.00  0.00     0.163 C 
HETATM   27  C2  UNL     1      22.055 -17.009  25.820  1.00  0.00     0.163 C 
ENDBRANCH  22  25
ENDBRANCH  20  22
ENDBRANCH  15  20
ENDBRANCH  12  13
ENDBRANCH  11  12
ENDBRANCH   9  11
ENDBRANCH   1   9
BRANCH   6  28
HETATM   28  N5  UNL     1      12.271 -14.339  22.531  1.00  0.00    -0.226 N 
ATOM     29  H5  UNL     1      11.513 -14.478  23.198  1.00  0.00     0.177 HD
BRANCH  28  30
HETATM   30  C12 UNL     1      12.950 -15.503  21.955  1.00  0.00     0.142 C 
BRANCH  30  31
HETATM   31  C13 UNL     1      12.031 -16.179  20.968  1.00  0.00     0.058 C 
BRANCH  31  32
HETATM   32  C14 UNL     1      12.789 -16.299  19.682  1.00  0.00    -0.057 A 
HETATM   33  C15 UNL     1      13.639 -15.323  19.228  1.00  0.00     0.009 A 
HETATM   34  C16 UNL     1      14.308 -15.471  18.049  1.00  0.00     0.024 A 
HETATM   35  C17 UNL     1      14.120 -16.617  17.320  1.00  0.00     0.034 A 
HETATM   36 CL1  UNL     1      15.021 -16.738  15.805  1.00  0.00    -0.084 Cl
HETATM   37  C18 UNL     1      13.279 -17.600  17.754  1.00  0.00     0.024 A 
HETATM   38  C19 UNL     1      12.600 -17.445  18.953  1.00  0.00     0.009 A 
ENDBRANCH  31  32
ENDBRANCH  30  31
ENDBRANCH  28  30
ENDBRANCH   6  28
TORSDOF 11
ENDMDL
MODEL 3
REMARK VINA RESULT: -8.221195994      1.446      1.547
REMARK  11 active torsions:
REMARK  status: ('A' for Active; 'I' for Inactive)
REMARK    1  A    between atoms: N1_2  and  S1_4 
REMARK    2  A    between atoms: S1_4  and  N2_7 
REMARK    3  A    between atoms: N2_7  and  C3_9 
REMARK    4  A    between atoms: C5_11  and  C6_12 
REMARK    5  A    between atoms: C6_12  and  C7_13 
REMARK    6  A    between atoms: C7_13  and  N3_14 
REMARK    7  A    between atoms: N3_14  and  C8_16 
REMARK    8  A    between atoms: C11_21  and  N5_22 
REMARK    9  A    between atoms: N5_22  and  C12_24 
REMARK   10  A    between atoms: C12_24  and  C13_25 
REMARK   11  A    between atoms: C13_25  and  C14_26 
ROOT
HETATM    1  C8  UNL     1      16.611 -12.911  18.890  1.00  0.00     0.118 A 
HETATM    2  C9  UNL     1      16.210 -12.392  17.672  1.00  0.00     0.066 A 
HETATM    3  C10 UNL     1      14.903 -12.485  17.285  1.00  0.00     0.110 A 
HETATM    4  N4  UNL     1      14.041 -13.092  18.131  1.00  0.00    -0.202 N 
ATOM      5  H4  UNL     1      13.059 -13.176  17.869  1.00  0.00     0.183 HD
HETATM    6  C11 UNL     1      14.452 -13.590  19.312  1.00  0.00     0.679 A 
HETATM    7  N6  UNL     1      15.728 -13.501  19.691  1.00  0.00    -0.177 N 
ATOM      8  H6  UNL     1      16.024 -13.882  20.589  1.00  0.00     0.185 HD
ENDROOT
BRANCH   1   9
HETATM    9  N3  UNL     1      17.843 -12.822  19.254  1.00  0.00    -0.376 N 
ATOM     10  H3  UNL     1      18.584 -12.966  18.568  1.00  0.00     0.161 HD
BRANCH   9  11
HETATM   11  C7  UNL     1      18.187 -12.519  20.629  1.00  0.00     0.126 C 
BRANCH  11  12
HETATM   12  C6  UNL     1      19.265 -13.512  21.030  1.00  0.00     0.060 C 
BRANCH  12  13
HETATM   13  C5  UNL     1      18.941 -14.179  22.308  1.00  0.00    -0.039 A 
HETATM   14  C4  UNL     1      19.932 -14.459  23.334  1.00  0.00     0.040 A 
HETATM   15  C3  UNL     1      19.642 -15.059  24.486  1.00  0.00     0.059 A 
HETATM   16  C21 UNL     1      18.248 -15.439  24.691  1.00  0.00     0.117 A 
HETATM   17  N7  UNL     1      17.357 -15.197  23.790  1.00  0.00    -0.373 N 
HETATM   18  C20 UNL     1      17.694 -14.546  22.547  1.00  0.00     0.095 A 
ATOM     19  H7  UNL     1      16.390 -15.474  23.959  1.00  0.00     0.164 HD
BRANCH  15  20
HETATM   20  N2  UNL     1      20.635 -15.319  25.471  1.00  0.00    -0.267 N 
ATOM     21  H2  UNL     1      20.639 -14.804  26.351  1.00  0.00     0.180 HD
BRANCH  20  22
HETATM   22  S1  UNL     1      21.815 -16.507  25.154  1.00  0.00     0.320 S 
HETATM   23  O1  UNL     1      22.179 -17.163  26.477  1.00  0.00    -0.182 OA
HETATM   24  O2  UNL     1      21.163 -17.590  24.331  1.00  0.00    -0.182 OA
BRANCH  22  25
HETATM   25  N1  UNL     1      23.242 -15.932  24.454  1.00  0.00    -0.303 N 
HETATM   26  C1  UNL     1      23.400 -14.522  24.387  1.00  0.00     0.163 C 
HETATM   27  C2  UNL     1      24.422 -16.695  24.688  1.00  0.00     0.163 C 
ENDBRANCH  22  25
ENDBRANCH  20  22
ENDBRANCH  15  20
ENDBRANCH  12  13
ENDBRANCH  11  12
ENDBRANCH   9  11
ENDBRANCH   1   9
BRANCH   6  28
HETATM   28  N5  UNL     1      13.595 -14.161  20.086  1.00  0.00    -0.226 N 
ATOM     29  H5  UNL     1      12.993 -14.896  19.715  1.00  0.00     0.177 HD
BRANCH  28  30
HETATM   30  C12 UNL     1      13.471 -13.767  21.493  1.00  0.00     0.142 C 
BRANCH  30  31
HETATM   31  C13 UNL     1      12.022 -13.493  21.810  1.00  0.00     0.058 C 
BRANCH  31  32
HETATM   32  C14 UNL     1      11.982 -12.210  22.580  1.00  0.00    -0.057 A 
HETATM   33  C15 UNL     1      12.708 -11.104  22.219  1.00  0.00     0.009 A 
HETATM   34  C16 UNL     1      12.644  -9.956  22.950  1.00  0.00     0.024 A 
HETATM   35  C17 UNL     1      11.838  -9.920  24.058  1.00  0.00     0.034 A 
HETATM   36 CL1  UNL     1      11.805  -8.397  24.955  1.00  0.00    -0.084 Cl
HETATM   37  C18 UNL     1      11.106 -11.009  24.435  1.00  0.00     0.024 A 
HETATM   38  C19 UNL     1      11.175 -12.175  23.689  1.00  0.00     0.009 A 
ENDBRANCH  31  32
ENDBRANCH  30  31
ENDBRANCH  28  30
ENDBRANCH   6  28
TORSDOF 11
ENDMDL
MODEL 4
REMARK VINA RESULT: -8.160841624      1.587      1.820
REMARK  11 active torsions:
REMARK  status: ('A' for Active; 'I' for Inactive)
REMARK    1  A    between atoms: N1_2  and  S1_4 
REMARK    2  A    between atoms: S1_4  and  N2_7 
REMARK    3  A    between atoms: N2_7  and  C3_9 
REMARK    4  A    between atoms: C5_11  and  C6_12 
REMARK    5  A    between atoms: C6_12  and  C7_13 
REMARK    6  A    between atoms: C7_13  and  N3_14 
REMARK    7  A    between atoms: N3_14  and  C8_16 
REMARK    8  A    between atoms: C11_21  and  N5_22 
REMARK    9  A    between atoms: N5_22  and  C12_24 
REMARK   10  A    between atoms: C12_24  and  C13_25 
REMARK   11  A    between atoms: C13_25  and  C14_26 
ROOT
HETATM    1  C8  UNL     1      16.711 -12.703  18.413  1.00  0.00     0.118 A 
HETATM    2  C9  UNL     1      16.463 -12.337  17.102  1.00  0.00     0.066 A 
HETATM    3  C10 UNL     1      15.179 -12.265  16.642  1.00  0.00     0.110 A 
HETATM    4  N4  UNL     1      14.185 -12.560  17.511  1.00  0.00    -0.202 N 
ATOM      5  H4  UNL     1      13.216 -12.514  17.195  1.00  0.00     0.183 HD
HETATM    6  C11 UNL     1      14.448 -12.914  18.782  1.00  0.00     0.679 A 
HETATM    7  N6  UNL     1      15.701 -12.985  19.233  1.00  0.00    -0.177 N 
ATOM      8  H6  UNL     1      15.884 -13.255  20.199  1.00  0.00     0.185 HD
ENDROOT
BRANCH   1   9
HETATM    9  N3  UNL     1      17.921 -12.770  18.846  1.00  0.00    -0.376 N 
ATOM     10  H3  UNL     1      18.694 -12.800  18.181  1.00  0.00     0.161 HD
BRANCH   9  11
HETATM   11  C7  UNL     1      18.197 -12.802  20.268  1.00  0.00     0.126 C 
BRANCH  11  12
HETATM   12  C6  UNL     1      19.077 -14.018  20.507  1.00  0.00     0.060 C 
BRANCH  12  13
HETATM   13  C5  UNL     1      18.753 -14.679  21.788  1.00  0.00    -0.039 A 
HETATM   14  C4  UNL     1      19.673 -15.567  22.481  1.00  0.00     0.040 A 
HETATM   15  C3  UNL     1      19.385 -16.163  23.636  1.00  0.00     0.059 A 
HETATM   16  C21 UNL     1      18.068 -15.887  24.201  1.00  0.00     0.117 A 
HETATM   17  N7  UNL     1      17.241 -15.101  23.598  1.00  0.00    -0.373 N 
HETATM   18  C20 UNL     1      17.575 -14.465  22.347  1.00  0.00     0.095 A 
ATOM     19  H7  UNL     1      16.327 -14.925  24.016  1.00  0.00     0.164 HD
BRANCH  15  20
HETATM   20  N2  UNL     1      20.306 -17.027  24.289  1.00  0.00    -0.267 N 
ATOM     21  H2  UNL     1      20.047 -17.987  24.516  1.00  0.00     0.180 HD
BRANCH  20  22
HETATM   22  S1  UNL     1      21.852 -16.429  24.687  1.00  0.00     0.320 S 
HETATM   23  O1  UNL     1      22.264 -17.053  26.011  1.00  0.00    -0.182 OA
HETATM   24  O2  UNL     1      22.825 -16.966  23.667  1.00  0.00    -0.182 OA
BRANCH  22  25
HETATM   25  N1  UNL     1      21.951 -14.750  24.856  1.00  0.00    -0.303 N 
HETATM   26  C1  UNL     1      21.263 -14.175  25.958  1.00  0.00     0.163 C 
HETATM   27  C2  UNL     1      23.185 -14.142  24.487  1.00  0.00     0.163 C 
ENDBRANCH  22  25
ENDBRANCH  20  22
ENDBRANCH  15  20
ENDBRANCH  12  13
ENDBRANCH  11  12
ENDBRANCH   9  11
ENDBRANCH   1   9
BRANCH   6  28
HETATM   28  N5  UNL     1      13.468 -13.186  19.574  1.00  0.00    -0.226 N 
ATOM     29  H5  UNL     1      12.543 -13.369  19.185  1.00  0.00     0.177 HD
BRANCH  28  30
HETATM   30  C12 UNL     1      13.664 -13.236  21.025  1.00  0.00     0.142 C 
BRANCH  30  31
HETATM   31  C13 UNL     1      12.323 -13.354  21.707  1.00  0.00     0.058 C 
BRANCH  31  32
HETATM   32  C14 UNL     1      12.148 -12.120  22.536  1.00  0.00    -0.057 A 
HETATM   33  C15 UNL     1      12.858 -10.968  22.312  1.00  0.00     0.009 A 
HETATM   34  C16 UNL     1      12.669  -9.867  23.092  1.00  0.00     0.024 A 
HETATM   35  C17 UNL     1      11.752  -9.925  24.110  1.00  0.00     0.034 A 
HETATM   36 CL1  UNL     1      11.560  -8.459  25.078  1.00  0.00    -0.084 Cl
HETATM   37  C18 UNL     1      11.035 -11.062  24.351  1.00  0.00     0.024 A 
HETATM   38  C19 UNL     1      11.231 -12.180  23.554  1.00  0.00     0.009 A 
ENDBRANCH  31  32
ENDBRANCH  30  31
ENDBRANCH  28  30
ENDBRANCH   6  28
TORSDOF 11
ENDMDL
MODEL 5
REMARK VINA RESULT: -8.152869172      3.457      5.531
REMARK  11 active torsions:
REMARK  status: ('A' for Active; 'I' for Inactive)
REMARK    1  A    between atoms: N1_2  and  S1_4 
REMARK    2  A    between atoms: S1_4  and  N2_7 
REMARK    3  A    between atoms: N2_7  and  C3_9 
REMARK    4  A    between atoms: C5_11  and  C6_12 
REMARK    5  A    between atoms: C6_12  and  C7_13 
REMARK    6  A    between atoms: C7_13  and  N3_14 
REMARK    7  A    between atoms: N3_14  and  C8_16 
REMARK    8  A    between atoms: C11_21  and  N5_22 
REMARK    9  A    between atoms: N5_22  and  C12_24 
REMARK   10  A    between atoms: C12_24  and  C13_25 
REMARK   11  A    between atoms: C13_25  and  C14_26 
ROOT
HETATM    1  C8  UNL     1      16.556 -16.575  22.098  1.00  0.00     0.118 A 
HETATM    2  C9  UNL     1      16.691 -17.537  21.114  1.00  0.00     0.066 A 
HETATM    3  C10 UNL     1      15.644 -17.819  20.282  1.00  0.00     0.110 A 
HETATM    4  N4  UNL     1      14.497 -17.126  20.464  1.00  0.00    -0.202 N 
ATOM      5  H4  UNL     1      13.699 -17.315  19.858  1.00  0.00     0.183 HD
HETATM    6  C11 UNL     1      14.386 -16.194  21.428  1.00  0.00     0.679 A 
HETATM    7  N6  UNL     1      15.407 -15.918  22.240  1.00  0.00    -0.177 N 
ATOM      8  H6  UNL     1      15.308 -15.209  22.966  1.00  0.00     0.185 HD
ENDROOT
BRANCH   1   9
HETATM    9  N3  UNL     1      17.543 -16.309  22.880  1.00  0.00    -0.376 N 
ATOM     10  H3  UNL     1      18.311 -16.975  22.969  1.00  0.00     0.161 HD
BRANCH   9  11
HETATM   11  C7  UNL     1      17.577 -15.072  23.634  1.00  0.00     0.126 C 
BRANCH  11  12
HETATM   12  C6  UNL     1      18.793 -14.303  23.144  1.00  0.00     0.060 C 
BRANCH  12  13
HETATM   13  C5  UNL     1      18.607 -13.818  21.760  1.00  0.00    -0.039 A 
HETATM   14  C4  UNL     1      17.408 -13.129  21.312  1.00  0.00     0.040 A 
HETATM   15  C3  UNL     1      17.239 -12.690  20.067  1.00  0.00     0.059 A 
HETATM   16  C21 UNL     1      18.335 -12.934  19.135  1.00  0.00     0.117 A 
HETATM   17  N7  UNL     1      19.406 -13.545  19.518  1.00  0.00    -0.373 N 
HETATM   18  C20 UNL     1      19.568 -14.011  20.874  1.00  0.00     0.095 A 
ATOM     19  H7  UNL     1      20.157 -13.701  18.845  1.00  0.00     0.164 HD
BRANCH  15  20
HETATM   20  N2  UNL     1      16.054 -12.019  19.659  1.00  0.00    -0.267 N 
ATOM     21  H2  UNL     1      15.875 -11.058  19.951  1.00  0.00     0.180 HD
BRANCH  20  22
HETATM   22  S1  UNL     1      14.938 -12.848  18.673  1.00  0.00     0.320 S 
HETATM   23  O1  UNL     1      15.005 -14.323  19.035  1.00  0.00    -0.182 OA
HETATM   24  O2  UNL     1      13.554 -12.396  19.070  1.00  0.00    -0.182 OA
BRANCH  22  25
HETATM   25  N1  UNL     1      15.210 -12.713  17.010  1.00  0.00    -0.303 N 
HETATM   26  C1  UNL     1      16.147 -11.731  16.591  1.00  0.00     0.163 C 
HETATM   27  C2  UNL     1      15.173 -13.921  16.256  1.00  0.00     0.163 C 
ENDBRANCH  22  25
ENDBRANCH  20  22
ENDBRANCH  15  20
ENDBRANCH  12  13
ENDBRANCH  11  12
ENDBRANCH   9  11
ENDBRANCH   1   9
BRANCH   6  28
HETATM   28  N5  UNL     1      13.273 -15.560  21.564  1.00  0.00    -0.226 N 
ATOM     29  H5  UNL     1      12.410 -15.977  21.216  1.00  0.00     0.177 HD
BRANCH  28  30
HETATM   30  C12 UNL     1      13.229 -14.246  22.212  1.00  0.00     0.142 C 
BRANCH  30  31
HETATM   31  C13 UNL     1      11.916 -13.575  21.891  1.00  0.00     0.058 C 
BRANCH  31  32
HETATM   32  C14 UNL     1      11.880 -12.298  22.672  1.00  0.00    -0.057 A 
HETATM   33  C15 UNL     1      11.084 -12.124  23.775  1.00  0.00     0.009 A 
HETATM   34  C16 UNL     1      11.080 -10.943  24.456  1.00  0.00     0.024 A 
HETATM   35  C17 UNL     1      11.889  -9.925  24.021  1.00  0.00     0.034 A 
HETATM   36 CL1  UNL     1      11.832  -8.425  24.955  1.00  0.00    -0.084 Cl
HETATM   37  C18 UNL     1      12.689 -10.076  22.926  1.00  0.00     0.024 A 
HETATM   38  C19 UNL     1      12.689 -11.279  22.236  1.00  0.00     0.009 A 
ENDBRANCH  31  32
ENDBRANCH  30  31
ENDBRANCH  28  30
ENDBRANCH   6  28
TORSDOF 11
ENDMDL
