MODEL 1
REMARK VINA RESULT: -7.475311577      0.000      0.000
REMARK  11 active torsions:
REMARK  status: ('A' for Active; 'I' for Inactive)
REMARK    1  A    between atoms: C2_2  and  C3_3 
REMARK    2  A    between atoms: C3_3  and  C4_4 
REMARK    3  A    between atoms: C4_4  and  N1_5 
REMARK    4  A    between atoms: C6_7  and  C7_8 
REMARK    5  A    between atoms: N2_9  and  N3_11 
REMARK    6  A    between atoms: C8_14  and  C9_15 
REMARK    7  A    between atoms: C15_24  and  C16_25 
REMARK    8  A    between atoms: C16_25  and  C17_26 
REMARK    9  A    between atoms: C17_26  and  C18_27 
REMARK   10  A    between atoms: C17_26  and  N6_36 
REMARK   11  A    between atoms: C20_33  and  O3_34 
ROOT
HETATM    1  N1  UNL     1      15.949 -16.596  20.717  1.00  0.00    -0.346 N 
HETATM    2  C5  UNL     1      17.081 -17.276  20.867  1.00  0.00     0.107 A 
HETATM    3  C6  UNL     1      17.956 -17.084  21.980  1.00  0.00     0.024 A 
HETATM    4  C8  UNL     1      17.561 -16.155  22.867  1.00  0.00     0.057 A 
HETATM    5  N4  UNL     1      16.400 -15.494  22.677  1.00  0.00    -0.344 N 
ATOM      6  H4  UNL     1      16.128 -14.801  23.374  1.00  0.00     0.167 HD
HETATM    7  C15 UNL     1      15.559 -15.691  21.606  1.00  0.00     0.086 A 
ENDROOT
BRANCH   7   8
HETATM    8  C16 UNL     1      14.296 -14.930  21.612  1.00  0.00     0.117 C 
BRANCH   8   9
HETATM    9  C17 UNL     1      14.316 -13.448  21.542  1.00  0.00     0.257 C 
BRANCH   9  10
HETATM   10  C18 UNL     1      14.987 -13.129  20.203  1.00  0.00     0.140 A 
HETATM   11  O1  UNL     1      14.592 -13.503  19.011  1.00  0.00    -0.259 OA
HETATM   12  C19 UNL     1      15.356 -13.074  18.067  1.00  0.00     0.371 A 
HETATM   13  O2  UNL     1      15.154 -13.321  16.834  1.00  0.00    -0.238 OA
HETATM   14  N5  UNL     1      16.323 -12.372  18.649  1.00  0.00    -0.281 N 
HETATM   15  C20 UNL     1      16.109 -12.396  20.005  1.00  0.00     0.177 A 
ATOM     16  H5  UNL     1      17.090 -11.899  18.172  1.00  0.00     0.173 HD
BRANCH  15  17
HETATM   17  O3  UNL     1      16.985 -11.742  20.868  1.00  0.00    -0.344 OA
ATOM     18  H3  UNL     1      17.924 -11.791  21.002  1.00  0.00     0.219 HD
ENDBRANCH  15  17
ENDBRANCH   9  10
BRANCH   9  19
HETATM   19  N6  UNL     1      13.056 -12.763  21.527  1.00  0.00    -0.068 N 
HETATM   20  C21 UNL     1      13.096 -11.540  20.693  1.00  0.00     0.272 C 
HETATM   21  C22 UNL     1      12.597 -12.267  22.805  1.00  0.00     0.272 C 
HETATM   22  C23 UNL     1      12.007 -13.621  20.979  1.00  0.00     0.272 C 
ENDBRANCH   9  19
ENDBRANCH   8   9
ENDBRANCH   7   8
BRANCH   1  23
HETATM   23  C4  UNL     1      15.201 -16.800  19.467  1.00  0.00     0.130 C 
BRANCH  23  24
HETATM   24  C3  UNL     1      14.480 -18.129  19.484  1.00  0.00     0.020 C 
BRANCH  24  25
HETATM   25  C2  UNL     1      12.997 -17.809  19.497  1.00  0.00    -0.003 C 
HETATM   26  C1  UNL     1      12.675 -16.597  18.696  1.00  0.00     0.005 C 
ENDBRANCH  24  25
ENDBRANCH  23  24
ENDBRANCH   1  23
BRANCH   4  27
HETATM   27  C9  UNL     1      18.403 -15.673  23.983  1.00  0.00    -0.008 A 
HETATM   28  C10 UNL     1      19.277 -14.620  23.818  1.00  0.00     0.015 A 
HETATM   29  C11 UNL     1      20.010 -14.191  24.911  1.00  0.00     0.024 A 
HETATM   30  C12 UNL     1      19.896 -14.777  26.152  1.00  0.00     0.034 A 
HETATM   31 CL1  UNL     1      20.854 -14.206  27.519  1.00  0.00    -0.084 Cl
HETATM   32  C13 UNL     1      19.018 -15.834  26.316  1.00  0.00     0.024 A 
HETATM   33  C14 UNL     1      18.274 -16.271  25.209  1.00  0.00     0.015 A 
ENDBRANCH   4  27
BRANCH   3  34
HETATM   34  C7  UNL     1      18.976 -18.070  22.130  1.00  0.00     0.121 C 
HETATM   35  N2  UNL     1      20.078 -18.400  21.686  1.00  0.00    -0.318 N 
ATOM     36  H2  UNL     1      20.443 -19.240  22.133  1.00  0.00     0.185 HD
BRANCH  35  37
HETATM   37  N3  UNL     1      20.928 -17.899  20.729  1.00  0.00    -0.345 N 
ATOM     38  H32 UNL     1      20.443 -17.253  20.106  1.00  0.00     0.176 HD
ATOM     39  H31 UNL     1      21.915 -18.026  20.506  1.00  0.00     0.176 HD
ENDBRANCH  35  37
ENDBRANCH   3  34
TORSDOF 11
ENDMDL
MODEL 2
REMARK VINA RESULT: -7.301986757      2.294      3.879
REMARK  11 active torsions:
REMARK  status: ('A' for Active; 'I' for Inactive)
REMARK    1  A    between atoms: C2_2  and  C3_3 
REMARK    2  A    between atoms: C3_3  and  C4_4 
REMARK    3  A    between atoms: C4_4  and  N1_5 
REMARK    4  A    between atoms: C6_7  and  C7_8 
REMARK    5  A    between atoms: N2_9  and  N3_11 
REMARK    6  A    between atoms: C8_14  and  C9_15 
REMARK    7  A    between atoms: C15_24  and  C16_25 
REMARK    8  A    between atoms: C16_25  and  C17_26 
REMARK    9  A    between atoms: C17_26  and  C18_27 
REMARK   10  A    between atoms: C17_26  and  N6_36 
REMARK   11  A    between atoms: C20_33  and  O3_34 
ROOT
HETATM    1  N1  UNL     1      16.741 -13.307  19.844  1.00  0.00    -0.346 N 
HETATM    2  C5  UNL     1      17.864 -14.016  19.774  1.00  0.00     0.107 A 
HETATM    3  C6  UNL     1      18.510 -14.554  20.930  1.00  0.00     0.024 A 
HETATM    4  C8  UNL     1      17.909 -14.285  22.100  1.00  0.00     0.057 A 
HETATM    5  N4  UNL     1      16.767 -13.567  22.122  1.00  0.00    -0.344 N 
ATOM      6  H4  UNL     1      16.334 -13.388  23.028  1.00  0.00     0.167 HD
HETATM    7  C15 UNL     1      16.146 -13.060  21.003  1.00  0.00     0.086 A 
ENDROOT
BRANCH   7   8
HETATM    8  C16 UNL     1      14.863 -12.367  21.220  1.00  0.00     0.117 C 
BRANCH   8   9
HETATM    9  C17 UNL     1      13.808 -12.991  22.056  1.00  0.00     0.257 C 
BRANCH   9  10
HETATM   10  C18 UNL     1      12.860 -11.842  22.413  1.00  0.00     0.140 A 
HETATM   11  O1  UNL     1      12.238 -11.653  23.550  1.00  0.00    -0.259 OA
HETATM   12  C19 UNL     1      11.512 -10.590  23.559  1.00  0.00     0.371 A 
HETATM   13  O2  UNL     1      10.824 -10.219  24.566  1.00  0.00    -0.238 OA
HETATM   14  N5  UNL     1      11.646 -10.027  22.363  1.00  0.00    -0.281 N 
HETATM   15  C20 UNL     1      12.496 -10.807  21.619  1.00  0.00     0.177 A 
ATOM     16  H5  UNL     1      11.196  -9.167  22.052  1.00  0.00     0.173 HD
BRANCH  15  17
HETATM   17  O3  UNL     1      12.809 -10.455  20.307  1.00  0.00    -0.344 OA
ATOM     18  H3  UNL     1      12.353  -9.954  19.642  1.00  0.00     0.219 HD
ENDBRANCH  15  17
ENDBRANCH   9  10
BRANCH   9  19
HETATM   19  N6  UNL     1      12.992 -14.006  21.455  1.00  0.00    -0.068 N 
HETATM   20  C21 UNL     1      13.026 -13.945  19.976  1.00  0.00     0.272 C 
HETATM   21  C22 UNL     1      11.578 -13.928  21.748  1.00  0.00     0.272 C 
HETATM   22  C23 UNL     1      13.454 -15.338  21.841  1.00  0.00     0.272 C 
ENDBRANCH   9  19
ENDBRANCH   8   9
ENDBRANCH   7   8
BRANCH   1  23
HETATM   23  C4  UNL     1      16.246 -12.708  18.595  1.00  0.00     0.130 C 
BRANCH  23  24
HETATM   24  C3  UNL     1      15.531 -13.740  17.752  1.00  0.00     0.020 C 
BRANCH  24  25
HETATM   25  C2  UNL     1      15.395 -13.137  16.366  1.00  0.00    -0.003 C 
HETATM   26  C1  UNL     1      16.376 -12.044  16.128  1.00  0.00     0.005 C 
ENDBRANCH  24  25
ENDBRANCH  23  24
ENDBRANCH   1  23
BRANCH   4  27
HETATM   27  C9  UNL     1      18.506 -14.586  23.420  1.00  0.00    -0.008 A 
HETATM   28  C10 UNL     1      17.952 -15.527  24.259  1.00  0.00     0.015 A 
HETATM   29  C11 UNL     1      18.580 -15.792  25.464  1.00  0.00     0.024 A 
HETATM   30  C12 UNL     1      19.734 -15.148  25.851  1.00  0.00     0.034 A 
HETATM   31 CL1  UNL     1      20.501 -15.507  27.399  1.00  0.00    -0.084 Cl
HETATM   32  C13 UNL     1      20.291 -14.204  25.006  1.00  0.00     0.024 A 
HETATM   33  C14 UNL     1      19.655 -13.934  23.784  1.00  0.00     0.015 A 
ENDBRANCH   4  27
BRANCH   3  34
HETATM   34  C7  UNL     1      19.540 -15.505  20.664  1.00  0.00     0.121 C 
HETATM   35  N2  UNL     1      19.872 -16.666  20.908  1.00  0.00    -0.318 N 
ATOM     36  H2  UNL     1      20.757 -16.920  20.468  1.00  0.00     0.185 HD
BRANCH  35  37
HETATM   37  N3  UNL     1      19.330 -17.699  21.634  1.00  0.00    -0.345 N 
ATOM     38  H32 UNL     1      18.483 -17.403  22.121  1.00  0.00     0.176 HD
ATOM     39  H31 UNL     1      19.577 -18.676  21.793  1.00  0.00     0.176 HD
ENDBRANCH  35  37
ENDBRANCH   3  34
TORSDOF 11
ENDMDL
MODEL 3
REMARK VINA RESULT: -7.240989968      2.993      4.666
REMARK  11 active torsions:
REMARK  status: ('A' for Active; 'I' for Inactive)
REMARK    1  A    between atoms: C2_2  and  C3_3 
REMARK    2  A    between atoms: C3_3  and  C4_4 
REMARK    3  A    between atoms: C4_4  and  N1_5 
REMARK    4  A    between atoms: C6_7  and  C7_8 
REMARK    5  A    between atoms: N2_9  and  N3_11 
REMARK    6  A    between atoms: C8_14  and  C9_15 
REMARK    7  A    between atoms: C15_24  and  C16_25 
REMARK    8  A    between atoms: C16_25  and  C17_26 
REMARK    9  A    between atoms: C17_26  and  C18_27 
REMARK   10  A    between atoms: C17_26  and  N6_36 
REMARK   11  A    between atoms: C20_33  and  O3_34 
ROOT
HETATM    1  N1  UNL     1      18.303 -13.936  21.763  1.00  0.00    -0.346 N 
HETATM    2  C5  UNL     1      19.295 -14.767  22.066  1.00  0.00     0.107 A 
HETATM    3  C6  UNL     1      19.091 -15.978  22.798  1.00  0.00     0.024 A 
HETATM    4  C8  UNL     1      17.822 -16.217  23.170  1.00  0.00     0.057 A 
HETATM    5  N4  UNL     1      16.847 -15.348  22.833  1.00  0.00    -0.344 N 
ATOM      6  H4  UNL     1      15.894 -15.565  23.126  1.00  0.00     0.167 HD
HETATM    7  C15 UNL     1      17.051 -14.188  22.121  1.00  0.00     0.086 A 
ENDROOT
BRANCH   7   8
HETATM    8  C16 UNL     1      15.848 -13.405  21.781  1.00  0.00     0.117 C 
BRANCH   8   9
HETATM    9  C17 UNL     1      14.701 -14.054  21.100  1.00  0.00     0.257 C 
BRANCH   9  10
HETATM   10  C18 UNL     1      13.472 -13.618  21.903  1.00  0.00     0.140 A 
HETATM   11  O1  UNL     1      13.224 -12.427  22.388  1.00  0.00    -0.259 OA
HETATM   12  C19 UNL     1      12.101 -12.359  23.015  1.00  0.00     0.371 A 
HETATM   13  O2  UNL     1      11.667 -11.293  23.562  1.00  0.00    -0.238 OA
HETATM   14  N5  UNL     1      11.558 -13.570  22.955  1.00  0.00    -0.281 N 
HETATM   15  C20 UNL     1      12.412 -14.386  22.256  1.00  0.00     0.177 A 
ATOM     16  H5  UNL     1      10.662 -13.845  23.358  1.00  0.00     0.173 HD
BRANCH  15  17
HETATM   17  O3  UNL     1      12.094 -15.726  22.047  1.00  0.00    -0.344 OA
ATOM     18  H3  UNL     1      11.407 -16.291  22.381  1.00  0.00     0.219 HD
ENDBRANCH  15  17
ENDBRANCH   9  10
BRANCH   9  19
HETATM   19  N6  UNL     1      14.436 -13.686  19.740  1.00  0.00    -0.068 N 
HETATM   20  C21 UNL     1      15.680 -13.513  18.956  1.00  0.00     0.272 C 
HETATM   21  C22 UNL     1      13.759 -12.422  19.553  1.00  0.00     0.272 C 
HETATM   22  C23 UNL     1      13.646 -14.718  19.069  1.00  0.00     0.272 C 
ENDBRANCH   9  19
ENDBRANCH   8   9
ENDBRANCH   7   8
BRANCH   1  23
HETATM   23  C4  UNL     1      18.664 -12.666  21.115  1.00  0.00     0.130 C 
BRANCH  23  24
HETATM   24  C3  UNL     1      19.869 -12.845  20.218  1.00  0.00     0.020 C 
BRANCH  24  25
HETATM   25  C2  UNL     1      19.329 -13.224  18.851  1.00  0.00    -0.003 C 
HETATM   26  C1  UNL     1      20.037 -12.519  17.750  1.00  0.00     0.005 C 
ENDBRANCH  24  25
ENDBRANCH  23  24
ENDBRANCH   1  23
BRANCH   4  27
HETATM   27  C9  UNL     1      17.426 -17.309  24.085  1.00  0.00    -0.008 A 
HETATM   28  C10 UNL     1      16.419 -18.190  23.756  1.00  0.00     0.015 A 
HETATM   29  C11 UNL     1      16.120 -19.214  24.638  1.00  0.00     0.024 A 
HETATM   30  C12 UNL     1      16.792 -19.382  25.828  1.00  0.00     0.034 A 
HETATM   31 CL1  UNL     1      16.377 -20.695  26.930  1.00  0.00    -0.084 Cl
HETATM   32  C13 UNL     1      17.804 -18.497  26.157  1.00  0.00     0.024 A 
HETATM   33  C14 UNL     1      18.108 -17.457  25.264  1.00  0.00     0.015 A 
ENDBRANCH   4  27
BRANCH   3  34
HETATM   34  C7  UNL     1      20.198 -16.878  22.805  1.00  0.00     0.121 C 
HETATM   35  N2  UNL     1      21.340 -17.006  23.250  1.00  0.00    -0.318 N 
ATOM     36  H2  UNL     1      21.776 -17.881  22.961  1.00  0.00     0.185 HD
BRANCH  35  37
HETATM   37  N3  UNL     1      22.163 -16.245  24.045  1.00  0.00    -0.345 N 
ATOM     38  H32 UNL     1      22.063 -16.498  25.028  1.00  0.00     0.176 HD
ATOM     39  H31 UNL     1      22.838 -15.499  23.877  1.00  0.00     0.176 HD
ENDBRANCH  35  37
ENDBRANCH   3  34
TORSDOF 11
ENDMDL
MODEL 4
REMARK VINA RESULT: -7.230607784      2.807      4.457
REMARK  11 active torsions:
REMARK  status: ('A' for Active; 'I' for Inactive)
REMARK    1  A    between atoms: C2_2  and  C3_3 
REMARK    2  A    between atoms: C3_3  and  C4_4 
REMARK    3  A    between atoms: C4_4  and  N1_5 
REMARK    4  A    between atoms: C6_7  and  C7_8 
REMARK    5  A    between atoms: N2_9  and  N3_11 
REMARK    6  A    between atoms: C8_14  and  C9_15 
REMARK    7  A    between atoms: C15_24  and  C16_25 
REMARK    8  A    between atoms: C16_25  and  C17_26 
REMARK    9  A    between atoms: C17_26  and  C18_27 
REMARK   10  A    between atoms: C17_26  and  N6_36 
REMARK   11  A    between atoms: C20_33  and  O3_34 
ROOT
HETATM    1  N1  UNL     1      19.024 -14.215  22.329  1.00  0.00    -0.346 N 
HETATM    2  C5  UNL     1      19.950 -14.023  23.264  1.00  0.00     0.107 A 
HETATM    3  C6  UNL     1      20.248 -14.996  24.267  1.00  0.00     0.024 A 
HETATM    4  C8  UNL     1      19.519 -16.123  24.208  1.00  0.00     0.057 A 
HETATM    5  N4  UNL     1      18.594 -16.277  23.237  1.00  0.00    -0.344 N 
ATOM      6  H4  UNL     1      18.064 -17.147  23.219  1.00  0.00     0.167 HD
HETATM    7  C15 UNL     1      18.319 -15.337  22.270  1.00  0.00     0.086 A 
ENDROOT
BRANCH   7   8
HETATM    8  C16 UNL     1      17.329 -15.719  21.246  1.00  0.00     0.117 C 
BRANCH   8   9
HETATM    9  C17 UNL     1      15.886 -15.455  21.466  1.00  0.00     0.257 C 
BRANCH   9  10
HETATM   10  C18 UNL     1      15.621 -14.119  20.765  1.00  0.00     0.140 A 
HETATM   11  O1  UNL     1      16.131 -13.705  19.631  1.00  0.00    -0.259 OA
HETATM   12  C19 UNL     1      15.715 -12.537  19.286  1.00  0.00     0.371 A 
HETATM   13  O2  UNL     1      16.084 -11.948  18.218  1.00  0.00    -0.238 OA
HETATM   14  N5  UNL     1      14.878 -12.134  20.237  1.00  0.00    -0.281 N 
HETATM   15  C20 UNL     1      14.806 -13.122  21.186  1.00  0.00     0.177 A 
ATOM     16  H5  UNL     1      14.377 -11.245  20.258  1.00  0.00     0.173 HD
BRANCH  15  17
HETATM   17  O3  UNL     1      14.001 -12.961  22.312  1.00  0.00    -0.344 OA
ATOM     18  H3  UNL     1      13.679 -12.197  22.777  1.00  0.00     0.219 HD
ENDBRANCH  15  17
ENDBRANCH   9  10
BRANCH   9  19
HETATM   19  N6  UNL     1      14.945 -16.385  20.913  1.00  0.00    -0.068 N 
HETATM   20  C21 UNL     1      15.468 -17.770  20.907  1.00  0.00     0.272 C 
HETATM   21  C22 UNL     1      14.588 -16.169  19.530  1.00  0.00     0.272 C 
HETATM   22  C23 UNL     1      13.709 -16.397  21.696  1.00  0.00     0.272 C 
ENDBRANCH   9  19
ENDBRANCH   8   9
ENDBRANCH   7   8
BRANCH   1  23
HETATM   23  C4  UNL     1      18.729 -13.087  21.433  1.00  0.00     0.130 C 
BRANCH  23  24
HETATM   24  C3  UNL     1      19.878 -12.845  20.480  1.00  0.00     0.020 C 
BRANCH  24  25
HETATM   25  C2  UNL     1      19.482 -13.487  19.163  1.00  0.00    -0.003 C 
HETATM   26  C1  UNL     1      19.859 -12.651  17.992  1.00  0.00     0.005 C 
ENDBRANCH  24  25
ENDBRANCH  23  24
ENDBRANCH   1  23
BRANCH   4  27
HETATM   27  C9  UNL     1      19.538 -17.170  25.253  1.00  0.00    -0.008 A 
HETATM   28  C10 UNL     1      18.776 -17.057  26.395  1.00  0.00     0.015 A 
HETATM   29  C11 UNL     1      18.808 -18.088  27.317  1.00  0.00     0.024 A 
HETATM   30  C12 UNL     1      19.572 -19.219  27.133  1.00  0.00     0.034 A 
HETATM   31 CL1  UNL     1      19.592 -20.510  28.336  1.00  0.00    -0.084 Cl
HETATM   32  C13 UNL     1      20.337 -19.332  25.985  1.00  0.00     0.024 A 
HETATM   33  C14 UNL     1      20.306 -18.286  25.048  1.00  0.00     0.015 A 
ENDBRANCH   4  27
BRANCH   3  34
HETATM   34  C7  UNL     1      21.437 -14.752  25.017  1.00  0.00     0.121 C 
HETATM   35  N2  UNL     1      22.638 -14.514  24.878  1.00  0.00    -0.318 N 
ATOM     36  H2  UNL     1      23.123 -14.415  25.770  1.00  0.00     0.185 HD
BRANCH  35  37
HETATM   37  N3  UNL     1      23.478 -14.351  23.802  1.00  0.00    -0.345 N 
ATOM     38  H32 UNL     1      23.100 -13.673  23.140  1.00  0.00     0.176 HD
ATOM     39  H31 UNL     1      24.375 -14.747  23.522  1.00  0.00     0.176 HD
ENDBRANCH  35  37
ENDBRANCH   3  34
TORSDOF 11
ENDMDL
MODEL 5
REMARK VINA RESULT: -7.229948363      2.938      4.473
REMARK  11 active torsions:
REMARK  status: ('A' for Active; 'I' for Inactive)
REMARK    1  A    between atoms: C2_2  and  C3_3 
REMARK    2  A    between atoms: C3_3  and  C4_4 
REMARK    3  A    between atoms: C4_4  and  N1_5 
REMARK    4  A    between atoms: C6_7  and  C7_8 
REMARK    5  A    between atoms: N2_9  and  N3_11 
REMARK    6  A    between atoms: C8_14  and  C9_15 
REMARK    7  A    between atoms: C15_24  and  C16_25 
REMARK    8  A    between atoms: C16_25  and  C17_26 
REMARK    9  A    between atoms: C17_26  and  C18_27 
REMARK   10  A    between atoms: C17_26  and  N6_36 
REMARK   11  A    between atoms: C20_33  and  O3_34 
ROOT
HETATM    1  N1  UNL     1      18.126 -14.073  21.743  1.00  0.00    -0.346 N 
HETATM    2  C5  UNL     1      19.097 -14.931  22.039  1.00  0.00     0.107 A 
HETATM    3  C6  UNL     1      18.859 -16.152  22.744  1.00  0.00     0.024 A 
HETATM    4  C8  UNL     1      17.582 -16.371  23.097  1.00  0.00     0.057 A 
HETATM    5  N4  UNL     1      16.629 -15.474  22.769  1.00  0.00    -0.344 N 
ATOM      6  H4  UNL     1      15.669 -15.677  23.048  1.00  0.00     0.167 HD
HETATM    7  C15 UNL     1      16.865 -14.305  22.083  1.00  0.00     0.086 A 
ENDROOT
BRANCH   7   8
HETATM    8  C16 UNL     1      15.683 -13.489  21.748  1.00  0.00     0.117 C 
BRANCH   8   9
HETATM    9  C17 UNL     1      14.321 -14.069  21.849  1.00  0.00     0.257 C 
BRANCH   9  10
HETATM   10  C18 UNL     1      13.425 -12.894  22.251  1.00  0.00     0.140 A 
HETATM   11  O1  UNL     1      12.396 -12.923  23.061  1.00  0.00    -0.259 OA
HETATM   12  C19 UNL     1      11.840 -11.772  23.215  1.00  0.00     0.371 A 
HETATM   13  O2  UNL     1      10.826 -11.577  23.961  1.00  0.00    -0.238 OA
HETATM   14  N5  UNL     1      12.526 -10.915  22.466  1.00  0.00    -0.281 N 
HETATM   15  C20 UNL     1      13.535 -11.606  21.844  1.00  0.00     0.177 A 
ATOM     16  H5  UNL     1      12.336  -9.917  22.371  1.00  0.00     0.173 HD
BRANCH  15  17
HETATM   17  O3  UNL     1      14.412 -10.949  20.982  1.00  0.00    -0.344 OA
ATOM     18  H3  UNL     1      14.340 -10.160  20.459  1.00  0.00     0.219 HD
ENDBRANCH  15  17
ENDBRANCH   9  10
BRANCH   9  19
HETATM   19  N6  UNL     1      13.740 -14.622  20.661  1.00  0.00    -0.068 N 
HETATM   20  C21 UNL     1      14.339 -14.055  19.431  1.00  0.00     0.272 C 
HETATM   21  C22 UNL     1      12.329 -14.371  20.477  1.00  0.00     0.272 C 
HETATM   22  C23 UNL     1      13.945 -16.069  20.610  1.00  0.00     0.272 C 
ENDBRANCH   9  19
ENDBRANCH   8   9
ENDBRANCH   7   8
BRANCH   1  23
HETATM   23  C4  UNL     1      18.521 -12.798  21.125  1.00  0.00     0.130 C 
BRANCH  23  24
HETATM   24  C3  UNL     1      19.814 -12.953  20.356  1.00  0.00     0.020 C 
BRANCH  24  25
HETATM   25  C2  UNL     1      19.426 -13.112  18.898  1.00  0.00    -0.003 C 
HETATM   26  C1  UNL     1      17.991 -12.799  18.659  1.00  0.00     0.005 C 
ENDBRANCH  24  25
ENDBRANCH  23  24
ENDBRANCH   1  23
BRANCH   4  27
HETATM   27  C9  UNL     1      17.153 -17.473  23.986  1.00  0.00    -0.008 A 
HETATM   28  C10 UNL     1      16.128 -18.323  23.630  1.00  0.00     0.015 A 
HETATM   29  C11 UNL     1      15.798 -19.358  24.488  1.00  0.00     0.024 A 
HETATM   30  C12 UNL     1      16.456 -19.567  25.680  1.00  0.00     0.034 A 
HETATM   31 CL1  UNL     1      16.002 -20.894  26.750  1.00  0.00    -0.084 Cl
HETATM   32  C13 UNL     1      17.486 -18.713  26.035  1.00  0.00     0.024 A 
HETATM   33  C14 UNL     1      17.822 -17.662  25.167  1.00  0.00     0.015 A 
ENDBRANCH   4  27
BRANCH   3  34
HETATM   34  C7  UNL     1      19.946 -17.076  22.743  1.00  0.00     0.121 C 
HETATM   35  N2  UNL     1      21.102 -17.213  23.149  1.00  0.00    -0.318 N 
ATOM     36  H2  UNL     1      21.508 -18.108  22.878  1.00  0.00     0.185 HD
BRANCH  35  37
HETATM   37  N3  UNL     1      21.971 -16.441  23.883  1.00  0.00    -0.345 N 
ATOM     38  H32 UNL     1      21.678 -16.383  24.859  1.00  0.00     0.176 HD
ATOM     39  H31 UNL     1      22.825 -15.924  23.676  1.00  0.00     0.176 HD
ENDBRANCH  35  37
ENDBRANCH   3  34
TORSDOF 11
ENDMDL
