MODEL 1
REMARK VINA RESULT: -8.326136274      0.000      0.000
REMARK  10 active torsions:
REMARK  status: ('A' for Active; 'I' for Inactive)
REMARK    1  A    between atoms: N1_2  and  S1_4 
REMARK    2  A    between atoms: S1_4  and  N2_7 
REMARK    3  A    between atoms: N2_7  and  C3_9 
REMARK    4  A    between atoms: C3_9  and  C4_10 
REMARK    5  A    between atoms: C7_13  and  C8_14 
REMARK    6  A    between atoms: C8_14  and  N3_15 
REMARK    7  A    between atoms: N3_15  and  S2_17 
REMARK    8  A    between atoms: S2_17  and  N4_20 
REMARK    9  A    between atoms: N4_20  and  C9_22 
REMARK   10  A    between atoms: C9_22  and  C10_23 
ROOT
HETATM    1  C8  UNL     1      17.160 -12.843  18.537  1.00  0.00     0.172 C 
ENDROOT
BRANCH   1   2
HETATM    2  C7  UNL     1      17.744 -13.270  19.829  1.00  0.00    -0.040 A 
HETATM    3  C6  UNL     1      19.105 -13.345  19.950  1.00  0.00     0.009 A 
HETATM    4  C5  UNL     1      19.683 -13.745  21.154  1.00  0.00     0.009 A 
HETATM    5  C4  UNL     1      18.923 -14.076  22.256  1.00  0.00    -0.040 A 
HETATM    6  C17 UNL     1      17.543 -13.994  22.113  1.00  0.00     0.009 A 
HETATM    7  C16 UNL     1      16.963 -13.599  20.923  1.00  0.00     0.009 A 
BRANCH   5   8
HETATM    8  C3  UNL     1      19.553 -14.495  23.516  1.00  0.00     0.171 C 
BRANCH   8   9
HETATM    9  N2  UNL     1      20.992 -14.491  23.399  1.00  0.00    -0.302 N 
ATOM     10  H2  UNL     1      21.515 -14.522  22.524  1.00  0.00     0.173 HD
BRANCH   9  11
HETATM   11  S1  UNL     1      21.687 -14.424  24.985  1.00  0.00     0.298 S 
HETATM   12  O1  UNL     1      20.860 -13.591  25.918  1.00  0.00    -0.188 OA
HETATM   13  O2  UNL     1      23.020 -13.707  24.824  1.00  0.00    -0.188 OA
BRANCH  11  14
HETATM   14  N1  UNL     1      21.969 -15.992  25.606  1.00  0.00    -0.202 NA
HETATM   15  C1  UNL     1      20.856 -16.354  26.456  1.00  0.00     0.130 C 
HETATM   16  C2  UNL     1      22.150 -16.937  24.531  1.00  0.00     0.130 C 
ENDBRANCH  11  14
ENDBRANCH   9  11
ENDBRANCH   8   9
ENDBRANCH   5   8
ENDBRANCH   1   2
BRANCH   1  17
HETATM   17  N3  UNL     1      16.078 -11.932  18.674  1.00  0.00    -0.299 N 
ATOM     18  H3  UNL     1      16.188 -11.033  19.144  1.00  0.00     0.174 HD
BRANCH  17  19
HETATM   19  S2  UNL     1      14.593 -12.421  18.014  1.00  0.00     0.315 S 
HETATM   20  O3  UNL     1      14.530 -13.904  17.767  1.00  0.00    -0.183 OA
HETATM   21  O4  UNL     1      14.352 -11.771  16.661  1.00  0.00    -0.183 OA
BRANCH  19  22
HETATM   22  N4  UNL     1      13.307 -11.925  19.046  1.00  0.00    -0.299 N 
ATOM     23  H4  UNL     1      12.628 -11.201  18.814  1.00  0.00     0.174 HD
BRANCH  22  24
HETATM   24  C9  UNL     1      13.321 -12.669  20.281  1.00  0.00     0.172 C 
BRANCH  24  25
HETATM   25  C10 UNL     1      12.866 -11.802  21.399  1.00  0.00    -0.040 A 
HETATM   26  C11 UNL     1      11.895 -12.229  22.276  1.00  0.00     0.010 A 
HETATM   27  C12 UNL     1      11.487 -11.409  23.303  1.00  0.00     0.019 A 
HETATM   28  C13 UNL     1      12.022 -10.159  23.487  1.00  0.00     0.011 A 
HETATM   29 BR1  UNL     1      11.423  -9.061  24.926  1.00  0.00    -0.051 Br
HETATM   30  C14 UNL     1      12.994  -9.755  22.594  1.00  0.00     0.019 A 
HETATM   31  C15 UNL     1      13.414 -10.568  21.559  1.00  0.00     0.010 A 
ENDBRANCH  24  25
ENDBRANCH  22  24
ENDBRANCH  19  22
ENDBRANCH  17  19
ENDBRANCH   1  17
TORSDOF 10
ENDMDL
MODEL 2
REMARK VINA RESULT: -8.061511444      0.725      1.353
REMARK  10 active torsions:
REMARK  status: ('A' for Active; 'I' for Inactive)
REMARK    1  A    between atoms: N1_2  and  S1_4 
REMARK    2  A    between atoms: S1_4  and  N2_7 
REMARK    3  A    between atoms: N2_7  and  C3_9 
REMARK    4  A    between atoms: C3_9  and  C4_10 
REMARK    5  A    between atoms: C7_13  and  C8_14 
REMARK    6  A    between atoms: C8_14  and  N3_15 
REMARK    7  A    between atoms: N3_15  and  S2_17 
REMARK    8  A    between atoms: S2_17  and  N4_20 
REMARK    9  A    between atoms: N4_20  and  C9_22 
REMARK   10  A    between atoms: C9_22  and  C10_23 
ROOT
HETATM    1  C8  UNL     1      17.068 -12.769  18.716  1.00  0.00     0.172 C 
ENDROOT
BRANCH   1   2
HETATM    2  C7  UNL     1      17.690 -13.276  19.961  1.00  0.00    -0.040 A 
HETATM    3  C6  UNL     1      19.052 -13.383  20.028  1.00  0.00     0.009 A 
HETATM    4  C5  UNL     1      19.665 -13.858  21.187  1.00  0.00     0.009 A 
HETATM    5  C4  UNL     1      18.938 -14.236  22.296  1.00  0.00    -0.040 A 
HETATM    6  C17 UNL     1      17.555 -14.120  22.208  1.00  0.00     0.009 A 
HETATM    7  C16 UNL     1      16.941 -13.650  21.063  1.00  0.00     0.009 A 
BRANCH   5   8
HETATM    8  C3  UNL     1      19.604 -14.735  23.507  1.00  0.00     0.171 C 
BRANCH   8   9
HETATM    9  N2  UNL     1      21.031 -14.829  23.308  1.00  0.00    -0.302 N 
ATOM     10  H2  UNL     1      21.504 -14.838  22.405  1.00  0.00     0.173 HD
BRANCH   9  11
HETATM   11  S1  UNL     1      21.810 -14.926  24.854  1.00  0.00     0.298 S 
HETATM   12  O1  UNL     1      22.602 -13.689  25.154  1.00  0.00    -0.188 OA
HETATM   13  O2  UNL     1      22.809 -16.068  24.743  1.00  0.00    -0.188 OA
BRANCH  11  14
HETATM   14  N1  UNL     1      20.688 -15.285  26.094  1.00  0.00    -0.202 NA
HETATM   15  C1  UNL     1      21.018 -16.579  26.648  1.00  0.00     0.130 C 
HETATM   16  C2  UNL     1      20.700 -14.252  27.101  1.00  0.00     0.130 C 
ENDBRANCH  11  14
ENDBRANCH   9  11
ENDBRANCH   8   9
ENDBRANCH   5   8
ENDBRANCH   1   2
BRANCH   1  17
HETATM   17  N3  UNL     1      15.876 -12.026  18.936  1.00  0.00    -0.299 N 
ATOM     18  H3  UNL     1      15.859 -11.202  19.537  1.00  0.00     0.174 HD
BRANCH  17  19
HETATM   19  S2  UNL     1      14.484 -12.586  18.144  1.00  0.00     0.315 S 
HETATM   20  O3  UNL     1      14.607 -14.017  17.699  1.00  0.00    -0.183 OA
HETATM   21  O4  UNL     1      14.213 -11.787  16.879  1.00  0.00    -0.183 OA
BRANCH  19  22
HETATM   22  N4  UNL     1      13.114 -12.386  19.168  1.00  0.00    -0.299 N 
ATOM     23  H4  UNL     1      12.243 -11.936  18.886  1.00  0.00     0.174 HD
BRANCH  22  24
HETATM   24  C9  UNL     1      13.363 -12.939  20.476  1.00  0.00     0.172 C 
BRANCH  24  25
HETATM   25  C10 UNL     1      12.922 -11.980  21.522  1.00  0.00    -0.040 A 
HETATM   26  C11 UNL     1      13.448 -10.709  21.584  1.00  0.00     0.010 A 
HETATM   27  C12 UNL     1      13.027  -9.838  22.563  1.00  0.00     0.019 A 
HETATM   28  C13 UNL     1      12.086 -10.196  23.494  1.00  0.00     0.011 A 
HETATM   29 BR1  UNL     1      11.535  -8.952  24.830  1.00  0.00    -0.051 Br
HETATM   30  C14 UNL     1      11.575 -11.476  23.410  1.00  0.00     0.019 A 
HETATM   31  C15 UNL     1      11.988 -12.360  22.433  1.00  0.00     0.010 A 
ENDBRANCH  24  25
ENDBRANCH  22  24
ENDBRANCH  19  22
ENDBRANCH  17  19
ENDBRANCH   1  17
TORSDOF 10
ENDMDL
MODEL 3
REMARK VINA RESULT: -8.024467633      1.235      1.864
REMARK  10 active torsions:
REMARK  status: ('A' for Active; 'I' for Inactive)
REMARK    1  A    between atoms: N1_2  and  S1_4 
REMARK    2  A    between atoms: S1_4  and  N2_7 
REMARK    3  A    between atoms: N2_7  and  C3_9 
REMARK    4  A    between atoms: C3_9  and  C4_10 
REMARK    5  A    between atoms: C7_13  and  C8_14 
REMARK    6  A    between atoms: C8_14  and  N3_15 
REMARK    7  A    between atoms: N3_15  and  S2_17 
REMARK    8  A    between atoms: S2_17  and  N4_20 
REMARK    9  A    between atoms: N4_20  and  C9_22 
REMARK   10  A    between atoms: C9_22  and  C10_23 
ROOT
HETATM    1  C8  UNL     1      17.253 -12.873  18.670  1.00  0.00     0.172 C 
ENDROOT
BRANCH   1   2
HETATM    2  C7  UNL     1      17.902 -13.348  19.914  1.00  0.00    -0.040 A 
HETATM    3  C6  UNL     1      17.124 -13.864  20.914  1.00  0.00     0.009 A 
HETATM    4  C5  UNL     1      17.708 -14.318  22.096  1.00  0.00     0.009 A 
HETATM    5  C4  UNL     1      19.069 -14.267  22.306  1.00  0.00    -0.040 A 
HETATM    6  C17 UNL     1      19.842 -13.739  21.278  1.00  0.00     0.009 A 
HETATM    7  C16 UNL     1      19.271 -13.288  20.104  1.00  0.00     0.009 A 
BRANCH   5   8
HETATM    8  C3  UNL     1      19.664 -14.750  23.560  1.00  0.00     0.171 C 
BRANCH   8   9
HETATM    9  N2  UNL     1      20.481 -15.917  23.327  1.00  0.00    -0.302 N 
ATOM     10  H2  UNL     1      20.348 -16.591  22.573  1.00  0.00     0.173 HD
BRANCH   9  11
HETATM   11  S1  UNL     1      21.723 -15.986  24.533  1.00  0.00     0.298 S 
HETATM   12  O1  UNL     1      21.850 -17.360  25.121  1.00  0.00    -0.188 OA
HETATM   13  O2  UNL     1      21.262 -15.070  25.657  1.00  0.00    -0.188 OA
BRANCH  11  14
HETATM   14  N1  UNL     1      23.214 -15.412  23.923  1.00  0.00    -0.202 NA
HETATM   15  C1  UNL     1      23.405 -14.055  24.386  1.00  0.00     0.130 C 
HETATM   16  C2  UNL     1      24.295 -16.275  24.333  1.00  0.00     0.130 C 
ENDBRANCH  11  14
ENDBRANCH   9  11
ENDBRANCH   8   9
ENDBRANCH   5   8
ENDBRANCH   1   2
BRANCH   1  17
HETATM   17  N3  UNL     1      16.108 -12.062  18.899  1.00  0.00    -0.299 N 
ATOM     18  H3  UNL     1      16.140 -11.248  19.513  1.00  0.00     0.174 HD
BRANCH  17  19
HETATM   19  S2  UNL     1      14.687 -12.520  18.094  1.00  0.00     0.315 S 
HETATM   20  O3  UNL     1      14.667 -13.982  17.742  1.00  0.00    -0.183 OA
HETATM   21  O4  UNL     1      14.540 -11.781  16.773  1.00  0.00    -0.183 OA
BRANCH  19  22
HETATM   22  N4  UNL     1      13.318 -12.109  19.054  1.00  0.00    -0.299 N 
ATOM     23  H4  UNL     1      12.584 -11.462  18.766  1.00  0.00     0.174 HD
BRANCH  22  24
HETATM   24  C9  UNL     1      13.348 -12.803  20.318  1.00  0.00     0.172 C 
BRANCH  24  25
HETATM   25  C10 UNL     1      12.917 -11.888  21.406  1.00  0.00    -0.040 A 
HETATM   26  C11 UNL     1      13.410 -10.606  21.489  1.00  0.00     0.010 A 
HETATM   27  C12 UNL     1      12.999  -9.775  22.507  1.00  0.00     0.019 A 
HETATM   28  C13 UNL     1      12.100 -10.187  23.458  1.00  0.00     0.011 A 
HETATM   29 BR1  UNL     1      11.561  -8.998  24.848  1.00  0.00    -0.051 Br
HETATM   30  C14 UNL     1      11.620 -11.477  23.352  1.00  0.00     0.019 A 
HETATM   31  C15 UNL     1      12.024 -12.321  22.335  1.00  0.00     0.010 A 
ENDBRANCH  24  25
ENDBRANCH  22  24
ENDBRANCH  19  22
ENDBRANCH  17  19
ENDBRANCH   1  17
TORSDOF 10
ENDMDL
MODEL 4
REMARK VINA RESULT: -8.005651631      2.862      8.767
REMARK  10 active torsions:
REMARK  status: ('A' for Active; 'I' for Inactive)
REMARK    1  A    between atoms: N1_2  and  S1_4 
REMARK    2  A    between atoms: S1_4  and  N2_7 
REMARK    3  A    between atoms: N2_7  and  C3_9 
REMARK    4  A    between atoms: C3_9  and  C4_10 
REMARK    5  A    between atoms: C7_13  and  C8_14 
REMARK    6  A    between atoms: C8_14  and  N3_15 
REMARK    7  A    between atoms: N3_15  and  S2_17 
REMARK    8  A    between atoms: S2_17  and  N4_20 
REMARK    9  A    between atoms: N4_20  and  C9_22 
REMARK   10  A    between atoms: C9_22  and  C10_23 
ROOT
HETATM    1  C8  UNL     1      20.114 -15.215  23.222  1.00  0.00     0.172 C 
ENDROOT
BRANCH   1   2
HETATM    2  C7  UNL     1      19.057 -14.551  22.424  1.00  0.00    -0.040 A 
HETATM    3  C6  UNL     1      19.411 -13.857  21.299  1.00  0.00     0.009 A 
HETATM    4  C5  UNL     1      18.438 -13.221  20.529  1.00  0.00     0.009 A 
HETATM    5  C4  UNL     1      17.101 -13.261  20.861  1.00  0.00    -0.040 A 
HETATM    6  C17 UNL     1      16.762 -13.972  22.008  1.00  0.00     0.009 A 
HETATM    7  C16 UNL     1      17.720 -14.604  22.776  1.00  0.00     0.009 A 
BRANCH   5   8
HETATM    8  C3  UNL     1      16.092 -12.584  20.036  1.00  0.00     0.171 C 
BRANCH   8   9
HETATM    9  N2  UNL     1      15.502 -11.476  20.750  1.00  0.00    -0.302 N 
ATOM     10  H2  UNL     1      16.013 -10.689  21.148  1.00  0.00     0.173 HD
BRANCH   9  11
HETATM   11  S1  UNL     1      13.785 -11.702  20.822  1.00  0.00     0.298 S 
HETATM   12  O1  UNL     1      13.286 -12.533  19.678  1.00  0.00    -0.188 OA
HETATM   13  O2  UNL     1      13.177 -10.317  20.654  1.00  0.00    -0.188 OA
BRANCH  11  14
HETATM   14  N1  UNL     1      13.306 -12.341  22.335  1.00  0.00    -0.202 NA
HETATM   15  C1  UNL     1      12.145 -11.610  22.792  1.00  0.00     0.130 C 
HETATM   16  C2  UNL     1      13.040 -13.755  22.225  1.00  0.00     0.130 C 
ENDBRANCH  11  14
ENDBRANCH   9  11
ENDBRANCH   8   9
ENDBRANCH   5   8
ENDBRANCH   1   2
BRANCH   1  17
HETATM   17  N3  UNL     1      21.292 -14.433  23.370  1.00  0.00    -0.299 N 
ATOM     18  H3  UNL     1      21.732 -13.967  22.576  1.00  0.00     0.174 HD
BRANCH  17  19
HETATM   19  S2  UNL     1      21.925 -14.317  24.940  1.00  0.00     0.315 S 
HETATM   20  O3  UNL     1      21.058 -13.495  25.854  1.00  0.00    -0.183 OA
HETATM   21  O4  UNL     1      23.281 -13.627  24.935  1.00  0.00    -0.183 OA
BRANCH  19  22
HETATM   22  N4  UNL     1      22.165 -15.893  25.587  1.00  0.00    -0.299 N 
ATOM     23  H4  UNL     1      22.843 -16.567  25.231  1.00  0.00     0.174 HD
BRANCH  22  24
HETATM   24  C9  UNL     1      21.280 -16.134  26.699  1.00  0.00     0.172 C 
BRANCH  24  25
HETATM   25  C10 UNL     1      20.057 -16.834  26.229  1.00  0.00    -0.040 A 
HETATM   26  C11 UNL     1      18.812 -16.267  26.388  1.00  0.00     0.010 A 
HETATM   27  C12 UNL     1      17.691 -16.933  25.947  1.00  0.00     0.019 A 
HETATM   28  C13 UNL     1      17.772 -18.163  25.344  1.00  0.00     0.011 A 
HETATM   29 BR1  UNL     1      16.189 -19.045  24.749  1.00  0.00    -0.051 Br
HETATM   30  C14 UNL     1      19.031 -18.710  25.197  1.00  0.00     0.019 A 
HETATM   31  C15 UNL     1      20.164 -18.051  25.635  1.00  0.00     0.010 A 
ENDBRANCH  24  25
ENDBRANCH  22  24
ENDBRANCH  19  22
ENDBRANCH  17  19
ENDBRANCH   1  17
TORSDOF 10
ENDMDL
MODEL 5
REMARK VINA RESULT: -7.988115579      2.575      3.141
REMARK  10 active torsions:
REMARK  status: ('A' for Active; 'I' for Inactive)
REMARK    1  A    between atoms: N1_2  and  S1_4 
REMARK    2  A    between atoms: S1_4  and  N2_7 
REMARK    3  A    between atoms: N2_7  and  C3_9 
REMARK    4  A    between atoms: C3_9  and  C4_10 
REMARK    5  A    between atoms: C7_13  and  C8_14 
REMARK    6  A    between atoms: C8_14  and  N3_15 
REMARK    7  A    between atoms: N3_15  and  S2_17 
REMARK    8  A    between atoms: S2_17  and  N4_20 
REMARK    9  A    between atoms: N4_20  and  C9_22 
REMARK   10  A    between atoms: C9_22  and  C10_23 
ROOT
HETATM    1  C8  UNL     1      16.965 -14.640  21.930  1.00  0.00     0.172 C 
ENDROOT
BRANCH   1   2
HETATM    2  C7  UNL     1      18.101 -14.632  22.881  1.00  0.00    -0.040 A 
HETATM    3  C6  UNL     1      19.336 -14.242  22.438  1.00  0.00     0.009 A 
HETATM    4  C5  UNL     1      20.423 -14.225  23.310  1.00  0.00     0.009 A 
HETATM    5  C4  UNL     1      20.306 -14.594  24.633  1.00  0.00    -0.040 A 
HETATM    6  C17 UNL     1      19.043 -14.987  25.064  1.00  0.00     0.009 A 
HETATM    7  C16 UNL     1      17.961 -15.007  24.206  1.00  0.00     0.009 A 
BRANCH   5   8
HETATM    8  C3  UNL     1      21.465 -14.570  25.535  1.00  0.00     0.171 C 
BRANCH   8   9
HETATM    9  N2  UNL     1      22.687 -14.828  24.811  1.00  0.00    -0.302 N 
ATOM     10  H2  UNL     1      23.294 -14.117  24.402  1.00  0.00     0.173 HD
BRANCH   9  11
HETATM   11  S1  UNL     1      22.955 -16.539  24.747  1.00  0.00     0.298 S 
HETATM   12  O1  UNL     1      22.265 -17.165  23.571  1.00  0.00    -0.188 OA
HETATM   13  O2  UNL     1      22.296 -17.109  25.994  1.00  0.00    -0.188 OA
BRANCH  11  14
HETATM   14  N1  UNL     1      24.625 -16.908  24.780  1.00  0.00    -0.202 NA
HETATM   15  C1  UNL     1      24.808 -18.125  25.538  1.00  0.00     0.130 C 
HETATM   16  C2  UNL     1      25.143 -17.028  23.439  1.00  0.00     0.130 C 
ENDBRANCH  11  14
ENDBRANCH   9  11
ENDBRANCH   8   9
ENDBRANCH   5   8
ENDBRANCH   1   2
BRANCH   1  17
HETATM   17  N3  UNL     1      15.695 -14.550  22.561  1.00  0.00    -0.299 N 
ATOM     18  H3  UNL     1      15.594 -14.234  23.525  1.00  0.00     0.174 HD
BRANCH  17  19
HETATM   19  S2  UNL     1      14.354 -14.996  21.620  1.00  0.00     0.315 S 
HETATM   20  O3  UNL     1      14.430 -16.421  21.144  1.00  0.00    -0.183 OA
HETATM   21  O4  UNL     1      14.262 -14.150  20.359  1.00  0.00    -0.183 OA
BRANCH  19  22
HETATM   22  N4  UNL     1      12.906 -14.731  22.511  1.00  0.00    -0.299 N 
ATOM     23  H4  UNL     1      12.693 -15.163  23.410  1.00  0.00     0.174 HD
BRANCH  22  24
HETATM   24  C9  UNL     1      12.034 -13.816  21.817  1.00  0.00     0.172 C 
BRANCH  24  25
HETATM   25  C10 UNL     1      11.979 -12.521  22.544  1.00  0.00    -0.040 A 
HETATM   26  C11 UNL     1      11.141 -12.350  23.623  1.00  0.00     0.010 A 
HETATM   27  C12 UNL     1      11.103 -11.142  24.281  1.00  0.00     0.019 A 
HETATM   28  C13 UNL     1      11.885 -10.083  23.893  1.00  0.00     0.011 A 
HETATM   29 BR1  UNL     1      11.798  -8.430  24.839  1.00  0.00    -0.051 Br
HETATM   30  C14 UNL     1      12.717 -10.280  22.809  1.00  0.00     0.019 A 
HETATM   31  C15 UNL     1      12.765 -11.488  22.140  1.00  0.00     0.010 A 
ENDBRANCH  24  25
ENDBRANCH  22  24
ENDBRANCH  19  22
ENDBRANCH  17  19
ENDBRANCH   1  17
TORSDOF 10
ENDMDL
