MODEL 1
REMARK VINA RESULT: -8.227024574      0.000      0.000
REMARK  9 active torsions:
REMARK  status: ('A' for Active; 'I' for Inactive)
REMARK    1  A    between atoms: C1_2  and  C2_4 
REMARK    2  A    between atoms: C5_7  and  C6_8 
REMARK    3  A    between atoms: C6_8  and  N2_9 
REMARK    4  A    between atoms: C10_13  and  C11_14 
REMARK       I    between atoms: C11_14  and  N3_16 
REMARK    5  A    between atoms: N3_16  and  C12_18 
REMARK    6  A    between atoms: C12_18  and  C13_19 
REMARK    7  A    between atoms: C13_19  and  C14_20 
REMARK    8  A    between atoms: C14_20  and  N4_21 
REMARK    9  A    between atoms: N4_21  and  C15_23 
ROOT
HETATM    1  C11 UNL     1      16.009 -16.616  21.685  1.00  0.00     0.253 C 
HETATM    2  O2  UNL     1      17.032 -17.051  21.099  1.00  0.00    -0.268 OA
HETATM    3  N3  UNL     1      15.621 -17.182  22.916  1.00  0.00    -0.357 N 
ATOM      4  H3  UNL     1      14.788 -16.811  23.374  1.00  0.00     0.162 HD
ENDROOT
BRANCH   1   5
HETATM    5  C10 UNL     1      15.263 -15.542  21.067  1.00  0.00     0.047 A 
HETATM    6  C9  UNL     1      15.844 -14.797  20.034  1.00  0.00     0.020 A 
HETATM    7  C8  UNL     1      15.190 -13.767  19.407  1.00  0.00     0.018 A 
HETATM    8  C7  UNL     1      13.903 -13.471  19.829  1.00  0.00     0.090 A 
HETATM    9  N2  UNL     1      13.324 -14.167  20.813  1.00  0.00    -0.361 N 
HETATM   10  C19 UNL     1      13.988 -15.177  21.417  1.00  0.00     0.107 A 
BRANCH   9  11
HETATM   11  C6  UNL     1      11.984 -13.853  21.247  1.00  0.00     0.166 C 
BRANCH  11  12
HETATM   12  C5  UNL     1      12.001 -12.612  22.062  1.00  0.00    -0.040 A 
HETATM   13  C4  UNL     1      11.182 -12.549  23.159  1.00  0.00     0.010 A 
HETATM   14  C3  UNL     1      11.193 -11.399  23.919  1.00  0.00     0.017 A 
HETATM   15  C2  UNL     1      12.008 -10.327  23.593  1.00  0.00     0.029 A 
HETATM   16  C21 UNL     1      12.816 -10.427  22.486  1.00  0.00     0.017 A 
HETATM   17  C20 UNL     1      12.806 -11.575  21.724  1.00  0.00     0.010 A 
BRANCH  15  18
HETATM   18  C1  UNL     1      12.006  -9.127  24.405  1.00  0.00     0.264 C 
HETATM   19  N1  UNL     1      10.839  -8.741  25.086  1.00  0.00    -0.057 NA
HETATM   20  O1  UNL     1      13.049  -8.444  24.493  1.00  0.00    -0.271 OA
ENDBRANCH  15  18
ENDBRANCH  11  12
ENDBRANCH   9  11
ENDBRANCH   1   5
BRANCH   3  21
HETATM   21  C12 UNL     1      16.329 -18.248  23.561  1.00  0.00     0.124 C 
BRANCH  21  22
HETATM   22  C13 UNL     1      17.142 -17.802  24.739  1.00  0.00     0.039 C 
BRANCH  22  23
HETATM   23  C14 UNL     1      18.628 -18.006  24.438  1.00  0.00     0.123 C 
BRANCH  23  24
HETATM   24  N4  UNL     1      19.323 -16.734  24.445  1.00  0.00    -0.375 N 
ATOM     25  H4  UNL     1      19.829 -16.441  25.281  1.00  0.00     0.161 HD
BRANCH  24  26
HETATM   26  C15 UNL     1      19.308 -15.970  23.408  1.00  0.00     0.115 A 
HETATM   27  C16 UNL     1      18.843 -14.674  23.465  1.00  0.00     0.052 A 
HETATM   28  C17 UNL     1      18.823 -13.850  22.359  1.00  0.00     0.042 A 
HETATM   29  C18 UNL     1      19.287 -14.349  21.160  1.00  0.00     0.094 A 
HETATM   30 BR1  UNL     1      19.288 -13.252  19.578  1.00  0.00    -0.030 Br
HETATM   31  N5  UNL     1      19.737 -15.616  21.124  1.00  0.00    -0.292 N 
HETATM   32  N6  UNL     1      19.747 -16.401  22.213  1.00  0.00    -0.285 N 
ATOM     33  H5  UNL     1      20.082 -15.993  20.241  1.00  0.00     0.187 HD
ATOM     34  H6  UNL     1      20.099 -17.355  22.131  1.00  0.00     0.188 HD
ENDBRANCH  24  26
ENDBRANCH  23  24
ENDBRANCH  22  23
ENDBRANCH  21  22
ENDBRANCH   3  21
TORSDOF 9
ENDMDL
MODEL 2
REMARK VINA RESULT: -8.089522776      2.964      7.217
REMARK  9 active torsions:
REMARK  status: ('A' for Active; 'I' for Inactive)
REMARK    1  A    between atoms: C1_2  and  C2_4 
REMARK    2  A    between atoms: C5_7  and  C6_8 
REMARK    3  A    between atoms: C6_8  and  N2_9 
REMARK    4  A    between atoms: C10_13  and  C11_14 
REMARK       I    between atoms: C11_14  and  N3_16 
REMARK    5  A    between atoms: N3_16  and  C12_18 
REMARK    6  A    between atoms: C12_18  and  C13_19 
REMARK    7  A    between atoms: C13_19  and  C14_20 
REMARK    8  A    between atoms: C14_20  and  N4_21 
REMARK    9  A    between atoms: N4_21  and  C15_23 
ROOT
HETATM    1  C11 UNL     1      14.360 -11.785  20.624  1.00  0.00     0.253 C 
HETATM    2  O2  UNL     1      13.641 -11.572  19.615  1.00  0.00    -0.268 OA
HETATM    3  N3  UNL     1      14.005 -11.216  21.863  1.00  0.00    -0.357 N 
ATOM      4  H3  UNL     1      14.603 -11.404  22.667  1.00  0.00     0.162 HD
ENDROOT
BRANCH   1   5
HETATM    5  C10 UNL     1      15.536 -12.613  20.471  1.00  0.00     0.047 A 
HETATM    6  C9  UNL     1      16.451 -12.340  19.446  1.00  0.00     0.020 A 
HETATM    7  C8  UNL     1      17.584 -13.087  19.249  1.00  0.00     0.018 A 
HETATM    8  C7  UNL     1      17.813 -14.149  20.110  1.00  0.00     0.090 A 
HETATM    9  N2  UNL     1      16.956 -14.432  21.097  1.00  0.00    -0.361 N 
HETATM   10  C19 UNL     1      15.846 -13.683  21.272  1.00  0.00     0.107 A 
BRANCH   9  11
HETATM   11  C6  UNL     1      17.201 -15.539  21.990  1.00  0.00     0.166 C 
BRANCH  11  12
HETATM   12  C5  UNL     1      18.227 -15.154  22.992  1.00  0.00    -0.040 A 
HETATM   13  C4  UNL     1      17.926 -15.318  24.319  1.00  0.00     0.010 A 
HETATM   14  C3  UNL     1      18.875 -14.962  25.253  1.00  0.00     0.017 A 
HETATM   15  C2  UNL     1      20.106 -14.452  24.873  1.00  0.00     0.029 A 
HETATM   16  C21 UNL     1      20.372 -14.303  23.534  1.00  0.00     0.017 A 
HETATM   17  C20 UNL     1      19.426 -14.657  22.597  1.00  0.00     0.010 A 
BRANCH  15  18
HETATM   18  C1  UNL     1      21.090 -14.085  25.872  1.00  0.00     0.264 C 
HETATM   19  N1  UNL     1      20.742 -14.080  27.233  1.00  0.00    -0.057 NA
HETATM   20  O1  UNL     1      22.245 -13.774  25.509  1.00  0.00    -0.271 OA
ENDBRANCH  15  18
ENDBRANCH  11  12
ENDBRANCH   9  11
ENDBRANCH   1   5
BRANCH   3  21
HETATM   21  C12 UNL     1      12.852 -10.388  22.057  1.00  0.00     0.124 C 
BRANCH  21  22
HETATM   22  C13 UNL     1      11.640 -11.144  22.514  1.00  0.00     0.039 C 
BRANCH  22  23
HETATM   23  C14 UNL     1      12.059 -12.535  22.991  1.00  0.00     0.123 C 
BRANCH  23  24
HETATM   24  N4  UNL     1      11.509 -13.553  22.117  1.00  0.00    -0.375 N 
ATOM     25  H4  UNL     1      10.543 -13.476  21.797  1.00  0.00     0.161 HD
BRANCH  24  26
HETATM   26  C15 UNL     1      12.227 -14.554  21.741  1.00  0.00     0.115 A 
HETATM   27  C16 UNL     1      12.379 -14.882  20.410  1.00  0.00     0.052 A 
HETATM   28  C17 UNL     1      13.144 -15.953  19.999  1.00  0.00     0.042 A 
HETATM   29  C18 UNL     1      13.775 -16.716  20.959  1.00  0.00     0.094 A 
HETATM   30 BR1  UNL     1      14.858 -18.225  20.453  1.00  0.00    -0.030 Br
HETATM   31  N5  UNL     1      13.614 -16.382  22.252  1.00  0.00    -0.292 N 
HETATM   32  N6  UNL     1      12.864 -15.334  22.630  1.00  0.00    -0.285 N 
ATOM     33  H5  UNL     1      14.077 -16.942  22.968  1.00  0.00     0.187 HD
ATOM     34  H6  UNL     1      12.775 -15.124  23.624  1.00  0.00     0.188 HD
ENDBRANCH  24  26
ENDBRANCH  23  24
ENDBRANCH  22  23
ENDBRANCH  21  22
ENDBRANCH   3  21
TORSDOF 9
ENDMDL
MODEL 3
REMARK VINA RESULT: -7.990708448      2.907      7.831
REMARK  9 active torsions:
REMARK  status: ('A' for Active; 'I' for Inactive)
REMARK    1  A    between atoms: C1_2  and  C2_4 
REMARK    2  A    between atoms: C5_7  and  C6_8 
REMARK    3  A    between atoms: C6_8  and  N2_9 
REMARK    4  A    between atoms: C10_13  and  C11_14 
REMARK       I    between atoms: C11_14  and  N3_16 
REMARK    5  A    between atoms: N3_16  and  C12_18 
REMARK    6  A    between atoms: C12_18  and  C13_19 
REMARK    7  A    between atoms: C13_19  and  C14_20 
REMARK    8  A    between atoms: C14_20  and  N4_21 
REMARK    9  A    between atoms: N4_21  and  C15_23 
ROOT
HETATM    1  C11 UNL     1      15.706 -12.869  20.192  1.00  0.00     0.253 C 
HETATM    2  O2  UNL     1      15.284 -11.695  20.338  1.00  0.00    -0.268 OA
HETATM    3  N3  UNL     1      14.807 -13.890  19.826  1.00  0.00    -0.357 N 
ATOM      4  H3  UNL     1      15.173 -14.835  19.712  1.00  0.00     0.162 HD
ENDROOT
BRANCH   1   5
HETATM    5  C10 UNL     1      17.112 -13.129  20.409  1.00  0.00     0.047 A 
HETATM    6  C9  UNL     1      18.014 -13.009  19.344  1.00  0.00     0.020 A 
HETATM    7  C8  UNL     1      19.358 -13.241  19.483  1.00  0.00     0.018 A 
HETATM    8  C7  UNL     1      19.820 -13.608  20.738  1.00  0.00     0.090 A 
HETATM    9  N2  UNL     1      18.981 -13.730  21.772  1.00  0.00    -0.361 N 
HETATM   10  C19 UNL     1      17.661 -13.497  21.612  1.00  0.00     0.107 A 
BRANCH   9  11
HETATM   11  C6  UNL     1      19.470 -14.111  23.076  1.00  0.00     0.166 C 
BRANCH  11  12
HETATM   12  C5  UNL     1      18.744 -15.317  23.548  1.00  0.00    -0.040 A 
HETATM   13  C4  UNL     1      18.296 -15.334  24.843  1.00  0.00     0.010 A 
HETATM   14  C3  UNL     1      17.621 -16.451  25.288  1.00  0.00     0.017 A 
HETATM   15  C2  UNL     1      17.394 -17.535  24.455  1.00  0.00     0.029 A 
HETATM   16  C21 UNL     1      17.857 -17.481  23.163  1.00  0.00     0.017 A 
HETATM   17  C20 UNL     1      18.533 -16.367  22.716  1.00  0.00     0.010 A 
BRANCH  15  18
HETATM   18  C1  UNL     1      16.682 -18.700  24.941  1.00  0.00     0.264 C 
HETATM   19  N1  UNL     1      15.506 -19.123  24.298  1.00  0.00    -0.057 NA
HETATM   20  O1  UNL     1      17.123 -19.319  25.932  1.00  0.00    -0.271 OA
ENDBRANCH  15  18
ENDBRANCH  11  12
ENDBRANCH   9  11
ENDBRANCH   1   5
BRANCH   3  21
HETATM   21  C12 UNL     1      13.407 -13.676  19.605  1.00  0.00     0.124 C 
BRANCH  21  22
HETATM   22  C13 UNL     1      12.530 -14.665  20.314  1.00  0.00     0.039 C 
BRANCH  22  23
HETATM   23  C14 UNL     1      12.681 -14.487  21.825  1.00  0.00     0.123 C 
BRANCH  23  24
HETATM   24  N4  UNL     1      11.481 -13.896  22.385  1.00  0.00    -0.375 N 
ATOM     25  H4  UNL     1      10.603 -14.414  22.358  1.00  0.00     0.161 HD
BRANCH  24  26
HETATM   26  C15 UNL     1      11.512 -12.723  22.915  1.00  0.00     0.115 A 
HETATM   27  C16 UNL     1      12.449 -11.780  22.548  1.00  0.00     0.052 A 
HETATM   28  C17 UNL     1      12.489 -10.523  23.112  1.00  0.00     0.042 A 
HETATM   29  C18 UNL     1      11.556 -10.206  24.076  1.00  0.00     0.094 A 
HETATM   30 BR1  UNL     1      11.555  -8.468  24.905  1.00  0.00    -0.030 Br
HETATM   31  N5  UNL     1      10.650 -11.138  24.423  1.00  0.00    -0.292 N 
HETATM   32  N6  UNL     1      10.629 -12.357  23.860  1.00  0.00    -0.285 N 
ATOM     33  H5  UNL     1       9.956 -10.912  25.136  1.00  0.00     0.187 HD
ATOM     34  H6  UNL     1       9.921 -13.027  24.159  1.00  0.00     0.188 HD
ENDBRANCH  24  26
ENDBRANCH  23  24
ENDBRANCH  22  23
ENDBRANCH  21  22
ENDBRANCH   3  21
TORSDOF 9
ENDMDL
MODEL 4
REMARK VINA RESULT: -7.977763674      3.108      3.795
REMARK  9 active torsions:
REMARK  status: ('A' for Active; 'I' for Inactive)
REMARK    1  A    between atoms: C1_2  and  C2_4 
REMARK    2  A    between atoms: C5_7  and  C6_8 
REMARK    3  A    between atoms: C6_8  and  N2_9 
REMARK    4  A    between atoms: C10_13  and  C11_14 
REMARK       I    between atoms: C11_14  and  N3_16 
REMARK    5  A    between atoms: N3_16  and  C12_18 
REMARK    6  A    between atoms: C12_18  and  C13_19 
REMARK    7  A    between atoms: C13_19  and  C14_20 
REMARK    8  A    between atoms: C14_20  and  N4_21 
REMARK    9  A    between atoms: N4_21  and  C15_23 
ROOT
HETATM    1  C11 UNL     1      17.735 -14.651  22.113  1.00  0.00     0.253 C 
HETATM    2  O2  UNL     1      17.134 -15.635  22.613  1.00  0.00    -0.268 OA
HETATM    3  N3  UNL     1      18.959 -14.230  22.668  1.00  0.00    -0.357 N 
ATOM      4  H3  UNL     1      19.430 -13.430  22.244  1.00  0.00     0.162 HD
ENDROOT
BRANCH   1   5
HETATM    5  C10 UNL     1      17.140 -13.984  20.976  1.00  0.00     0.047 A 
HETATM    6  C9  UNL     1      17.962 -13.411  19.997  1.00  0.00     0.020 A 
HETATM    7  C8  UNL     1      17.461 -12.766  18.895  1.00  0.00     0.018 A 
HETATM    8  C7  UNL     1      16.082 -12.690  18.767  1.00  0.00     0.090 A 
HETATM    9  N2  UNL     1      15.274 -13.228  19.686  1.00  0.00    -0.361 N 
HETATM   10  C19 UNL     1      15.790 -13.859  20.763  1.00  0.00     0.107 A 
BRANCH   9  11
HETATM   11  C6  UNL     1      13.840 -13.146  19.545  1.00  0.00     0.166 C 
BRANCH  11  12
HETATM   12  C5  UNL     1      13.260 -12.468  20.732  1.00  0.00    -0.040 A 
HETATM   13  C4  UNL     1      12.347 -13.158  21.486  1.00  0.00     0.010 A 
HETATM   14  C3  UNL     1      11.804 -12.533  22.589  1.00  0.00     0.017 A 
HETATM   15  C2  UNL     1      12.166 -11.242  22.937  1.00  0.00     0.029 A 
HETATM   16  C21 UNL     1      13.085 -10.582  22.157  1.00  0.00     0.017 A 
HETATM   17  C20 UNL     1      13.628 -11.203  21.054  1.00  0.00     0.010 A 
BRANCH  15  18
HETATM   18  C1  UNL     1      11.585 -10.603  24.101  1.00  0.00     0.264 C 
HETATM   19  N1  UNL     1      11.867  -9.254  24.377  1.00  0.00    -0.057 NA
HETATM   20  O1  UNL     1      10.835 -11.263  24.852  1.00  0.00    -0.271 OA
ENDBRANCH  15  18
ENDBRANCH  11  12
ENDBRANCH   9  11
ENDBRANCH   1   5
BRANCH   3  21
HETATM   21  C12 UNL     1      19.581 -14.860  23.795  1.00  0.00     0.124 C 
BRANCH  21  22
HETATM   22  C13 UNL     1      20.089 -13.891  24.820  1.00  0.00     0.039 C 
BRANCH  22  23
HETATM   23  C14 UNL     1      21.133 -14.581  25.699  1.00  0.00     0.123 C 
BRANCH  23  24
HETATM   24  N4  UNL     1      22.460 -14.392  25.147  1.00  0.00    -0.375 N 
ATOM     25  H4  UNL     1      22.912 -13.480  25.220  1.00  0.00     0.161 HD
BRANCH  24  26
HETATM   26  C15 UNL     1      23.075 -15.363  24.566  1.00  0.00     0.115 A 
HETATM   27  C16 UNL     1      22.763 -16.681  24.823  1.00  0.00     0.052 A 
HETATM   28  C17 UNL     1      23.418 -17.726  24.206  1.00  0.00     0.042 A 
HETATM   29  C18 UNL     1      24.418 -17.432  23.303  1.00  0.00     0.094 A 
HETATM   30 BR1  UNL     1      25.373 -18.844  22.406  1.00  0.00    -0.030 Br
HETATM   31  N5  UNL     1      24.710 -16.140  23.066  1.00  0.00    -0.292 N 
HETATM   32  N6  UNL     1      24.059 -15.139  23.678  1.00  0.00    -0.285 N 
ATOM     33  H5  UNL     1      25.449 -15.915  22.400  1.00  0.00     0.187 HD
ATOM     34  H6  UNL     1      24.319 -14.176  23.463  1.00  0.00     0.188 HD
ENDBRANCH  24  26
ENDBRANCH  23  24
ENDBRANCH  22  23
ENDBRANCH  21  22
ENDBRANCH   3  21
TORSDOF 9
ENDMDL
MODEL 5
REMARK VINA RESULT: -7.971398416      2.818      3.256
REMARK  9 active torsions:
REMARK  status: ('A' for Active; 'I' for Inactive)
REMARK    1  A    between atoms: C1_2  and  C2_4 
REMARK    2  A    between atoms: C5_7  and  C6_8 
REMARK    3  A    between atoms: C6_8  and  N2_9 
REMARK    4  A    between atoms: C10_13  and  C11_14 
REMARK       I    between atoms: C11_14  and  N3_16 
REMARK    5  A    between atoms: N3_16  and  C12_18 
REMARK    6  A    between atoms: C12_18  and  C13_19 
REMARK    7  A    between atoms: C13_19  and  C14_20 
REMARK    8  A    between atoms: C14_20  and  N4_21 
REMARK    9  A    between atoms: N4_21  and  C15_23 
ROOT
HETATM    1  C11 UNL     1      17.013 -14.834  21.960  1.00  0.00     0.253 C 
HETATM    2  O2  UNL     1      17.868 -15.498  21.323  1.00  0.00    -0.268 OA
HETATM    3  N3  UNL     1      17.172 -14.644  23.347  1.00  0.00    -0.357 N 
ATOM      4  H3  UNL     1      16.466 -14.100  23.842  1.00  0.00     0.162 HD
ENDROOT
BRANCH   1   5
HETATM    5  C10 UNL     1      15.887 -14.285  21.237  1.00  0.00     0.047 A 
HETATM    6  C9  UNL     1      16.069 -13.779  19.944  1.00  0.00     0.020 A 
HETATM    7  C8  UNL     1      15.043 -13.246  19.206  1.00  0.00     0.018 A 
HETATM    8  C7  UNL     1      13.783 -13.218  19.784  1.00  0.00     0.090 A 
HETATM    9  N2  UNL     1      13.580 -13.694  21.017  1.00  0.00    -0.361 N 
HETATM   10  C19 UNL     1      14.606 -14.214  21.725  1.00  0.00     0.107 A 
BRANCH   9  11
HETATM   11  C6  UNL     1      12.265 -13.662  21.612  1.00  0.00     0.166 C 
BRANCH  11  12
HETATM   12  C5  UNL     1      12.109 -12.420  22.411  1.00  0.00    -0.040 A 
HETATM   13  C4  UNL     1      11.256 -12.446  23.482  1.00  0.00     0.010 A 
HETATM   14  C3  UNL     1      11.106 -11.296  24.228  1.00  0.00     0.017 A 
HETATM   15  C2  UNL     1      11.798 -10.137  23.912  1.00  0.00     0.029 A 
HETATM   16  C21 UNL     1      12.645 -10.150  22.831  1.00  0.00     0.017 A 
HETATM   17  C20 UNL     1      12.796 -11.297  22.083  1.00  0.00     0.010 A 
BRANCH  15  18
HETATM   18  C1  UNL     1      11.628  -8.939  24.709  1.00  0.00     0.264 C 
HETATM   19  N1  UNL     1      12.731  -8.109  24.975  1.00  0.00    -0.057 NA
HETATM   20  O1  UNL     1      10.496  -8.653  25.154  1.00  0.00    -0.271 OA
ENDBRANCH  15  18
ENDBRANCH  11  12
ENDBRANCH   9  11
ENDBRANCH   1   5
BRANCH   3  21
HETATM   21  C12 UNL     1      18.270 -15.173  24.101  1.00  0.00     0.124 C 
BRANCH  21  22
HETATM   22  C13 UNL     1      19.538 -14.387  23.947  1.00  0.00     0.039 C 
BRANCH  22  23
HETATM   23  C14 UNL     1      20.211 -14.236  25.311  1.00  0.00     0.123 C 
BRANCH  23  24
HETATM   24  N4  UNL     1      21.624 -13.956  25.147  1.00  0.00    -0.375 N 
ATOM     25  H4  UNL     1      21.984 -13.028  25.370  1.00  0.00     0.161 HD
BRANCH  24  26
HETATM   26  C15 UNL     1      22.431 -14.866  24.722  1.00  0.00     0.115 A 
HETATM   27  C16 UNL     1      22.317 -16.182  25.118  1.00  0.00     0.052 A 
HETATM   28  C17 UNL     1      23.177 -17.163  24.668  1.00  0.00     0.042 A 
HETATM   29  C18 UNL     1      24.181 -16.804  23.794  1.00  0.00     0.094 A 
HETATM   30 BR1  UNL     1      25.416 -18.123  23.128  1.00  0.00    -0.030 Br
HETATM   31  N5  UNL     1      24.277 -15.515  23.420  1.00  0.00    -0.292 N 
HETATM   32  N6  UNL     1      23.429 -14.577  23.870  1.00  0.00    -0.285 N 
ATOM     33  H5  UNL     1      25.018 -15.242  22.774  1.00  0.00     0.187 HD
ATOM     34  H6  UNL     1      23.545 -13.614  23.555  1.00  0.00     0.188 HD
ENDBRANCH  24  26
ENDBRANCH  23  24
ENDBRANCH  22  23
ENDBRANCH  21  22
ENDBRANCH   3  21
TORSDOF 9
ENDMDL
