MODEL 1
REMARK VINA RESULT: -7.153651245      0.000      0.000
REMARK  13 active torsions:
REMARK  status: ('A' for Active; 'I' for Inactive)
REMARK    1  A    between atoms: C2_2  and  C3_3 
REMARK    2  A    between atoms: C14_16  and  N2_17 
REMARK       I    between atoms: N2_17  and  C15_19 
REMARK    3  A    between atoms: C15_19  and  C16_21 
REMARK    4  A    between atoms: C16_21  and  C17_22 
REMARK    5  A    between atoms: C17_22  and  C18_23 
REMARK    6  A    between atoms: C18_23  and  C19_24 
REMARK    7  A    between atoms: C19_24  and  C20_25 
REMARK    8  A    between atoms: C20_25  and  N3_26 
REMARK    9  A    between atoms: N3_26  and  C21_29 
REMARK   10  A    between atoms: C21_29  and  C22_30 
REMARK   11  A    between atoms: C22_30  and  C23_31 
REMARK   12  A    between atoms: C23_31  and  C24_32 
REMARK   13  A    between atoms: C24_32  and  N4_33 
ROOT
HETATM    1  C1  UNL     1      11.947  21.145   5.555  1.00  0.00     0.025 C 
HETATM    2  C2  UNL     1      12.757  22.455   5.626  1.00  0.00     0.039 C 
HETATM    3  C4  UNL     1      12.929  22.864   4.175  1.00  0.00     0.019 C 
HETATM    4  C5  UNL     1      14.105  22.127   3.564  1.00  0.00     0.002 C 
HETATM    5  C6  UNL     1      15.381  22.502   4.236  1.00  0.00     0.010 C 
HETATM    6  C7  UNL     1      15.284  22.702   5.710  1.00  0.00    -0.035 C 
HETATM    7  C8  UNL     1      15.488  24.168   6.017  1.00  0.00     0.016 C 
HETATM    8  C9  UNL     1      16.483  21.980   6.346  1.00  0.00    -0.001 C 
HETATM    9  C10 UNL     1      16.741  20.636   5.793  1.00  0.00     0.007 C 
HETATM   10  C11 UNL     1      17.270  19.637   6.816  1.00  0.00     0.012 C 
HETATM   11  C12 UNL     1      18.223  20.329   7.734  1.00  0.00    -0.016 C 
HETATM   12  C13 UNL     1      19.381  20.808   6.888  1.00  0.00     0.018 C 
HETATM   13  C14 UNL     1      18.747  19.352   8.750  1.00  0.00     0.093 C 
HETATM   14  C25 UNL     1      18.459  19.929  10.118  1.00  0.00     0.027 C 
HETATM   15  C26 UNL     1      17.240  20.794   9.830  1.00  0.00     0.012 C 
HETATM   16  C27 UNL     1      17.584  21.456   8.504  1.00  0.00    -0.031 C 
HETATM   17  C28 UNL     1      18.658  22.495   8.818  1.00  0.00     0.016 C 
HETATM   18  C29 UNL     1      16.404  22.072   7.838  1.00  0.00    -0.001 C 
HETATM   19  C30 UNL     1      15.107  21.614   8.424  1.00  0.00     0.006 C 
HETATM   20  C31 UNL     1      13.958  22.356   7.784  1.00  0.00     0.007 C 
HETATM   21  C32 UNL     1      14.046  22.116   6.296  1.00  0.00     0.011 C 
ENDROOT
BRANCH  13  22
HETATM   22  N2  UNL     1      18.156  18.044   8.695  1.00  0.00    -0.356 N 
HETATM   23  C15 UNL     1      18.957  16.870   8.694  1.00  0.00     0.217 C 
HETATM   24  O2  UNL     1      20.200  16.992   8.739  1.00  0.00    -0.274 OA
ATOM     25  H2  UNL     1      17.141  17.956   8.656  1.00  0.00     0.162 HD
BRANCH  23  26
HETATM   26  C16 UNL     1      18.368  15.508   8.641  1.00  0.00     0.103 C 
BRANCH  26  27
HETATM   27  C17 UNL     1      18.867  14.779   7.395  1.00  0.00     0.009 C 
BRANCH  27  28
HETATM   28  C18 UNL     1      18.426  15.528   6.164  1.00  0.00     0.002 C 
BRANCH  28  29
HETATM   29  C19 UNL     1      19.562  15.989   5.298  1.00  0.00     0.027 C 
BRANCH  29  30
HETATM   30  C20 UNL     1      19.280  17.338   4.738  1.00  0.00     0.232 C 
BRANCH  30  31
HETATM   31  N3  UNL     1      18.925  17.274   3.349  1.00  0.00    -0.075 N 
ATOM     32  H32 UNL     1      19.753  17.164   2.765  1.00  0.00     0.277 HD
ATOM     33  H31 UNL     1      18.452  16.396   3.133  1.00  0.00     0.277 HD
BRANCH  31  34
HETATM   34  C21 UNL     1      18.134  18.409   2.922  1.00  0.00     0.232 C 
BRANCH  34  35
HETATM   35  C22 UNL     1      16.778  17.933   2.532  1.00  0.00     0.029 C 
BRANCH  35  36
HETATM   36  C23 UNL     1      15.647  18.848   2.781  1.00  0.00     0.029 C 
BRANCH  36  37
HETATM   37  C24 UNL     1      14.675  18.449   3.824  1.00  0.00     0.229 C 
BRANCH  37  38
HETATM   38  N4  UNL     1      15.173  17.471   4.745  1.00  0.00    -0.079 N 
ATOM     39  H43 UNL     1      14.495  17.300   5.488  1.00  0.00     0.274 HD
ATOM     40  H42 UNL     1      15.190  16.548   4.312  1.00  0.00     0.274 HD
ATOM     41  H41 UNL     1      16.087  17.697   5.139  1.00  0.00     0.274 HD
ENDBRANCH  37  38
ENDBRANCH  36  37
ENDBRANCH  35  36
ENDBRANCH  34  35
ENDBRANCH  31  34
ENDBRANCH  30  31
ENDBRANCH  29  30
ENDBRANCH  28  29
ENDBRANCH  27  28
ENDBRANCH  26  27
ENDBRANCH  23  26
ENDBRANCH  13  22
BRANCH   2  42
HETATM   42  C3  UNL     1      11.910  23.409   6.371  1.00  0.00     0.239 C 
HETATM   43  N1  UNL     1      12.046  24.824   6.301  1.00  0.00    -0.061 NA
HETATM   44  O1  UNL     1      10.995  22.996   7.130  1.00  0.00    -0.276 OA
ENDBRANCH   2  42
TORSDOF 13
ENDMDL
MODEL 2
REMARK VINA RESULT: -7.001193029      1.128      1.498
REMARK  13 active torsions:
REMARK  status: ('A' for Active; 'I' for Inactive)
REMARK    1  A    between atoms: C2_2  and  C3_3 
REMARK    2  A    between atoms: C14_16  and  N2_17 
REMARK       I    between atoms: N2_17  and  C15_19 
REMARK    3  A    between atoms: C15_19  and  C16_21 
REMARK    4  A    between atoms: C16_21  and  C17_22 
REMARK    5  A    between atoms: C17_22  and  C18_23 
REMARK    6  A    between atoms: C18_23  and  C19_24 
REMARK    7  A    between atoms: C19_24  and  C20_25 
REMARK    8  A    between atoms: C20_25  and  N3_26 
REMARK    9  A    between atoms: N3_26  and  C21_29 
REMARK   10  A    between atoms: C21_29  and  C22_30 
REMARK   11  A    between atoms: C22_30  and  C23_31 
REMARK   12  A    between atoms: C23_31  and  C24_32 
REMARK   13  A    between atoms: C24_32  and  N4_33 
ROOT
HETATM    1  C1  UNL     1      11.842  21.120   5.752  1.00  0.00     0.025 C 
HETATM    2  C2  UNL     1      12.700  22.400   5.697  1.00  0.00     0.039 C 
HETATM    3  C4  UNL     1      12.825  22.698   4.215  1.00  0.00     0.019 C 
HETATM    4  C5  UNL     1      13.948  21.875   3.612  1.00  0.00     0.002 C 
HETATM    5  C6  UNL     1      15.264  22.247   4.205  1.00  0.00     0.010 C 
HETATM    6  C7  UNL     1      15.235  22.555   5.664  1.00  0.00    -0.035 C 
HETATM    7  C8  UNL     1      15.505  24.030   5.854  1.00  0.00     0.016 C 
HETATM    8  C9  UNL     1      16.434  21.834   6.302  1.00  0.00    -0.001 C 
HETATM    9  C10 UNL     1      16.620  20.445   5.839  1.00  0.00     0.007 C 
HETATM   10  C11 UNL     1      17.156  19.502   6.910  1.00  0.00     0.012 C 
HETATM   11  C12 UNL     1      18.171  20.220   7.737  1.00  0.00    -0.016 C 
HETATM   12  C13 UNL     1      19.309  20.593   6.814  1.00  0.00     0.018 C 
HETATM   13  C14 UNL     1      18.702  19.299   8.800  1.00  0.00     0.093 C 
HETATM   14  C25 UNL     1      18.492  19.982  10.133  1.00  0.00     0.027 C 
HETATM   15  C26 UNL     1      17.294  20.871   9.831  1.00  0.00     0.012 C 
HETATM   16  C27 UNL     1      17.605  21.423   8.448  1.00  0.00    -0.031 C 
HETATM   17  C28 UNL     1      18.728  22.439   8.644  1.00  0.00     0.016 C 
HETATM   18  C29 UNL     1      16.421  22.035   7.786  1.00  0.00    -0.001 C 
HETATM   19  C30 UNL     1      15.134  21.670   8.454  1.00  0.00     0.006 C 
HETATM   20  C31 UNL     1      13.986  22.408   7.807  1.00  0.00     0.007 C 
HETATM   21  C32 UNL     1      14.004  22.060   6.338  1.00  0.00     0.011 C 
ENDROOT
BRANCH  13  22
HETATM   22  N2  UNL     1      18.063  18.014   8.864  1.00  0.00    -0.356 N 
HETATM   23  C15 UNL     1      18.820  16.815   8.967  1.00  0.00     0.217 C 
HETATM   24  O2  UNL     1      20.067  16.894   9.000  1.00  0.00    -0.274 OA
ATOM     25  H2  UNL     1      17.045  17.960   8.833  1.00  0.00     0.162 HD
BRANCH  23  26
HETATM   26  C16 UNL     1      18.182  15.476   9.037  1.00  0.00     0.103 C 
BRANCH  26  27
HETATM   27  C17 UNL     1      19.242  14.390   8.878  1.00  0.00     0.009 C 
BRANCH  27  28
HETATM   28  C18 UNL     1      18.988  13.622   7.607  1.00  0.00     0.002 C 
BRANCH  28  29
HETATM   29  C19 UNL     1      19.043  14.468   6.368  1.00  0.00     0.027 C 
BRANCH  29  30
HETATM   30  C20 UNL     1      20.438  14.909   6.096  1.00  0.00     0.232 C 
BRANCH  30  31
HETATM   31  N3  UNL     1      20.505  16.313   5.810  1.00  0.00    -0.075 N 
ATOM     32  H32 UNL     1      20.905  16.828   6.595  1.00  0.00     0.277 HD
ATOM     33  H31 UNL     1      21.215  16.510   5.104  1.00  0.00     0.277 HD
BRANCH  31  34
HETATM   34  C21 UNL     1      19.223  16.867   5.426  1.00  0.00     0.232 C 
BRANCH  34  35
HETATM   35  C22 UNL     1      19.321  17.389   4.035  1.00  0.00     0.029 C 
BRANCH  35  36
HETATM   36  C23 UNL     1      18.171  18.162   3.524  1.00  0.00     0.029 C 
BRANCH  36  37
HETATM   37  C24 UNL     1      17.571  17.714   2.248  1.00  0.00     0.229 C 
BRANCH  37  38
HETATM   38  N4  UNL     1      16.999  18.771   1.468  1.00  0.00    -0.079 N 
ATOM     39  H43 UNL     1      17.033  19.653   1.980  1.00  0.00     0.274 HD
ATOM     40  H42 UNL     1      17.605  19.004   0.682  1.00  0.00     0.274 HD
ATOM     41  H41 UNL     1      16.050  18.583   1.144  1.00  0.00     0.274 HD
ENDBRANCH  37  38
ENDBRANCH  36  37
ENDBRANCH  35  36
ENDBRANCH  34  35
ENDBRANCH  31  34
ENDBRANCH  30  31
ENDBRANCH  29  30
ENDBRANCH  28  29
ENDBRANCH  27  28
ENDBRANCH  26  27
ENDBRANCH  23  26
ENDBRANCH  13  22
BRANCH   2  42
HETATM   42  C3  UNL     1      11.920  23.436   6.403  1.00  0.00     0.239 C 
HETATM   43  N1  UNL     1      12.116  24.837   6.239  1.00  0.00    -0.061 NA
HETATM   44  O1  UNL     1      11.012  23.113   7.212  1.00  0.00    -0.276 OA
ENDBRANCH   2  42
TORSDOF 13
ENDMDL
MODEL 3
REMARK VINA RESULT: -6.906041316      5.461     12.049
REMARK  13 active torsions:
REMARK  status: ('A' for Active; 'I' for Inactive)
REMARK    1  A    between atoms: C2_2  and  C3_3 
REMARK    2  A    between atoms: C14_16  and  N2_17 
REMARK       I    between atoms: N2_17  and  C15_19 
REMARK    3  A    between atoms: C15_19  and  C16_21 
REMARK    4  A    between atoms: C16_21  and  C17_22 
REMARK    5  A    between atoms: C17_22  and  C18_23 
REMARK    6  A    between atoms: C18_23  and  C19_24 
REMARK    7  A    between atoms: C19_24  and  C20_25 
REMARK    8  A    between atoms: C20_25  and  N3_26 
REMARK    9  A    between atoms: N3_26  and  C21_29 
REMARK   10  A    between atoms: C21_29  and  C22_30 
REMARK   11  A    between atoms: C22_30  and  C23_31 
REMARK   12  A    between atoms: C23_31  and  C24_32 
REMARK   13  A    between atoms: C24_32  and  N4_33 
ROOT
HETATM    1  C1  UNL     1      11.920  21.868   7.010  1.00  0.00     0.025 C 
HETATM    2  C2  UNL     1      12.681  22.641   5.915  1.00  0.00     0.039 C 
HETATM    3  C4  UNL     1      13.605  23.564   6.687  1.00  0.00     0.019 C 
HETATM    4  C5  UNL     1      12.858  24.817   7.103  1.00  0.00     0.002 C 
HETATM    5  C6  UNL     1      12.419  25.599   5.913  1.00  0.00     0.010 C 
HETATM    6  C7  UNL     1      11.960  24.782   4.754  1.00  0.00    -0.035 C 
HETATM    7  C8  UNL     1      12.958  24.931   3.629  1.00  0.00     0.016 C 
HETATM    8  C9  UNL     1      10.661  25.420   4.235  1.00  0.00    -0.001 C 
HETATM    9  C10 UNL     1       9.710  25.803   5.298  1.00  0.00     0.007 C 
HETATM   10  C11 UNL     1       8.246  25.646   4.904  1.00  0.00     0.012 C 
HETATM   11  C12 UNL     1       8.071  26.055   3.479  1.00  0.00    -0.016 C 
HETATM   12  C13 UNL     1       8.436  27.520   3.392  1.00  0.00     0.018 C 
HETATM   13  C14 UNL     1       6.630  25.899   3.080  1.00  0.00     0.093 C 
HETATM   14  C25 UNL     1       6.596  25.006   1.860  1.00  0.00     0.027 C 
HETATM   15  C26 UNL     1       7.864  24.187   2.049  1.00  0.00     0.012 C 
HETATM   16  C27 UNL     1       8.880  25.216   2.523  1.00  0.00    -0.031 C 
HETATM   17  C28 UNL     1       9.218  26.067   1.301  1.00  0.00     0.016 C 
HETATM   18  C29 UNL     1      10.099  24.600   3.116  1.00  0.00    -0.001 C 
HETATM   19  C30 UNL     1       9.915  23.151   3.435  1.00  0.00     0.006 C 
HETATM   20  C31 UNL     1      11.215  22.560   3.927  1.00  0.00     0.007 C 
HETATM   21  C32 UNL     1      11.651  23.373   5.122  1.00  0.00     0.011 C 
ENDROOT
BRANCH  13  22
HETATM   22  N2  UNL     1       5.785  25.305   4.078  1.00  0.00    -0.356 N 
HETATM   23  C15 UNL     1       4.452  25.755   4.283  1.00  0.00     0.217 C 
HETATM   24  O2  UNL     1       4.019  26.689   3.574  1.00  0.00    -0.274 OA
ATOM     25  H2  UNL     1       6.149  24.545   4.653  1.00  0.00     0.162 HD
BRANCH  23  26
HETATM   26  C16 UNL     1       3.560  25.154   5.306  1.00  0.00     0.103 C 
BRANCH  26  27
HETATM   27  C17 UNL     1       3.031  26.246   6.233  1.00  0.00     0.009 C 
BRANCH  27  28
HETATM   28  C18 UNL     1       4.167  26.808   7.048  1.00  0.00     0.002 C 
BRANCH  28  29
HETATM   29  C19 UNL     1       4.380  28.281   6.853  1.00  0.00     0.027 C 
BRANCH  29  30
HETATM   30  C20 UNL     1       5.720  28.543   6.262  1.00  0.00     0.232 C 
BRANCH  30  31
HETATM   31  N3  UNL     1       6.648  29.030   7.242  1.00  0.00    -0.075 N 
ATOM     32  H32 UNL     1       6.568  30.041   7.351  1.00  0.00     0.277 HD
ATOM     33  H31 UNL     1       6.373  28.740   8.181  1.00  0.00     0.277 HD
BRANCH  31  34
HETATM   34  C21 UNL     1       8.014  28.644   6.959  1.00  0.00     0.232 C 
BRANCH  34  35
HETATM   35  C22 UNL     1       8.810  28.728   8.215  1.00  0.00     0.029 C 
BRANCH  35  36
HETATM   36  C23 UNL     1       9.996  27.855   8.319  1.00  0.00     0.029 C 
BRANCH  36  37
HETATM   37  C24 UNL     1       9.762  26.442   8.692  1.00  0.00     0.229 C 
BRANCH  37  38
HETATM   38  N4  UNL     1      10.761  25.893   9.560  1.00  0.00    -0.079 N 
ATOM     39  H43 UNL     1      10.607  24.894   9.697  1.00  0.00     0.274 HD
ATOM     40  H42 UNL     1      11.666  25.865   9.091  1.00  0.00     0.274 HD
ATOM     41  H41 UNL     1      10.839  26.369  10.459  1.00  0.00     0.274 HD
ENDBRANCH  37  38
ENDBRANCH  36  37
ENDBRANCH  35  36
ENDBRANCH  34  35
ENDBRANCH  31  34
ENDBRANCH  30  31
ENDBRANCH  29  30
ENDBRANCH  28  29
ENDBRANCH  27  28
ENDBRANCH  26  27
ENDBRANCH  23  26
ENDBRANCH  13  22
BRANCH   2  42
HETATM   42  C3  UNL     1      13.431  21.621   5.154  1.00  0.00     0.239 C 
HETATM   43  N1  UNL     1      14.559  21.905   4.332  1.00  0.00    -0.061 NA
HETATM   44  O1  UNL     1      13.094  20.410   5.201  1.00  0.00    -0.276 OA
ENDBRANCH   2  42
TORSDOF 13
ENDMDL
MODEL 4
REMARK VINA RESULT: -6.834557941      5.856     12.412
REMARK  13 active torsions:
REMARK  status: ('A' for Active; 'I' for Inactive)
REMARK    1  A    between atoms: C2_2  and  C3_3 
REMARK    2  A    between atoms: C14_16  and  N2_17 
REMARK       I    between atoms: N2_17  and  C15_19 
REMARK    3  A    between atoms: C15_19  and  C16_21 
REMARK    4  A    between atoms: C16_21  and  C17_22 
REMARK    5  A    between atoms: C17_22  and  C18_23 
REMARK    6  A    between atoms: C18_23  and  C19_24 
REMARK    7  A    between atoms: C19_24  and  C20_25 
REMARK    8  A    between atoms: C20_25  and  N3_26 
REMARK    9  A    between atoms: N3_26  and  C21_29 
REMARK   10  A    between atoms: C21_29  and  C22_30 
REMARK   11  A    between atoms: C22_30  and  C23_31 
REMARK   12  A    between atoms: C23_31  and  C24_32 
REMARK   13  A    between atoms: C24_32  and  N4_33 
ROOT
HETATM    1  C1  UNL     1      11.919  21.814   7.049  1.00  0.00     0.025 C 
HETATM    2  C2  UNL     1      12.691  22.659   6.016  1.00  0.00     0.039 C 
HETATM    3  C4  UNL     1      13.560  23.572   6.860  1.00  0.00     0.019 C 
HETATM    4  C5  UNL     1      12.762  24.782   7.307  1.00  0.00     0.002 C 
HETATM    5  C6  UNL     1      12.336  25.605   6.140  1.00  0.00     0.010 C 
HETATM    6  C7  UNL     1      11.941  24.830   4.930  1.00  0.00    -0.035 C 
HETATM    7  C8  UNL     1      12.970  25.060   3.847  1.00  0.00     0.016 C 
HETATM    8  C9  UNL     1      10.640  25.452   4.397  1.00  0.00    -0.001 C 
HETATM    9  C10 UNL     1       9.644  25.758   5.444  1.00  0.00     0.007 C 
HETATM   10  C11 UNL     1       8.199  25.576   4.994  1.00  0.00     0.012 C 
HETATM   11  C12 UNL     1       8.057  26.045   3.585  1.00  0.00    -0.016 C 
HETATM   12  C13 UNL     1       8.379  27.522   3.576  1.00  0.00     0.018 C 
HETATM   13  C14 UNL     1       6.635  25.864   3.130  1.00  0.00     0.093 C 
HETATM   14  C25 UNL     1       6.668  25.028   1.871  1.00  0.00     0.027 C 
HETATM   15  C26 UNL     1       7.955  24.239   2.065  1.00  0.00     0.012 C 
HETATM   16  C27 UNL     1       8.922  25.274   2.619  1.00  0.00    -0.031 C 
HETATM   17  C28 UNL     1       9.272  26.191   1.449  1.00  0.00     0.016 C 
HETATM   18  C29 UNL     1      10.140  24.669   3.224  1.00  0.00    -0.001 C 
HETATM   19  C30 UNL     1       9.992  23.201   3.471  1.00  0.00     0.006 C 
HETATM   20  C31 UNL     1      11.293  22.627   3.978  1.00  0.00     0.007 C 
HETATM   21  C32 UNL     1      11.664  23.396   5.223  1.00  0.00     0.011 C 
ENDROOT
BRANCH  13  22
HETATM   22  N2  UNL     1       5.778  25.200   4.072  1.00  0.00    -0.356 N 
HETATM   23  C15 UNL     1       4.430  25.610   4.263  1.00  0.00     0.217 C 
HETATM   24  O2  UNL     1       3.996  26.572   3.593  1.00  0.00    -0.274 OA
ATOM     25  H2  UNL     1       6.143  24.418   4.615  1.00  0.00     0.162 HD
BRANCH  23  26
HETATM   26  C16 UNL     1       3.525  24.937   5.228  1.00  0.00     0.103 C 
BRANCH  26  27
HETATM   27  C17 UNL     1       2.386  25.880   5.611  1.00  0.00     0.009 C 
BRANCH  27  28
HETATM   28  C18 UNL     1       2.519  26.264   7.062  1.00  0.00     0.002 C 
BRANCH  28  29
HETATM   29  C19 UNL     1       3.559  27.316   7.316  1.00  0.00     0.027 C 
BRANCH  29  30
HETATM   30  C20 UNL     1       3.401  28.451   6.366  1.00  0.00     0.232 C 
BRANCH  30  31
HETATM   31  N3  UNL     1       4.662  28.876   5.831  1.00  0.00    -0.075 N 
ATOM     32  H32 UNL     1       4.653  28.855   4.812  1.00  0.00     0.277 HD
ATOM     33  H31 UNL     1       4.802  29.876   5.975  1.00  0.00     0.277 HD
BRANCH  31  34
HETATM   34  C21 UNL     1       5.776  28.114   6.356  1.00  0.00     0.232 C 
BRANCH  34  35
HETATM   35  C22 UNL     1       6.765  29.055   6.952  1.00  0.00     0.029 C 
BRANCH  35  36
HETATM   36  C23 UNL     1       8.146  28.560   7.122  1.00  0.00     0.029 C 
BRANCH  36  37
HETATM   37  C24 UNL     1       8.742  28.676   8.471  1.00  0.00     0.229 C 
BRANCH  37  38
HETATM   38  N4  UNL     1      10.175  28.635   8.483  1.00  0.00    -0.079 N 
ATOM     39  H43 UNL     1      10.535  28.437   7.550  1.00  0.00     0.274 HD
ATOM     40  H42 UNL     1      10.557  29.570   8.620  1.00  0.00     0.274 HD
ATOM     41  H41 UNL     1      10.568  27.985   9.164  1.00  0.00     0.274 HD
ENDBRANCH  37  38
ENDBRANCH  36  37
ENDBRANCH  35  36
ENDBRANCH  34  35
ENDBRANCH  31  34
ENDBRANCH  30  31
ENDBRANCH  29  30
ENDBRANCH  28  29
ENDBRANCH  27  28
ENDBRANCH  26  27
ENDBRANCH  23  26
ENDBRANCH  13  22
BRANCH   2  42
HETATM   42  C3  UNL     1      13.496  21.698   5.236  1.00  0.00     0.239 C 
HETATM   43  N1  UNL     1      14.664  22.046   4.498  1.00  0.00    -0.061 NA
HETATM   44  O1  UNL     1      13.174  20.483   5.187  1.00  0.00    -0.276 OA
ENDBRANCH   2  42
TORSDOF 13
ENDMDL
MODEL 5
REMARK VINA RESULT: -6.475189855      3.862      9.852
REMARK  13 active torsions:
REMARK  status: ('A' for Active; 'I' for Inactive)
REMARK    1  A    between atoms: C2_2  and  C3_3 
REMARK    2  A    between atoms: C14_16  and  N2_17 
REMARK       I    between atoms: N2_17  and  C15_19 
REMARK    3  A    between atoms: C15_19  and  C16_21 
REMARK    4  A    between atoms: C16_21  and  C17_22 
REMARK    5  A    between atoms: C17_22  and  C18_23 
REMARK    6  A    between atoms: C18_23  and  C19_24 
REMARK    7  A    between atoms: C19_24  and  C20_25 
REMARK    8  A    between atoms: C20_25  and  N3_26 
REMARK    9  A    between atoms: N3_26  and  C21_29 
REMARK   10  A    between atoms: C21_29  and  C22_30 
REMARK   11  A    between atoms: C22_30  and  C23_31 
REMARK   12  A    between atoms: C23_31  and  C24_32 
REMARK   13  A    between atoms: C24_32  and  N4_33 
ROOT
HETATM    1  C1  UNL     1      16.053  19.066   1.814  1.00  0.00     0.025 C 
HETATM    2  C2  UNL     1      16.371  19.025   3.322  1.00  0.00     0.039 C 
HETATM    3  C4  UNL     1      15.888  17.657   3.765  1.00  0.00     0.019 C 
HETATM    4  C5  UNL     1      14.397  17.698   4.043  1.00  0.00     0.002 C 
HETATM    5  C6  UNL     1      14.088  18.615   5.176  1.00  0.00     0.010 C 
HETATM    6  C7  UNL     1      14.912  19.856   5.228  1.00  0.00    -0.035 C 
HETATM    7  C8  UNL     1      15.823  19.785   6.432  1.00  0.00     0.016 C 
HETATM    8  C9  UNL     1      13.954  21.025   5.509  1.00  0.00    -0.001 C 
HETATM    9  C10 UNL     1      12.710  20.990   4.715  1.00  0.00     0.007 C 
HETATM   10  C11 UNL     1      12.183  22.368   4.328  1.00  0.00     0.012 C 
HETATM   11  C12 UNL     1      12.387  23.311   5.467  1.00  0.00    -0.016 C 
HETATM   12  C13 UNL     1      11.565  22.792   6.625  1.00  0.00     0.018 C 
HETATM   13  C14 UNL     1      11.876  24.675   5.094  1.00  0.00     0.093 C 
HETATM   14  C25 UNL     1      13.014  25.652   5.292  1.00  0.00     0.027 C 
HETATM   15  C26 UNL     1      14.223  24.750   5.096  1.00  0.00     0.012 C 
HETATM   16  C27 UNL     1      13.840  23.479   5.839  1.00  0.00    -0.031 C 
HETATM   17  C28 UNL     1      13.920  23.820   7.324  1.00  0.00     0.016 C 
HETATM   18  C29 UNL     1      14.706  22.319   5.494  1.00  0.00    -0.001 C 
HETATM   19  C30 UNL     1      15.520  22.554   4.262  1.00  0.00     0.006 C 
HETATM   20  C31 UNL     1      16.456  21.392   4.030  1.00  0.00     0.007 C 
HETATM   21  C32 UNL     1      15.607  20.146   3.944  1.00  0.00     0.011 C 
ENDROOT
BRANCH  13  22
HETATM   22  N2  UNL     1      11.423  24.802   3.736  1.00  0.00    -0.356 N 
HETATM   23  C15 UNL     1      10.038  24.816   3.416  1.00  0.00     0.217 C 
HETATM   24  O2  UNL     1       9.207  24.711   4.344  1.00  0.00    -0.274 OA
ATOM     25  H2  UNL     1      12.110  24.884   2.987  1.00  0.00     0.162 HD
BRANCH  23  26
HETATM   26  C16 UNL     1       9.548  24.949   2.021  1.00  0.00     0.103 C 
BRANCH  26  27
HETATM   27  C17 UNL     1       8.658  26.184   1.903  1.00  0.00     0.009 C 
BRANCH  27  28
HETATM   28  C18 UNL     1       7.323  25.788   1.326  1.00  0.00     0.002 C 
BRANCH  28  29
HETATM   29  C19 UNL     1       6.875  24.413   1.728  1.00  0.00     0.027 C 
BRANCH  29  30
HETATM   30  C20 UNL     1       5.731  24.491   2.677  1.00  0.00     0.232 C 
BRANCH  30  31
HETATM   31  N3  UNL     1       6.104  25.127   3.907  1.00  0.00    -0.075 N 
ATOM     32  H32 UNL     1       6.225  24.440   4.652  1.00  0.00     0.277 HD
ATOM     33  H31 UNL     1       7.057  25.488   3.859  1.00  0.00     0.277 HD
BRANCH  31  34
HETATM   34  C21 UNL     1       5.175  26.164   4.303  1.00  0.00     0.232 C 
BRANCH  34  35
HETATM   35  C22 UNL     1       5.830  27.038   5.316  1.00  0.00     0.029 C 
BRANCH  35  36
HETATM   36  C23 UNL     1       7.167  27.569   4.982  1.00  0.00     0.029 C 
BRANCH  36  37
HETATM   37  C24 UNL     1       8.186  27.554   6.055  1.00  0.00     0.229 C 
BRANCH  37  38
HETATM   38  N4  UNL     1       9.535  27.478   5.579  1.00  0.00    -0.079 N 
ATOM     39  H43 UNL     1       9.770  26.519   5.321  1.00  0.00     0.274 HD
ATOM     40  H42 UNL     1       9.619  27.926   4.667  1.00  0.00     0.274 HD
ATOM     41  H41 UNL     1      10.228  27.854   6.227  1.00  0.00     0.274 HD
ENDBRANCH  37  38
ENDBRANCH  36  37
ENDBRANCH  35  36
ENDBRANCH  34  35
ENDBRANCH  31  34
ENDBRANCH  30  31
ENDBRANCH  29  30
ENDBRANCH  28  29
ENDBRANCH  27  28
ENDBRANCH  26  27
ENDBRANCH  23  26
ENDBRANCH  13  22
BRANCH   2  42
HETATM   42  C3  UNL     1      17.839  19.151   3.424  1.00  0.00     0.239 C 
HETATM   43  N1  UNL     1      18.524  19.606   4.587  1.00  0.00    -0.061 NA
HETATM   44  O1  UNL     1      18.577  18.850   2.452  1.00  0.00    -0.276 OA
ENDBRANCH   2  42
TORSDOF 13
ENDMDL
