MODEL 1
REMARK VINA RESULT: -6.866919993      0.000      0.000
REMARK  13 active torsions:
REMARK  status: ('A' for Active; 'I' for Inactive)
REMARK    1  A    between atoms: C2_2  and  C3_3 
REMARK    2  A    between atoms: C3_3  and  C4_4 
REMARK    3  A    between atoms: C4_4  and  C5_5 
REMARK    4  A    between atoms: C5_5  and  C6_6 
REMARK    5  A    between atoms: C7_7  and  C8_8 
REMARK    6  A    between atoms: C8_8  and  C9_9 
REMARK    7  A    between atoms: C19_20  and  C20_21 
REMARK    8  A    between atoms: C20_21  and  C21_22 
REMARK    9  A    between atoms: C21_22  and  C22_23 
REMARK   10  A    between atoms: C22_23  and  C23_24 
REMARK   11  A    between atoms: C23_24  and  C24_25 
REMARK   12  A    between atoms: C26_32  and  C27_33 
REMARK   13  A    between atoms: C27_33  and  C28_34 
ROOT
HETATM    1  C9  UNL     1      18.838  17.335   7.542  1.00  0.00     0.081 C 
HETATM    2  C10 UNL     1      18.680  17.711   6.128  1.00  0.00     0.014 C 
HETATM    3  C11 UNL     1      17.337  17.226   5.544  1.00  0.00     0.001 C 
HETATM    4  C12 UNL     1      17.501  17.046   4.059  1.00  0.00     0.004 C 
HETATM    5  C13 UNL     1      16.474  17.812   3.254  1.00  0.00     0.027 C 
HETATM    6  C14 UNL     1      15.213  18.012   4.017  1.00  0.00    -0.030 C 
HETATM    7  C15 UNL     1      14.500  19.126   3.976  1.00  0.00    -0.021 C 
HETATM    8  C16 UNL     1      14.845  20.330   3.174  1.00  0.00     0.100 C 
HETATM    9  S1  UNL     1      15.846  21.453   4.175  1.00  0.00    -0.165 SA
HETATM   10  C17 UNL     1      14.789  22.570   5.174  1.00  0.00     0.076 C 
HETATM   11  C18 UNL     1      14.321  21.885   6.430  1.00  0.00     0.035 C 
HETATM   12  C19 UNL     1      14.704  22.570   7.697  1.00  0.00     0.085 C 
HETATM   13  N1  UNL     1      15.381  21.737   8.669  1.00  0.00    -0.355 N 
ATOM     14  H1  UNL     1      15.227  22.001   9.642  1.00  0.00     0.162 HD
HETATM   15  C25 UNL     1      16.205  20.638   8.487  1.00  0.00     0.241 C 
HETATM   16  O3  UNL     1      15.853  19.530   9.045  1.00  0.00    -0.271 OA
HETATM   17  C26 UNL     1      17.477  20.525   7.726  1.00  0.00     0.186 C 
HETATM   18  N2  UNL     1      18.399  19.725   8.504  1.00  0.00    -0.347 N 
ATOM     19  H2  UNL     1      19.044  20.256   9.091  1.00  0.00     0.163 HD
HETATM   20  C29 UNL     1      18.540  18.338   8.573  1.00  0.00     0.222 C 
HETATM   21  O6  UNL     1      18.387  17.809   9.745  1.00  0.00    -0.273 OA
ENDROOT
BRANCH   1  22
HETATM   22  C8  UNL     1      20.257  16.861   7.830  1.00  0.00     0.041 C 
BRANCH  22  23
HETATM   23  C7  UNL     1      20.371  15.640   8.600  1.00  0.00    -0.030 C 
HETATM   24  C6  UNL     1      19.910  14.491   8.157  1.00  0.00    -0.031 C 
BRANCH  24  25
HETATM   25  C5  UNL     1      19.233  14.185   6.900  1.00  0.00     0.027 C 
BRANCH  25  26
HETATM   26  C4  UNL     1      20.275  13.698   5.898  1.00  0.00     0.007 C 
BRANCH  26  27
HETATM   27  C3  UNL     1      20.361  14.655   4.737  1.00  0.00     0.026 C 
BRANCH  27  28
HETATM   28  C2  UNL     1      21.686  15.310   4.736  1.00  0.00    -0.037 C 
HETATM   29  C1  UNL     1      22.632  14.910   5.560  1.00  0.00     0.007 C 
ENDBRANCH  27  28
ENDBRANCH  26  27
ENDBRANCH  25  26
ENDBRANCH  24  25
ENDBRANCH  22  23
ENDBRANCH   1  22
BRANCH  17  30
HETATM   30  C27 UNL     1      18.087  21.888   7.450  1.00  0.00     0.147 C 
BRANCH  30  31
HETATM   31  C28 UNL     1      19.539  21.865   7.769  1.00  0.00     0.175 C 
HETATM   32  O4  UNL     1      20.364  21.626   6.848  1.00  0.00    -0.648 OA
HETATM   33  O5  UNL     1      19.974  22.108   9.082  1.00  0.00    -0.648 OA
ENDBRANCH  30  31
ENDBRANCH  17  30
BRANCH  12  34
HETATM   34  C20 UNL     1      13.394  23.101   8.316  1.00  0.00     0.025 C 
BRANCH  34  35
HETATM   35  C21 UNL     1      13.062  24.477   7.800  1.00  0.00     0.002 C 
BRANCH  35  36
HETATM   36  C22 UNL     1      11.632  24.773   8.170  1.00  0.00     0.010 C 
BRANCH  36  37
HETATM   37  C23 UNL     1      11.405  26.076   8.843  1.00  0.00     0.113 C 
BRANCH  37  38
HETATM   38  C24 UNL     1      10.637  27.071   8.091  1.00  0.00     0.172 C 
HETATM   39  O1  UNL     1      10.309  28.155   8.583  1.00  0.00    -0.648 OA
HETATM   40  O2  UNL     1      10.253  26.813   6.784  1.00  0.00    -0.648 OA
ENDBRANCH  37  38
ENDBRANCH  36  37
ENDBRANCH  35  36
ENDBRANCH  34  35
ENDBRANCH  12  34
TORSDOF 13
ENDMDL
MODEL 2
REMARK VINA RESULT: -6.644441459      0.865      1.711
REMARK  13 active torsions:
REMARK  status: ('A' for Active; 'I' for Inactive)
REMARK    1  A    between atoms: C2_2  and  C3_3 
REMARK    2  A    between atoms: C3_3  and  C4_4 
REMARK    3  A    between atoms: C4_4  and  C5_5 
REMARK    4  A    between atoms: C5_5  and  C6_6 
REMARK    5  A    between atoms: C7_7  and  C8_8 
REMARK    6  A    between atoms: C8_8  and  C9_9 
REMARK    7  A    between atoms: C19_20  and  C20_21 
REMARK    8  A    between atoms: C20_21  and  C21_22 
REMARK    9  A    between atoms: C21_22  and  C22_23 
REMARK   10  A    between atoms: C22_23  and  C23_24 
REMARK   11  A    between atoms: C23_24  and  C24_25 
REMARK   12  A    between atoms: C26_32  and  C27_33 
REMARK   13  A    between atoms: C27_33  and  C28_34 
ROOT
HETATM    1  C9  UNL     1      18.813  17.379   7.106  1.00  0.00     0.081 C 
HETATM    2  C10 UNL     1      18.588  17.853   5.732  1.00  0.00     0.014 C 
HETATM    3  C11 UNL     1      17.213  17.421   5.184  1.00  0.00     0.001 C 
HETATM    4  C12 UNL     1      17.299  17.343   3.685  1.00  0.00     0.004 C 
HETATM    5  C13 UNL     1      16.242  18.172   2.987  1.00  0.00     0.027 C 
HETATM    6  C14 UNL     1      15.025  18.331   3.825  1.00  0.00    -0.030 C 
HETATM    7  C15 UNL     1      14.324  19.452   3.897  1.00  0.00    -0.021 C 
HETATM    8  C16 UNL     1      14.643  20.704   3.163  1.00  0.00     0.100 C 
HETATM    9  S1  UNL     1      15.708  21.747   4.186  1.00  0.00    -0.165 SA
HETATM   10  C17 UNL     1      14.716  22.802   5.312  1.00  0.00     0.076 C 
HETATM   11  C18 UNL     1      14.304  22.036   6.540  1.00  0.00     0.035 C 
HETATM   12  C19 UNL     1      14.759  22.628   7.830  1.00  0.00     0.085 C 
HETATM   13  N1  UNL     1      15.473  21.724   8.707  1.00  0.00    -0.355 N 
ATOM     14  H1  UNL     1      15.371  21.921   9.702  1.00  0.00     0.162 HD
HETATM   15  C25 UNL     1      16.272  20.633   8.408  1.00  0.00     0.241 C 
HETATM   16  O3  UNL     1      15.935  19.492   8.906  1.00  0.00    -0.271 OA
HETATM   17  C26 UNL     1      17.503  20.561   7.577  1.00  0.00     0.186 C 
HETATM   18  N2  UNL     1      18.453  19.701   8.251  1.00  0.00    -0.347 N 
ATOM     19  H2  UNL     1      19.133  20.184   8.839  1.00  0.00     0.163 HD
HETATM   20  C29 UNL     1      18.579  18.312   8.217  1.00  0.00     0.222 C 
HETATM   21  O6  UNL     1      18.480  17.704   9.357  1.00  0.00    -0.273 OA
ENDROOT
BRANCH   1  22
HETATM   22  C8  UNL     1      20.239  16.873   7.288  1.00  0.00     0.041 C 
BRANCH  22  23
HETATM   23  C7  UNL     1      20.691  15.897   6.318  1.00  0.00    -0.030 C 
HETATM   24  C6  UNL     1      20.106  14.728   6.183  1.00  0.00    -0.031 C 
BRANCH  24  25
HETATM   25  C5  UNL     1      18.965  14.171   6.905  1.00  0.00     0.027 C 
BRANCH  25  26
HETATM   26  C4  UNL     1      19.387  12.836   7.514  1.00  0.00     0.007 C 
BRANCH  26  27
HETATM   27  C3  UNL     1      20.164  13.071   8.784  1.00  0.00     0.026 C 
BRANCH  27  28
HETATM   28  C2  UNL     1      19.431  14.027   9.640  1.00  0.00    -0.037 C 
HETATM   29  C1  UNL     1      20.071  14.758  10.528  1.00  0.00     0.007 C 
ENDBRANCH  27  28
ENDBRANCH  26  27
ENDBRANCH  25  26
ENDBRANCH  24  25
ENDBRANCH  22  23
ENDBRANCH   1  22
BRANCH  17  30
HETATM   30  C27 UNL     1      18.115  21.934   7.364  1.00  0.00     0.147 C 
BRANCH  30  31
HETATM   31  C28 UNL     1      19.532  21.931   7.816  1.00  0.00     0.175 C 
HETATM   32  O4  UNL     1      20.449  21.893   6.953  1.00  0.00    -0.648 OA
HETATM   33  O5  UNL     1      19.833  21.968   9.187  1.00  0.00    -0.648 OA
ENDBRANCH  30  31
ENDBRANCH  17  30
BRANCH  12  34
HETATM   34  C20 UNL     1      13.488  23.127   8.550  1.00  0.00     0.025 C 
BRANCH  34  35
HETATM   35  C21 UNL     1      12.550  23.816   7.593  1.00  0.00     0.002 C 
BRANCH  35  36
HETATM   36  C22 UNL     1      12.678  25.300   7.812  1.00  0.00     0.010 C 
BRANCH  36  37
HETATM   37  C23 UNL     1      11.858  25.853   8.918  1.00  0.00     0.113 C 
BRANCH  37  38
HETATM   38  C24 UNL     1      10.487  26.243   8.580  1.00  0.00     0.172 C 
HETATM   39  O1  UNL     1       9.546  25.446   8.635  1.00  0.00    -0.648 OA
HETATM   40  O2  UNL     1      10.211  27.543   8.183  1.00  0.00    -0.648 OA
ENDBRANCH  37  38
ENDBRANCH  36  37
ENDBRANCH  35  36
ENDBRANCH  34  35
ENDBRANCH  12  34
TORSDOF 13
ENDMDL
MODEL 3
REMARK VINA RESULT: -6.600720749      4.945     11.277
REMARK  13 active torsions:
REMARK  status: ('A' for Active; 'I' for Inactive)
REMARK    1  A    between atoms: C2_2  and  C3_3 
REMARK    2  A    between atoms: C3_3  and  C4_4 
REMARK    3  A    between atoms: C4_4  and  C5_5 
REMARK    4  A    between atoms: C5_5  and  C6_6 
REMARK    5  A    between atoms: C7_7  and  C8_8 
REMARK    6  A    between atoms: C8_8  and  C9_9 
REMARK    7  A    between atoms: C19_20  and  C20_21 
REMARK    8  A    between atoms: C20_21  and  C21_22 
REMARK    9  A    between atoms: C21_22  and  C22_23 
REMARK   10  A    between atoms: C22_23  and  C23_24 
REMARK   11  A    between atoms: C23_24  and  C24_25 
REMARK   12  A    between atoms: C26_32  and  C27_33 
REMARK   13  A    between atoms: C27_33  and  C28_34 
ROOT
HETATM    1  C9  UNL     1       9.199  24.188   3.254  1.00  0.00     0.081 C 
HETATM    2  C10 UNL     1       9.431  25.405   4.048  1.00  0.00     0.014 C 
HETATM    3  C11 UNL     1       8.828  25.300   5.464  1.00  0.00     0.001 C 
HETATM    4  C12 UNL     1       8.517  26.688   5.953  1.00  0.00     0.004 C 
HETATM    5  C13 UNL     1       9.153  27.000   7.291  1.00  0.00     0.027 C 
HETATM    6  C14 UNL     1       9.363  25.771   8.101  1.00  0.00    -0.030 C 
HETATM    7  C15 UNL     1      10.432  25.561   8.852  1.00  0.00    -0.021 C 
HETATM    8  C16 UNL     1      11.569  26.507   8.999  1.00  0.00     0.100 C 
HETATM    9  S1  UNL     1      12.830  26.129   7.759  1.00  0.00    -0.165 SA
HETATM   10  C17 UNL     1      13.984  24.837   8.363  1.00  0.00     0.076 C 
HETATM   11  C18 UNL     1      13.399  23.463   8.171  1.00  0.00     0.035 C 
HETATM   12  C19 UNL     1      14.218  22.545   7.332  1.00  0.00     0.085 C 
HETATM   13  N1  UNL     1      13.515  21.924   6.228  1.00  0.00    -0.355 N 
ATOM     14  H1  UNL     1      13.862  21.003   5.962  1.00  0.00     0.162 HD
HETATM   15  C25 UNL     1      12.445  22.383   5.478  1.00  0.00     0.241 C 
HETATM   16  O3  UNL     1      11.379  21.658   5.453  1.00  0.00    -0.271 OA
HETATM   17  C26 UNL     1      12.322  23.621   4.664  1.00  0.00     0.186 C 
HETATM   18  N2  UNL     1      11.646  23.285   3.429  1.00  0.00    -0.347 N 
ATOM     19  H2  UNL     1      12.260  23.080   2.641  1.00  0.00     0.163 HD
HETATM   20  C29 UNL     1      10.280  23.198   3.155  1.00  0.00     0.222 C 
HETATM   21  O6  UNL     1       9.857  22.049   2.731  1.00  0.00    -0.273 OA
ENDROOT
BRANCH   1  22
HETATM   22  C8  UNL     1       8.824  24.531   1.818  1.00  0.00     0.041 C 
BRANCH  22  23
HETATM   23  C7  UNL     1       8.081  25.761   1.636  1.00  0.00    -0.030 C 
HETATM   24  C6  UNL     1       6.813  25.764   1.291  1.00  0.00    -0.031 C 
BRANCH  24  25
HETATM   25  C5  UNL     1       5.920  24.639   1.027  1.00  0.00     0.027 C 
BRANCH  25  26
HETATM   26  C4  UNL     1       4.870  24.587   2.134  1.00  0.00     0.007 C 
BRANCH  26  27
HETATM   27  C3  UNL     1       5.401  23.809   3.311  1.00  0.00     0.026 C 
BRANCH  27  28
HETATM   28  C2  UNL     1       4.275  23.186   4.037  1.00  0.00    -0.037 C 
HETATM   29  C1  UNL     1       4.252  21.886   4.248  1.00  0.00     0.007 C 
ENDBRANCH  27  28
ENDBRANCH  26  27
ENDBRANCH  25  26
ENDBRANCH  24  25
ENDBRANCH  22  23
ENDBRANCH   1  22
BRANCH  17  30
HETATM   30  C27 UNL     1      13.681  24.225   4.356  1.00  0.00     0.147 C 
BRANCH  30  31
HETATM   31  C28 UNL     1      14.616  23.160   3.904  1.00  0.00     0.175 C 
HETATM   32  O4  UNL     1      15.791  23.145   4.358  1.00  0.00    -0.648 OA
HETATM   33  O5  UNL     1      14.185  22.191   2.985  1.00  0.00    -0.648 OA
ENDBRANCH  30  31
ENDBRANCH  17  30
BRANCH  12  34
HETATM   34  C20 UNL     1      14.741  21.443   8.278  1.00  0.00     0.025 C 
BRANCH  34  35
HETATM   35  C21 UNL     1      16.114  21.776   8.802  1.00  0.00     0.002 C 
BRANCH  35  36
HETATM   36  C22 UNL     1      17.084  21.658   7.655  1.00  0.00     0.010 C 
BRANCH  36  37
HETATM   37  C23 UNL     1      17.279  20.286   7.125  1.00  0.00     0.113 C 
BRANCH  37  38
HETATM   38  C24 UNL     1      16.997  20.093   5.701  1.00  0.00     0.172 C 
HETATM   39  O1  UNL     1      15.844  19.990   5.269  1.00  0.00    -0.648 OA
HETATM   40  O2  UNL     1      18.038  20.019   4.788  1.00  0.00    -0.648 OA
ENDBRANCH  37  38
ENDBRANCH  36  37
ENDBRANCH  35  36
ENDBRANCH  34  35
ENDBRANCH  12  34
TORSDOF 13
ENDMDL
MODEL 4
REMARK VINA RESULT: -6.538285446      4.752     11.359
REMARK  13 active torsions:
REMARK  status: ('A' for Active; 'I' for Inactive)
REMARK    1  A    between atoms: C2_2  and  C3_3 
REMARK    2  A    between atoms: C3_3  and  C4_4 
REMARK    3  A    between atoms: C4_4  and  C5_5 
REMARK    4  A    between atoms: C5_5  and  C6_6 
REMARK    5  A    between atoms: C7_7  and  C8_8 
REMARK    6  A    between atoms: C8_8  and  C9_9 
REMARK    7  A    between atoms: C19_20  and  C20_21 
REMARK    8  A    between atoms: C20_21  and  C21_22 
REMARK    9  A    between atoms: C21_22  and  C22_23 
REMARK   10  A    between atoms: C22_23  and  C23_24 
REMARK   11  A    between atoms: C23_24  and  C24_25 
REMARK   12  A    between atoms: C26_32  and  C27_33 
REMARK   13  A    between atoms: C27_33  and  C28_34 
ROOT
HETATM    1  C9  UNL     1       9.228  24.073   3.367  1.00  0.00     0.081 C 
HETATM    2  C10 UNL     1       9.500  25.324   4.092  1.00  0.00     0.014 C 
HETATM    3  C11 UNL     1       8.915  25.310   5.518  1.00  0.00     0.001 C 
HETATM    4  C12 UNL     1       8.643  26.729   5.937  1.00  0.00     0.004 C 
HETATM    5  C13 UNL     1       9.304  27.096   7.247  1.00  0.00     0.027 C 
HETATM    6  C14 UNL     1       9.496  25.907   8.119  1.00  0.00    -0.030 C 
HETATM    7  C15 UNL     1      10.571  25.712   8.868  1.00  0.00    -0.021 C 
HETATM    8  C16 UNL     1      11.732  26.637   8.949  1.00  0.00     0.100 C 
HETATM    9  S1  UNL     1      12.966  26.162   7.716  1.00  0.00    -0.165 SA
HETATM   10  C17 UNL     1      14.097  24.877   8.373  1.00  0.00     0.076 C 
HETATM   11  C18 UNL     1      13.477  23.509   8.263  1.00  0.00     0.035 C 
HETATM   12  C19 UNL     1      14.263  22.528   7.463  1.00  0.00     0.085 C 
HETATM   13  N1  UNL     1      13.530  21.866   6.404  1.00  0.00    -0.355 N 
ATOM     14  H1  UNL     1      13.851  20.924   6.183  1.00  0.00     0.162 HD
HETATM   15  C25 UNL     1      12.461  22.310   5.643  1.00  0.00     0.241 C 
HETATM   16  O3  UNL     1      11.378  21.612   5.671  1.00  0.00    -0.271 OA
HETATM   17  C26 UNL     1      12.356  23.506   4.766  1.00  0.00     0.186 C 
HETATM   18  N2  UNL     1      11.655  23.121   3.559  1.00  0.00    -0.347 N 
ATOM     19  H2  UNL     1      12.253  22.860   2.775  1.00  0.00     0.163 HD
HETATM   20  C29 UNL     1      10.284  23.053   3.307  1.00  0.00     0.222 C 
HETATM   21  O6  UNL     1       9.828  21.893   2.951  1.00  0.00    -0.273 OA
ENDROOT
BRANCH   1  22
HETATM   22  C8  UNL     1       8.841  24.348   1.919  1.00  0.00     0.041 C 
BRANCH  22  23
HETATM   23  C7  UNL     1       8.214  25.629   1.666  1.00  0.00    -0.030 C 
HETATM   24  C6  UNL     1       6.995  25.724   1.182  1.00  0.00    -0.031 C 
BRANCH  24  25
HETATM   25  C5  UNL     1       6.058  24.666   0.813  1.00  0.00     0.027 C 
BRANCH  25  26
HETATM   26  C4  UNL     1       4.847  24.752   1.738  1.00  0.00     0.007 C 
BRANCH  26  27
HETATM   27  C3  UNL     1       5.192  24.187   3.092  1.00  0.00     0.026 C 
BRANCH  27  28
HETATM   28  C2  UNL     1       4.716  25.107   4.145  1.00  0.00    -0.037 C 
HETATM   29  C1  UNL     1       5.321  26.259   4.352  1.00  0.00     0.007 C 
ENDBRANCH  27  28
ENDBRANCH  26  27
ENDBRANCH  25  26
ENDBRANCH  24  25
ENDBRANCH  22  23
ENDBRANCH   1  22
BRANCH  17  30
HETATM   30  C27 UNL     1      13.725  24.060   4.409  1.00  0.00     0.147 C 
BRANCH  30  31
HETATM   31  C28 UNL     1      14.587  22.970   3.878  1.00  0.00     0.175 C 
HETATM   32  O4  UNL     1      15.676  22.715   4.457  1.00  0.00    -0.648 OA
HETATM   33  O5  UNL     1      14.183  22.243   2.747  1.00  0.00    -0.648 OA
ENDBRANCH  30  31
ENDBRANCH  17  30
BRANCH  12  34
HETATM   34  C20 UNL     1      14.773  21.466   8.461  1.00  0.00     0.025 C 
BRANCH  34  35
HETATM   35  C21 UNL     1      15.888  22.008   9.317  1.00  0.00     0.002 C 
BRANCH  35  36
HETATM   36  C22 UNL     1      17.007  22.429   8.400  1.00  0.00     0.010 C 
BRANCH  36  37
HETATM   37  C23 UNL     1      18.248  21.620   8.498  1.00  0.00     0.113 C 
BRANCH  37  38
HETATM   38  C24 UNL     1      18.519  20.708   7.384  1.00  0.00     0.172 C 
HETATM   39  O1  UNL     1      19.619  20.663   6.826  1.00  0.00    -0.648 OA
HETATM   40  O2  UNL     1      17.525  19.857   6.923  1.00  0.00    -0.648 OA
ENDBRANCH  37  38
ENDBRANCH  36  37
ENDBRANCH  35  36
ENDBRANCH  34  35
ENDBRANCH  12  34
TORSDOF 13
ENDMDL
MODEL 5
REMARK VINA RESULT: -6.389354441      1.159      1.693
REMARK  13 active torsions:
REMARK  status: ('A' for Active; 'I' for Inactive)
REMARK    1  A    between atoms: C2_2  and  C3_3 
REMARK    2  A    between atoms: C3_3  and  C4_4 
REMARK    3  A    between atoms: C4_4  and  C5_5 
REMARK    4  A    between atoms: C5_5  and  C6_6 
REMARK    5  A    between atoms: C7_7  and  C8_8 
REMARK    6  A    between atoms: C8_8  and  C9_9 
REMARK    7  A    between atoms: C19_20  and  C20_21 
REMARK    8  A    between atoms: C20_21  and  C21_22 
REMARK    9  A    between atoms: C21_22  and  C22_23 
REMARK   10  A    between atoms: C22_23  and  C23_24 
REMARK   11  A    between atoms: C23_24  and  C24_25 
REMARK   12  A    between atoms: C26_32  and  C27_33 
REMARK   13  A    between atoms: C27_33  and  C28_34 
ROOT
HETATM    1  C9  UNL     1      19.281  17.138   8.858  1.00  0.00     0.081 C 
HETATM    2  C10 UNL     1      19.379  17.390   7.412  1.00  0.00     0.014 C 
HETATM    3  C11 UNL     1      18.201  16.772   6.631  1.00  0.00     0.001 C 
HETATM    4  C12 UNL     1      18.656  16.487   5.226  1.00  0.00     0.004 C 
HETATM    5  C13 UNL     1      17.767  17.118   4.177  1.00  0.00     0.027 C 
HETATM    6  C14 UNL     1      16.375  17.293   4.668  1.00  0.00    -0.030 C 
HETATM    7  C15 UNL     1      15.628  18.351   4.394  1.00  0.00    -0.021 C 
HETATM    8  C16 UNL     1      16.060  19.508   3.565  1.00  0.00     0.100 C 
HETATM    9  S1  UNL     1      16.793  20.770   4.632  1.00  0.00    -0.165 SA
HETATM   10  C17 UNL     1      15.508  21.891   5.309  1.00  0.00     0.076 C 
HETATM   11  C18 UNL     1      14.842  21.278   6.512  1.00  0.00     0.035 C 
HETATM   12  C19 UNL     1      14.939  22.084   7.761  1.00  0.00     0.085 C 
HETATM   13  N1  UNL     1      15.456  21.377   8.914  1.00  0.00    -0.355 N 
ATOM     14  H1  UNL     1      15.105  21.706   9.813  1.00  0.00     0.162 HD
HETATM   15  C25 UNL     1      16.353  20.324   8.990  1.00  0.00     0.241 C 
HETATM   16  O3  UNL     1      15.956  19.243   9.569  1.00  0.00    -0.271 OA
HETATM   17  C26 UNL     1      17.752  20.235   8.494  1.00  0.00     0.186 C 
HETATM   18  N2  UNL     1      18.546  19.563   9.501  1.00  0.00    -0.347 N 
ATOM     19  H2  UNL     1      19.038  20.179  10.148  1.00  0.00     0.163 HD
HETATM   20  C29 UNL     1      18.739  18.198   9.720  1.00  0.00     0.222 C 
HETATM   21  O6  UNL     1      18.390  17.754  10.885  1.00  0.00    -0.273 OA
ENDROOT
BRANCH   1  22
HETATM   22  C8  UNL     1      20.639  16.783   9.448  1.00  0.00     0.041 C 
BRANCH  22  23
HETATM   23  C7  UNL     1      20.860  15.378   9.725  1.00  0.00    -0.030 C 
HETATM   24  C6  UNL     1      21.701  14.654   9.021  1.00  0.00    -0.031 C 
BRANCH  24  25
HETATM   25  C5  UNL     1      22.542  15.042   7.893  1.00  0.00     0.027 C 
BRANCH  25  26
HETATM   26  C4  UNL     1      21.767  14.782   6.603  1.00  0.00     0.007 C 
BRANCH  26  27
HETATM   27  C3  UNL     1      21.322  13.343   6.551  1.00  0.00     0.026 C 
BRANCH  27  28
HETATM   28  C2  UNL     1      19.887  13.284   6.207  1.00  0.00    -0.037 C 
HETATM   29  C1  UNL     1      18.973  13.228   7.154  1.00  0.00     0.007 C 
ENDBRANCH  27  28
ENDBRANCH  26  27
ENDBRANCH  25  26
ENDBRANCH  24  25
ENDBRANCH  22  23
ENDBRANCH   1  22
BRANCH  17  30
HETATM   30  C27 UNL     1      18.335  21.610   8.216  1.00  0.00     0.147 C 
BRANCH  30  31
HETATM   31  C28 UNL     1      19.554  21.480   7.374  1.00  0.00     0.175 C 
HETATM   32  O4  UNL     1      19.671  20.479   6.617  1.00  0.00    -0.648 OA
HETATM   33  O5  UNL     1      20.554  22.463   7.428  1.00  0.00    -0.648 OA
ENDBRANCH  30  31
ENDBRANCH  17  30
BRANCH  12  34
HETATM   34  C20 UNL     1      13.509  22.574   8.072  1.00  0.00     0.025 C 
BRANCH  34  35
HETATM   35  C21 UNL     1      13.356  24.044   7.775  1.00  0.00     0.002 C 
BRANCH  35  36
HETATM   36  C22 UNL     1      11.892  24.316   7.547  1.00  0.00     0.010 C 
BRANCH  36  37
HETATM   37  C23 UNL     1      11.522  25.748   7.429  1.00  0.00     0.113 C 
BRANCH  37  38
HETATM   38  C24 UNL     1      10.847  26.343   8.585  1.00  0.00     0.172 C 
HETATM   39  O1  UNL     1      10.430  25.659   9.524  1.00  0.00    -0.648 OA
HETATM   40  O2  UNL     1      10.658  27.715   8.651  1.00  0.00    -0.648 OA
ENDBRANCH  37  38
ENDBRANCH  36  37
ENDBRANCH  35  36
ENDBRANCH  34  35
ENDBRANCH  12  34
TORSDOF 13
ENDMDL
