MODEL 1
REMARK VINA RESULT: -8.072622176      0.000      0.000
REMARK  14 active torsions:
REMARK  status: ('A' for Active; 'I' for Inactive)
REMARK    1  A    between atoms: C2_2  and  C3_3 
REMARK    2  A    between atoms: C3_3  and  O1_4 
REMARK    3  A    between atoms: C3_3  and  C4_6 
REMARK    4  A    between atoms: C3_3  and  C32_41 
REMARK    5  A    between atoms: C5_7  and  C6_8 
REMARK    6  A    between atoms: C6_8  and  C7_9 
REMARK    7  A    between atoms: C7_9  and  C8_10 
REMARK    8  A    between atoms: C8_10  and  C9_11 
REMARK    9  A    between atoms: C9_11  and  O2_12 
REMARK   10  A    between atoms: C9_11  and  N1_14 
REMARK   11  A    between atoms: N1_14  and  C10_16 
REMARK   12  A    between atoms: N2_29  and  C23_30 
REMARK   13  A    between atoms: C23_30  and  C24_31 
REMARK   14  A    between atoms: C30_37  and  C31_38 
ROOT
HETATM    1  C10 UNL     1      15.832  19.379   4.794  1.00  0.00     0.036 A 
HETATM    2  C11 UNL     1      14.489  19.081   4.563  1.00  0.00     0.030 A 
HETATM    3  C12 UNL     1      13.457  20.000   4.793  1.00  0.00     0.010 A 
HETATM    4  C13 UNL     1      13.825  21.215   5.255  1.00  0.00    -0.045 A 
HETATM    5  C14 UNL     1      15.125  21.599   5.505  1.00  0.00    -0.033 A 
HETATM    6  C15 UNL     1      16.084  20.612   5.252  1.00  0.00    -0.024 A 
HETATM    7  C16 UNL     1      17.446  21.031   5.705  1.00  0.00     0.042 C 
HETATM    8  C17 UNL     1      17.132  21.396   7.206  1.00  0.00     0.016 C 
HETATM    9  C18 UNL     1      15.910  22.335   7.234  1.00  0.00    -0.010 A 
HETATM   10  C19 UNL     1      16.098  23.634   7.106  1.00  0.00     0.027 A 
HETATM   11  C20 UNL     1      15.732  22.867   5.950  1.00  0.00    -0.001 A 
HETATM   12  C21 UNL     1      15.326  23.810   5.006  1.00  0.00     0.035 C 
HETATM   13  C22 UNL     1      13.909  24.396   5.087  1.00  0.00     0.123 C 
HETATM   14  N2  UNL     1      13.267  24.202   6.322  1.00  0.00    -0.384 N 
HETATM   15  C27 UNL     1      12.770  22.913   6.677  1.00  0.00     0.008 C 
HETATM   16  C28 UNL     1      12.532  21.957   5.531  1.00  0.00     0.095 C 
HETATM   17  C29 UNL     1      13.439  22.408   7.872  1.00  0.00     0.014 C 
HETATM   18  C30 UNL     1      14.717  21.719   7.929  1.00  0.00     0.121 C 
ENDROOT
BRANCH   1  19
HETATM   19  N1  UNL     1      16.841  18.398   4.519  1.00  0.00    -0.363 N 
ATOM     20  H1  UNL     1      16.597  17.413   4.627  1.00  0.00     0.162 HD
BRANCH  19  21
HETATM   21  C9  UNL     1      18.189  18.729   4.097  1.00  0.00     0.217 C 
BRANCH  21  22
HETATM   22  C8  UNL     1      19.094  17.657   4.627  1.00  0.00     0.054 C 
BRANCH  22  23
HETATM   23  C7  UNL     1      18.735  17.044   5.927  1.00  0.00     0.008 C 
BRANCH  23  24
HETATM   24  C6  UNL     1      19.520  17.545   7.077  1.00  0.00     0.027 C 
BRANCH  24  25
HETATM   25  C5  UNL     1      18.602  18.189   8.057  1.00  0.00    -0.028 C 
HETATM   26  C4  UNL     1      18.637  17.774   9.318  1.00  0.00     0.006 C 
BRANCH  26  27
HETATM   27  C3  UNL     1      17.723  18.408  10.319  1.00  0.00     0.075 C 
BRANCH  27  28
HETATM   28  C2  UNL     1      18.323  19.747  10.684  1.00  0.00     0.037 C 
HETATM   29  C1  UNL     1      18.967  19.585  12.046  1.00  0.00     0.008 C 
ENDBRANCH  27  28
BRANCH  27  30
HETATM   30  O1  UNL     1      16.470  18.622   9.778  1.00  0.00    -0.386 OA
ATOM     31  H1  UNL     1      15.826  18.187  10.325  1.00  0.00     0.211 HD
ENDBRANCH  27  30
BRANCH  27  32
HETATM   32  C32 UNL     1      17.569  17.514  11.539  1.00  0.00     0.037 C 
HETATM   33  C33 UNL     1      16.397  16.578  11.390  1.00  0.00     0.008 C 
ENDBRANCH  27  32
ENDBRANCH  26  27
ENDBRANCH  24  25
ENDBRANCH  23  24
ENDBRANCH  22  23
ENDBRANCH  21  22
BRANCH  21  34
HETATM   34  O2  UNL     1      18.180  18.709   2.715  1.00  0.00    -0.377 OA
ATOM     35  H2  UNL     1      17.836  19.526   2.376  1.00  0.00     0.212 HD
ENDBRANCH  21  34
ENDBRANCH  19  21
ENDBRANCH   1  19
BRANCH  18  36
HETATM   36  C31 UNL     1      15.130  21.717   9.383  1.00  0.00     0.181 C 
HETATM   37  O3  UNL     1      14.744  20.775  10.106  1.00  0.00    -0.647 OA
HETATM   38  O4  UNL     1      15.905  22.682   9.970  1.00  0.00    -0.647 OA
ENDBRANCH  18  36
BRANCH  14  39
HETATM   39  C23 UNL     1      12.526  25.292   6.862  1.00  0.00     0.127 C 
BRANCH  39  40
HETATM   40  C24 UNL     1      12.065  25.186   8.263  1.00  0.00     0.003 A 
HETATM   41  C25 UNL     1      10.765  25.577   8.795  1.00  0.00     0.007 A 
HETATM   42  C26 UNL     1      11.893  26.551   8.969  1.00  0.00     0.007 A 
ENDBRANCH  39  40
ENDBRANCH  14  39
TORSDOF 14
ENDMDL
MODEL 2
REMARK VINA RESULT: -7.938644217      0.838      1.468
REMARK  14 active torsions:
REMARK  status: ('A' for Active; 'I' for Inactive)
REMARK    1  A    between atoms: C2_2  and  C3_3 
REMARK    2  A    between atoms: C3_3  and  O1_4 
REMARK    3  A    between atoms: C3_3  and  C4_6 
REMARK    4  A    between atoms: C3_3  and  C32_41 
REMARK    5  A    between atoms: C5_7  and  C6_8 
REMARK    6  A    between atoms: C6_8  and  C7_9 
REMARK    7  A    between atoms: C7_9  and  C8_10 
REMARK    8  A    between atoms: C8_10  and  C9_11 
REMARK    9  A    between atoms: C9_11  and  O2_12 
REMARK   10  A    between atoms: C9_11  and  N1_14 
REMARK   11  A    between atoms: N1_14  and  C10_16 
REMARK   12  A    between atoms: N2_29  and  C23_30 
REMARK   13  A    between atoms: C23_30  and  C24_31 
REMARK   14  A    between atoms: C30_37  and  C31_38 
ROOT
HETATM    1  C10 UNL     1      15.701  19.326   4.786  1.00  0.00     0.036 A 
HETATM    2  C11 UNL     1      14.347  19.069   4.564  1.00  0.00     0.030 A 
HETATM    3  C12 UNL     1      13.346  20.019   4.798  1.00  0.00     0.010 A 
HETATM    4  C13 UNL     1      13.753  21.223   5.255  1.00  0.00    -0.045 A 
HETATM    5  C14 UNL     1      15.065  21.568   5.497  1.00  0.00    -0.033 A 
HETATM    6  C15 UNL     1      15.993  20.553   5.240  1.00  0.00    -0.024 A 
HETATM    7  C16 UNL     1      17.369  20.931   5.683  1.00  0.00     0.042 C 
HETATM    8  C17 UNL     1      17.076  21.308   7.186  1.00  0.00     0.016 C 
HETATM    9  C18 UNL     1      15.883  22.284   7.218  1.00  0.00    -0.010 A 
HETATM   10  C19 UNL     1      16.109  23.576   7.087  1.00  0.00     0.027 A 
HETATM   11  C20 UNL     1      15.712  22.818   5.935  1.00  0.00    -0.001 A 
HETATM   12  C21 UNL     1      15.329  23.771   4.991  1.00  0.00     0.035 C 
HETATM   13  C22 UNL     1      13.932  24.400   5.079  1.00  0.00     0.123 C 
HETATM   14  N2  UNL     1      13.292  24.228   6.319  1.00  0.00    -0.384 N 
HETATM   15  C27 UNL     1      12.758  22.955   6.680  1.00  0.00     0.008 C 
HETATM   16  C28 UNL     1      12.484  22.004   5.538  1.00  0.00     0.095 C 
HETATM   17  C29 UNL     1      13.419  22.433   7.872  1.00  0.00     0.014 C 
HETATM   18  C30 UNL     1      14.676  21.705   7.923  1.00  0.00     0.121 C 
ENDROOT
BRANCH   1  19
HETATM   19  N1  UNL     1      16.677  18.314   4.508  1.00  0.00    -0.363 N 
ATOM     20  H1  UNL     1      16.796  17.559   5.184  1.00  0.00     0.162 HD
BRANCH  19  21
HETATM   21  C9  UNL     1      17.507  18.306   3.317  1.00  0.00     0.217 C 
BRANCH  21  22
HETATM   22  C8  UNL     1      18.845  17.757   3.715  1.00  0.00     0.054 C 
BRANCH  22  23
HETATM   23  C7  UNL     1      19.159  17.710   5.162  1.00  0.00     0.008 C 
BRANCH  23  24
HETATM   24  C6  UNL     1      19.404  16.349   5.689  1.00  0.00     0.027 C 
BRANCH  24  25
HETATM   25  C5  UNL     1      19.200  16.347   7.164  1.00  0.00    -0.028 C 
HETATM   26  C4  UNL     1      19.007  17.510   7.774  1.00  0.00     0.006 C 
BRANCH  26  27
HETATM   27  C3  UNL     1      18.801  17.529   9.257  1.00  0.00     0.075 C 
BRANCH  27  28
HETATM   28  C2  UNL     1      18.300  16.159   9.654  1.00  0.00     0.037 C 
HETATM   29  C1  UNL     1      17.205  16.370  10.680  1.00  0.00     0.008 C 
ENDBRANCH  27  28
BRANCH  27  30
HETATM   30  O1  UNL     1      19.990  17.771   9.918  1.00  0.00    -0.386 OA
ATOM     31  H1  UNL     1      20.707  17.484   9.364  1.00  0.00     0.211 HD
ENDBRANCH  27  30
BRANCH  27  32
HETATM   32  C32 UNL     1      17.812  18.618   9.640  1.00  0.00     0.037 C 
HETATM   33  C33 UNL     1      18.509  19.798  10.267  1.00  0.00     0.008 C 
ENDBRANCH  27  32
ENDBRANCH  26  27
ENDBRANCH  24  25
ENDBRANCH  23  24
ENDBRANCH  22  23
ENDBRANCH  21  22
BRANCH  21  34
HETATM   34  O2  UNL     1      16.889  17.458   2.418  1.00  0.00    -0.377 OA
ATOM     35  H2  UNL     1      15.970  17.362   2.635  1.00  0.00     0.212 HD
ENDBRANCH  21  34
ENDBRANCH  19  21
ENDBRANCH   1  19
BRANCH  18  36
HETATM   36  C31 UNL     1      15.098  21.694   9.374  1.00  0.00     0.181 C 
HETATM   37  O3  UNL     1      14.945  20.641  10.026  1.00  0.00    -0.647 OA
HETATM   38  O4  UNL     1      15.642  22.766  10.031  1.00  0.00    -0.647 OA
ENDBRANCH  18  36
BRANCH  14  39
HETATM   39  C23 UNL     1      12.587  25.341   6.861  1.00  0.00     0.127 C 
BRANCH  39  40
HETATM   40  C24 UNL     1      12.211  25.290   8.289  1.00  0.00     0.003 A 
HETATM   41  C25 UNL     1      10.883  25.488   8.859  1.00  0.00     0.007 A 
HETATM   42  C26 UNL     1      11.818  26.663   8.882  1.00  0.00     0.007 A 
ENDBRANCH  39  40
ENDBRANCH  14  39
TORSDOF 14
ENDMDL
MODEL 3
REMARK VINA RESULT: -7.881186212      2.908      5.344
REMARK  14 active torsions:
REMARK  status: ('A' for Active; 'I' for Inactive)
REMARK    1  A    between atoms: C2_2  and  C3_3 
REMARK    2  A    between atoms: C3_3  and  O1_4 
REMARK    3  A    between atoms: C3_3  and  C4_6 
REMARK    4  A    between atoms: C3_3  and  C32_41 
REMARK    5  A    between atoms: C5_7  and  C6_8 
REMARK    6  A    between atoms: C6_8  and  C7_9 
REMARK    7  A    between atoms: C7_9  and  C8_10 
REMARK    8  A    between atoms: C8_10  and  C9_11 
REMARK    9  A    between atoms: C9_11  and  O2_12 
REMARK   10  A    between atoms: C9_11  and  N1_14 
REMARK   11  A    between atoms: N1_14  and  C10_16 
REMARK   12  A    between atoms: N2_29  and  C23_30 
REMARK   13  A    between atoms: C23_30  and  C24_31 
REMARK   14  A    between atoms: C30_37  and  C31_38 
ROOT
HETATM    1  C10 UNL     1      14.605  21.805   6.995  1.00  0.00     0.036 A 
HETATM    2  C11 UNL     1      13.863  20.773   6.420  1.00  0.00     0.030 A 
HETATM    3  C12 UNL     1      12.805  21.002   5.531  1.00  0.00     0.010 A 
HETATM    4  C13 UNL     1      12.529  22.293   5.244  1.00  0.00    -0.045 A 
HETATM    5  C14 UNL     1      13.211  23.374   5.758  1.00  0.00    -0.033 A 
HETATM    6  C15 UNL     1      14.245  23.047   6.641  1.00  0.00    -0.024 A 
HETATM    7  C16 UNL     1      14.827  24.261   7.291  1.00  0.00     0.042 C 
HETATM    8  C17 UNL     1      13.517  24.903   7.886  1.00  0.00     0.016 C 
HETATM    9  C18 UNL     1      12.458  24.973   6.769  1.00  0.00    -0.010 A 
HETATM   10  C19 UNL     1      12.439  26.022   5.970  1.00  0.00     0.027 A 
HETATM   11  C20 UNL     1      13.105  24.828   5.536  1.00  0.00    -0.001 A 
HETATM   12  C21 UNL     1      13.285  24.994   4.162  1.00  0.00     0.035 C 
HETATM   13  C22 UNL     1      12.117  24.709   3.208  1.00  0.00     0.123 C 
HETATM   14  N2  UNL     1      10.857  24.654   3.830  1.00  0.00    -0.384 N 
HETATM   15  C27 UNL     1      10.500  23.527   4.629  1.00  0.00     0.008 C 
HETATM   16  C28 UNL     1      11.286  22.261   4.376  1.00  0.00     0.095 C 
HETATM   17  C29 UNL     1      10.255  23.926   6.011  1.00  0.00     0.014 C 
HETATM   18  C30 UNL     1      11.251  24.107   7.054  1.00  0.00     0.121 C 
ENDROOT
BRANCH   1  19
HETATM   19  N1  UNL     1      15.688  21.501   7.883  1.00  0.00    -0.363 N 
ATOM     20  H1  UNL     1      16.072  22.256   8.453  1.00  0.00     0.162 HD
BRANCH  19  21
HETATM   21  C9  UNL     1      16.269  20.177   8.016  1.00  0.00     0.217 C 
BRANCH  21  22
HETATM   22  C8  UNL     1      17.751  20.326   7.838  1.00  0.00     0.054 C 
BRANCH  22  23
HETATM   23  C7  UNL     1      18.404  19.472   6.819  1.00  0.00     0.008 C 
BRANCH  23  24
HETATM   24  C6  UNL     1      18.618  20.135   5.513  1.00  0.00     0.027 C 
BRANCH  24  25
HETATM   25  C5  UNL     1      17.905  19.373   4.451  1.00  0.00    -0.028 C 
HETATM   26  C4  UNL     1      16.805  19.901   3.929  1.00  0.00     0.006 C 
BRANCH  26  27
HETATM   27  C3  UNL     1      16.073  19.151   2.860  1.00  0.00     0.075 C 
BRANCH  27  28
HETATM   28  C2  UNL     1      14.821  19.936   2.542  1.00  0.00     0.037 C 
HETATM   29  C1  UNL     1      15.105  21.382   2.897  1.00  0.00     0.008 C 
ENDBRANCH  27  28
BRANCH  27  30
HETATM   30  O1  UNL     1      16.836  19.057   1.712  1.00  0.00    -0.386 OA
ATOM     31  H1  UNL     1      17.689  18.709   1.943  1.00  0.00     0.211 HD
ENDBRANCH  27  30
BRANCH  27  32
HETATM   32  C32 UNL     1      15.744  17.742   3.330  1.00  0.00     0.037 C 
HETATM   33  C33 UNL     1      14.726  17.757   4.439  1.00  0.00     0.008 C 
ENDBRANCH  27  32
ENDBRANCH  26  27
ENDBRANCH  24  25
ENDBRANCH  23  24
ENDBRANCH  22  23
ENDBRANCH  21  22
BRANCH  21  34
HETATM   34  O2  UNL     1      15.980  19.752   9.298  1.00  0.00    -0.377 OA
ATOM     35  H2  UNL     1      15.098  19.403   9.338  1.00  0.00     0.212 HD
ENDBRANCH  21  34
ENDBRANCH  19  21
ENDBRANCH   1  19
BRANCH  18  36
HETATM   36  C31 UNL     1      10.557  24.844   8.176  1.00  0.00     0.181 C 
HETATM   37  O3  UNL     1       9.309  24.886   8.173  1.00  0.00    -0.647 OA
HETATM   38  O4  UNL     1      11.204  25.477   9.205  1.00  0.00    -0.647 OA
ENDBRANCH  18  36
BRANCH  14  39
HETATM   39  C23 UNL     1       9.763  25.279   3.166  1.00  0.00     0.127 C 
BRANCH  39  40
HETATM   40  C24 UNL     1       8.693  24.411   2.630  1.00  0.00     0.003 A 
HETATM   41  C25 UNL     1       7.577  24.810   1.781  1.00  0.00     0.007 A 
HETATM   42  C26 UNL     1       7.302  24.677   3.251  1.00  0.00     0.007 A 
ENDBRANCH  39  40
ENDBRANCH  14  39
TORSDOF 14
ENDMDL
MODEL 4
REMARK VINA RESULT: -7.809399080      3.024      5.421
REMARK  14 active torsions:
REMARK  status: ('A' for Active; 'I' for Inactive)
REMARK    1  A    between atoms: C2_2  and  C3_3 
REMARK    2  A    between atoms: C3_3  and  O1_4 
REMARK    3  A    between atoms: C3_3  and  C4_6 
REMARK    4  A    between atoms: C3_3  and  C32_41 
REMARK    5  A    between atoms: C5_7  and  C6_8 
REMARK    6  A    between atoms: C6_8  and  C7_9 
REMARK    7  A    between atoms: C7_9  and  C8_10 
REMARK    8  A    between atoms: C8_10  and  C9_11 
REMARK    9  A    between atoms: C9_11  and  O2_12 
REMARK   10  A    between atoms: C9_11  and  N1_14 
REMARK   11  A    between atoms: N1_14  and  C10_16 
REMARK   12  A    between atoms: N2_29  and  C23_30 
REMARK   13  A    between atoms: C23_30  and  C24_31 
REMARK   14  A    between atoms: C30_37  and  C31_38 
ROOT
HETATM    1  C10 UNL     1      14.361  21.840   7.147  1.00  0.00     0.036 A 
HETATM    2  C11 UNL     1      13.653  20.815   6.518  1.00  0.00     0.030 A 
HETATM    3  C12 UNL     1      12.663  21.056   5.557  1.00  0.00     0.010 A 
HETATM    4  C13 UNL     1      12.419  22.350   5.255  1.00  0.00    -0.045 A 
HETATM    5  C14 UNL     1      13.072  23.424   5.819  1.00  0.00    -0.033 A 
HETATM    6  C15 UNL     1      14.038  23.085   6.772  1.00  0.00    -0.024 A 
HETATM    7  C16 UNL     1      14.583  24.293   7.466  1.00  0.00     0.042 C 
HETATM    8  C17 UNL     1      13.239  24.945   7.968  1.00  0.00     0.016 C 
HETATM    9  C18 UNL     1      12.263  25.027   6.779  1.00  0.00    -0.010 A 
HETATM   10  C19 UNL     1      12.309  26.078   5.983  1.00  0.00     0.027 A 
HETATM   11  C20 UNL     1      12.995  24.879   5.594  1.00  0.00    -0.001 A 
HETATM   12  C21 UNL     1      13.274  25.047   4.237  1.00  0.00     0.035 C 
HETATM   13  C22 UNL     1      12.174  24.775   3.202  1.00  0.00     0.123 C 
HETATM   14  N2  UNL     1      10.872  24.729   3.732  1.00  0.00    -0.384 N 
HETATM   15  C27 UNL     1      10.450  23.604   4.500  1.00  0.00     0.008 C 
HETATM   16  C28 UNL     1      11.241  22.331   4.300  1.00  0.00     0.095 C 
HETATM   17  C29 UNL     1      10.111  24.001   5.862  1.00  0.00     0.014 C 
HETATM   18  C30 UNL     1      11.031  24.171   6.974  1.00  0.00     0.121 C 
ENDROOT
BRANCH   1  19
HETATM   19  N1  UNL     1      15.375  21.524   8.109  1.00  0.00    -0.363 N 
ATOM     20  H1  UNL     1      15.478  22.134   8.920  1.00  0.00     0.162 HD
BRANCH  19  21
HETATM   21  C9  UNL     1      16.265  20.383   7.992  1.00  0.00     0.217 C 
BRANCH  21  22
HETATM   22  C8  UNL     1      17.645  20.921   7.757  1.00  0.00     0.054 C 
BRANCH  22  23
HETATM   23  C7  UNL     1      18.640  20.004   7.154  1.00  0.00     0.008 C 
BRANCH  23  24
HETATM   24  C6  UNL     1      18.723  20.079   5.678  1.00  0.00     0.027 C 
BRANCH  24  25
HETATM   25  C5  UNL     1      17.740  19.133   5.081  1.00  0.00    -0.028 C 
HETATM   26  C4  UNL     1      16.726  19.635   4.386  1.00  0.00     0.006 C 
BRANCH  26  27
HETATM   27  C3  UNL     1      15.727  18.701   3.778  1.00  0.00     0.075 C 
BRANCH  27  28
HETATM   28  C2  UNL     1      16.506  17.629   3.050  1.00  0.00     0.037 C 
HETATM   29  C1  UNL     1      17.059  18.264   1.790  1.00  0.00     0.008 C 
ENDBRANCH  27  28
BRANCH  27  30
HETATM   30  O1  UNL     1      14.956  18.098   4.753  1.00  0.00    -0.386 OA
ATOM     31  H1  UNL     1      14.253  18.690   4.991  1.00  0.00     0.211 HD
ENDBRANCH  27  30
BRANCH  27  32
HETATM   32  C32 UNL     1      14.801  19.455   2.836  1.00  0.00     0.037 C 
HETATM   33  C33 UNL     1      14.972  20.945   2.974  1.00  0.00     0.008 C 
ENDBRANCH  27  32
ENDBRANCH  26  27
ENDBRANCH  24  25
ENDBRANCH  23  24
ENDBRANCH  22  23
ENDBRANCH  21  22
BRANCH  21  34
HETATM   34  O2  UNL     1      16.208  19.719   9.202  1.00  0.00    -0.377 OA
ATOM     35  H2  UNL     1      16.699  20.195   9.862  1.00  0.00     0.212 HD
ENDBRANCH  21  34
ENDBRANCH  19  21
ENDBRANCH   1  19
BRANCH  18  36
HETATM   36  C31 UNL     1      10.265  24.912   8.046  1.00  0.00     0.181 C 
HETATM   37  O3  UNL     1       9.070  25.198   7.828  1.00  0.00    -0.647 OA
HETATM   38  O4  UNL     1      10.793  25.296   9.251  1.00  0.00    -0.647 OA
ENDBRANCH  18  36
BRANCH  14  39
HETATM   39  C23 UNL     1       9.834  25.366   2.994  1.00  0.00     0.127 C 
BRANCH  39  40
HETATM   40  C24 UNL     1       8.687  24.539   2.562  1.00  0.00     0.003 A 
HETATM   41  C25 UNL     1       7.556  24.959   1.745  1.00  0.00     0.007 A 
HETATM   42  C26 UNL     1       7.348  24.928   3.231  1.00  0.00     0.007 A 
ENDBRANCH  39  40
ENDBRANCH  14  39
TORSDOF 14
ENDMDL
MODEL 5
REMARK VINA RESULT: -7.778503839      0.795      1.378
REMARK  14 active torsions:
REMARK  status: ('A' for Active; 'I' for Inactive)
REMARK    1  A    between atoms: C2_2  and  C3_3 
REMARK    2  A    between atoms: C3_3  and  O1_4 
REMARK    3  A    between atoms: C3_3  and  C4_6 
REMARK    4  A    between atoms: C3_3  and  C32_41 
REMARK    5  A    between atoms: C5_7  and  C6_8 
REMARK    6  A    between atoms: C6_8  and  C7_9 
REMARK    7  A    between atoms: C7_9  and  C8_10 
REMARK    8  A    between atoms: C8_10  and  C9_11 
REMARK    9  A    between atoms: C9_11  and  O2_12 
REMARK   10  A    between atoms: C9_11  and  N1_14 
REMARK   11  A    between atoms: N1_14  and  C10_16 
REMARK   12  A    between atoms: N2_29  and  C23_30 
REMARK   13  A    between atoms: C23_30  and  C24_31 
REMARK   14  A    between atoms: C30_37  and  C31_38 
ROOT
HETATM    1  C10 UNL     1      15.849  19.283   4.700  1.00  0.00     0.036 A 
HETATM    2  C11 UNL     1      14.499  19.010   4.480  1.00  0.00     0.030 A 
HETATM    3  C12 UNL     1      13.483  19.934   4.756  1.00  0.00     0.010 A 
HETATM    4  C13 UNL     1      13.875  21.128   5.254  1.00  0.00    -0.045 A 
HETATM    5  C14 UNL     1      15.183  21.486   5.496  1.00  0.00    -0.033 A 
HETATM    6  C15 UNL     1      16.125  20.497   5.196  1.00  0.00    -0.024 A 
HETATM    7  C16 UNL     1      17.499  20.882   5.641  1.00  0.00     0.042 C 
HETATM    8  C17 UNL     1      17.212  21.200   7.158  1.00  0.00     0.016 C 
HETATM    9  C18 UNL     1      16.004  22.153   7.237  1.00  0.00    -0.010 A 
HETATM   10  C19 UNL     1      16.207  23.453   7.150  1.00  0.00     0.027 A 
HETATM   11  C20 UNL     1      15.813  22.730   5.975  1.00  0.00    -0.001 A 
HETATM   12  C21 UNL     1      15.406  23.710   5.069  1.00  0.00     0.035 C 
HETATM   13  C22 UNL     1      13.999  24.312   5.191  1.00  0.00     0.123 C 
HETATM   14  N2  UNL     1      13.372  24.084   6.429  1.00  0.00    -0.384 N 
HETATM   15  C27 UNL     1      12.864  22.790   6.748  1.00  0.00     0.008 C 
HETATM   16  C28 UNL     1      12.595  21.876   5.574  1.00  0.00     0.095 C 
HETATM   17  C29 UNL     1      13.543  22.237   7.915  1.00  0.00     0.014 C 
HETATM   18  C30 UNL     1      14.812  21.529   7.929  1.00  0.00     0.121 C 
ENDROOT
BRANCH   1  19
HETATM   19  N1  UNL     1      16.840  18.298   4.377  1.00  0.00    -0.363 N 
ATOM     20  H1  UNL     1      16.577  17.314   4.430  1.00  0.00     0.162 HD
BRANCH  19  21
HETATM   21  C9  UNL     1      18.197  18.626   3.980  1.00  0.00     0.217 C 
BRANCH  21  22
HETATM   22  C8  UNL     1      19.081  17.516   4.467  1.00  0.00     0.054 C 
BRANCH  22  23
HETATM   23  C7  UNL     1      18.861  17.027   5.848  1.00  0.00     0.008 C 
BRANCH  23  24
HETATM   24  C6  UNL     1      19.210  18.004   6.904  1.00  0.00     0.027 C 
BRANCH  24  25
HETATM   25  C5  UNL     1      19.134  17.339   8.234  1.00  0.00    -0.028 C 
HETATM   26  C4  UNL     1      18.534  17.985   9.227  1.00  0.00     0.006 C 
BRANCH  26  27
HETATM   27  C3  UNL     1      18.448  17.334  10.572  1.00  0.00     0.075 C 
BRANCH  27  28
HETATM   28  C2  UNL     1      17.346  16.302  10.497  1.00  0.00     0.037 C 
HETATM   29  C1  UNL     1      16.144  16.887  11.209  1.00  0.00     0.008 C 
ENDBRANCH  27  28
BRANCH  27  30
HETATM   30  O1  UNL     1      19.631  16.691  10.887  1.00  0.00    -0.386 OA
ATOM     31  H1  UNL     1      19.872  16.129  10.159  1.00  0.00     0.211 HD
ENDBRANCH  27  30
BRANCH  27  32
HETATM   32  C32 UNL     1      18.169  18.372  11.647  1.00  0.00     0.037 C 
HETATM   33  C33 UNL     1      18.896  19.662  11.367  1.00  0.00     0.008 C 
ENDBRANCH  27  32
ENDBRANCH  26  27
ENDBRANCH  24  25
ENDBRANCH  23  24
ENDBRANCH  22  23
ENDBRANCH  21  22
BRANCH  21  34
HETATM   34  O2  UNL     1      18.199  18.669   2.599  1.00  0.00    -0.377 OA
ATOM     35  H2  UNL     1      19.090  18.691   2.271  1.00  0.00     0.212 HD
ENDBRANCH  21  34
ENDBRANCH  19  21
ENDBRANCH   1  19
BRANCH  18  36
HETATM   36  C31 UNL     1      15.248  21.472   9.375  1.00  0.00     0.181 C 
HETATM   37  O3  UNL     1      15.222  22.528  10.042  1.00  0.00    -0.647 OA
HETATM   38  O4  UNL     1      15.673  20.337  10.013  1.00  0.00    -0.647 OA
ENDBRANCH  18  36
BRANCH  14  39
HETATM   39  C23 UNL     1      12.654  25.164   7.017  1.00  0.00     0.127 C 
BRANCH  39  40
HETATM   40  C24 UNL     1      11.816  24.873   8.200  1.00  0.00     0.003 A 
HETATM   41  C25 UNL     1      10.503  25.427   8.507  1.00  0.00     0.007 A 
HETATM   42  C26 UNL     1      11.685  26.061   9.180  1.00  0.00     0.007 A 
ENDBRANCH  39  40
ENDBRANCH  14  39
TORSDOF 14
ENDMDL
