MODEL 1
REMARK VINA RESULT: -8.513335109      0.000      0.000
REMARK  15 active torsions:
REMARK  status: ('A' for Active; 'I' for Inactive)
REMARK    1  A    between atoms: C2_2  and  C3_3 
REMARK    2  A    between atoms: C3_3  and  C4_4 
REMARK    3  A    between atoms: C12_12  and  C13_13 
REMARK    4  A    between atoms: C13_13  and  C14_14 
REMARK    5  A    between atoms: C13_13  and  N4_31 
REMARK    6  A    between atoms: C14_14  and  C15_15 
REMARK    7  A    between atoms: C15_15  and  C16_16 
REMARK    8  A    between atoms: C16_16  and  C17_17 
REMARK    9  A    between atoms: C17_17  and  C18_18 
REMARK   10  A    between atoms: C18_18  and  C19_19 
REMARK   11  A    between atoms: C19_19  and  C20_20 
REMARK   12  A    between atoms: C20_20  and  C21_21 
REMARK   13  A    between atoms: C21_21  and  C22_22 
REMARK   14  A    between atoms: C22_22  and  N2_26 
REMARK   15  A    between atoms: N2_26  and  N3_28 
REMARK       I    between atoms: N4_31  and  C23_33 
REMARK       I    between atoms: C23_33  and  N5_35 
ROOT
HETATM    1  C13 UNL     1      13.605  22.615   5.377  1.00  0.00     0.099 C 
ENDROOT
BRANCH   1   2
HETATM    2  C12 UNL     1      12.569  23.560   5.887  1.00  0.00     0.004 C 
HETATM    3  C4  UNL     1      11.164  23.402   5.482  1.00  0.00    -0.069 C 
HETATM    4  C5  UNL     1      10.357  24.596   5.922  1.00  0.00     0.016 C 
HETATM    5  C6  UNL     1      10.236  24.440   7.471  1.00  0.00     0.013 C 
HETATM    6  C10 UNL     1      10.896  25.944   5.730  1.00  0.00     0.013 C 
HETATM    7  C7  UNL     1      11.625  24.447   8.016  1.00  0.00    -0.012 C 
HETATM    8  C8  UNL     1      12.199  25.848   7.809  1.00  0.00     0.009 C 
HETATM    9  C28 UNL     1      12.545  23.403   7.446  1.00  0.00     0.020 C 
HETATM   10  C9  UNL     1      12.298  26.037   6.303  1.00  0.00    -0.012 C 
HETATM   11  C11 UNL     1      13.174  24.943   5.769  1.00  0.00     0.020 C 
BRANCH   3  12
HETATM   12  C3  UNL     1      10.792  22.817   4.192  1.00  0.00    -0.023 C 
BRANCH  12  13
HETATM   13  C2  UNL     1      10.392  23.515   2.989  1.00  0.00     0.023 C 
HETATM   14  C1  UNL     1      11.355  24.437   2.312  1.00  0.00     0.009 C 
ENDBRANCH  12  13
ENDBRANCH   3  12
ENDBRANCH   1   2
BRANCH   1  15
HETATM   15  C14 UNL     1      13.125  21.497   4.496  1.00  0.00     0.026 C 
BRANCH  15  16
HETATM   16  C15 UNL     1      14.234  20.737   3.860  1.00  0.00     0.002 C 
BRANCH  16  17
HETATM   17  C16 UNL     1      14.483  19.353   4.363  1.00  0.00     0.000 C 
BRANCH  17  18
HETATM   18  C17 UNL     1      15.235  18.437   3.472  1.00  0.00     0.000 C 
BRANCH  18  19
HETATM   19  C18 UNL     1      15.955  19.131   2.353  1.00  0.00     0.000 C 
BRANCH  19  20
HETATM   20  C19 UNL     1      17.408  18.783   2.226  1.00  0.00     0.000 C 
BRANCH  20  21
HETATM   21  C20 UNL     1      17.734  17.511   2.937  1.00  0.00     0.007 C 
BRANCH  21  22
HETATM   22  C21 UNL     1      19.006  17.667   3.782  1.00  0.00     0.077 C 
BRANCH  22  23
HETATM   23  C22 UNL     1      18.602  18.203   5.094  1.00  0.00     0.088 C 
HETATM   24  N1  UNL     1      17.964  17.458   5.924  1.00  0.00    -0.388 N 
ATOM     25  H12 UNL     1      17.751  16.499   5.648  1.00  0.00     0.157 HD
ATOM     26  H11 UNL     1      17.685  17.830   6.832  1.00  0.00     0.157 HD
BRANCH  23  27
HETATM   27  N2  UNL     1      18.899  19.539   5.478  1.00  0.00    -0.296 N 
ATOM     28  H2  UNL     1      19.850  19.823   5.713  1.00  0.00     0.187 HD
BRANCH  27  29
HETATM   29  N3  UNL     1      17.836  20.449   5.521  1.00  0.00    -0.344 N 
ATOM     30  H32 UNL     1      17.184  20.516   4.739  1.00  0.00     0.176 HD
ATOM     31  H31 UNL     1      17.748  21.029   6.355  1.00  0.00     0.176 HD
ENDBRANCH  27  29
ENDBRANCH  23  27
ENDBRANCH  22  23
ENDBRANCH  21  22
ENDBRANCH  20  21
ENDBRANCH  19  20
ENDBRANCH  18  19
ENDBRANCH  17  18
ENDBRANCH  16  17
ENDBRANCH  15  16
ENDBRANCH   1  15
BRANCH   1  32
HETATM   32  N4  UNL     1      14.486  22.201   6.451  1.00  0.00    -0.337 N 
HETATM   33  C23 UNL     1      15.592  22.824   7.012  1.00  0.00     0.318 C 
HETATM   34  O1  UNL     1      16.117  23.926   6.704  1.00  0.00    -0.247 OA
HETATM   35  N5  UNL     1      16.293  22.183   8.104  1.00  0.00    -0.333 N 
HETATM   36  C24 UNL     1      17.434  22.787   8.707  1.00  0.00     0.142 C 
HETATM   37  C27 UNL     1      15.755  20.894   8.538  1.00  0.00     0.142 C 
HETATM   38  C25 UNL     1      18.644  21.876   8.762  1.00  0.00     0.160 C 
HETATM   39  S1  UNL     1      18.204  20.293   9.449  1.00  0.00     0.147 S 
HETATM   40  O2  UNL     1      18.903  20.060  10.756  1.00  0.00    -0.228 OA
HETATM   41  O3  UNL     1      18.484  19.208   8.462  1.00  0.00    -0.228 OA
HETATM   42  C26 UNL     1      16.443  20.378   9.779  1.00  0.00     0.160 C 
ATOM     43  H4  UNL     1      14.252  21.299   6.866  1.00  0.00     0.164 HD
ENDBRANCH   1  32
TORSDOF 15
ENDMDL
MODEL 2
REMARK VINA RESULT: -8.335836670      0.629      1.035
REMARK  15 active torsions:
REMARK  status: ('A' for Active; 'I' for Inactive)
REMARK    1  A    between atoms: C2_2  and  C3_3 
REMARK    2  A    between atoms: C3_3  and  C4_4 
REMARK    3  A    between atoms: C12_12  and  C13_13 
REMARK    4  A    between atoms: C13_13  and  C14_14 
REMARK    5  A    between atoms: C13_13  and  N4_31 
REMARK    6  A    between atoms: C14_14  and  C15_15 
REMARK    7  A    between atoms: C15_15  and  C16_16 
REMARK    8  A    between atoms: C16_16  and  C17_17 
REMARK    9  A    between atoms: C17_17  and  C18_18 
REMARK   10  A    between atoms: C18_18  and  C19_19 
REMARK   11  A    between atoms: C19_19  and  C20_20 
REMARK   12  A    between atoms: C20_20  and  C21_21 
REMARK   13  A    between atoms: C21_21  and  C22_22 
REMARK   14  A    between atoms: C22_22  and  N2_26 
REMARK   15  A    between atoms: N2_26  and  N3_28 
REMARK       I    between atoms: N4_31  and  C23_33 
REMARK       I    between atoms: C23_33  and  N5_35 
ROOT
HETATM    1  C13 UNL     1      13.863  22.662   5.352  1.00  0.00     0.099 C 
ENDROOT
BRANCH   1   2
HETATM    2  C12 UNL     1      12.768  23.541   5.855  1.00  0.00     0.004 C 
HETATM    3  C4  UNL     1      11.375  23.286   5.457  1.00  0.00    -0.069 C 
HETATM    4  C5  UNL     1      10.491  24.429   5.887  1.00  0.00     0.016 C 
HETATM    5  C6  UNL     1      10.385  24.282   7.437  1.00  0.00     0.013 C 
HETATM    6  C10 UNL     1      10.939  25.808   5.679  1.00  0.00     0.013 C 
HETATM    7  C7  UNL     1      11.772  24.387   7.977  1.00  0.00    -0.012 C 
HETATM    8  C8  UNL     1      12.251  25.820   7.754  1.00  0.00     0.009 C 
HETATM    9  C28 UNL     1      12.757  23.400   7.417  1.00  0.00     0.020 C 
HETATM   10  C9  UNL     1      12.334  26.000   6.246  1.00  0.00    -0.012 C 
HETATM   11  C11 UNL     1      13.279  24.960   5.721  1.00  0.00     0.020 C 
BRANCH   3  12
HETATM   12  C3  UNL     1      11.039  22.665   4.174  1.00  0.00    -0.023 C 
BRANCH  12  13
HETATM   13  C2  UNL     1      10.538  23.314   2.983  1.00  0.00     0.023 C 
HETATM   14  C1  UNL     1      11.368  24.352   2.299  1.00  0.00     0.009 C 
ENDBRANCH  12  13
ENDBRANCH   3  12
ENDBRANCH   1   2
BRANCH   1  15
HETATM   15  C14 UNL     1      13.475  21.596   4.368  1.00  0.00     0.026 C 
BRANCH  15  16
HETATM   16  C15 UNL     1      13.847  20.226   4.813  1.00  0.00     0.002 C 
BRANCH  16  17
HETATM   17  C16 UNL     1      14.431  19.315   3.784  1.00  0.00     0.000 C 
BRANCH  17  18
HETATM   18  C17 UNL     1      15.007  19.947   2.573  1.00  0.00     0.000 C 
BRANCH  18  19
HETATM   19  C18 UNL     1      16.254  19.280   2.072  1.00  0.00     0.000 C 
BRANCH  19  20
HETATM   20  C19 UNL     1      16.468  17.883   2.574  1.00  0.00     0.000 C 
BRANCH  20  21
HETATM   21  C20 UNL     1      17.912  17.604   2.830  1.00  0.00     0.007 C 
BRANCH  21  22
HETATM   22  C21 UNL     1      18.454  18.506   3.948  1.00  0.00     0.077 C 
BRANCH  22  23
HETATM   23  C22 UNL     1      17.797  18.099   5.202  1.00  0.00     0.088 C 
HETATM   24  N1  UNL     1      17.200  18.975   5.929  1.00  0.00    -0.388 N 
ATOM     25  H12 UNL     1      17.196  19.945   5.612  1.00  0.00     0.157 HD
ATOM     26  H11 UNL     1      16.745  18.693   6.797  1.00  0.00     0.157 HD
BRANCH  23  27
HETATM   27  N2  UNL     1      17.801  16.748   5.643  1.00  0.00    -0.296 N 
ATOM     28  H2  UNL     1      17.321  16.018   5.117  1.00  0.00     0.187 HD
BRANCH  27  29
HETATM   29  N3  UNL     1      18.490  16.459   6.827  1.00  0.00    -0.344 N 
ATOM     30  H32 UNL     1      19.288  15.824   6.817  1.00  0.00     0.176 HD
ATOM     31  H31 UNL     1      18.160  16.904   7.684  1.00  0.00     0.176 HD
ENDBRANCH  27  29
ENDBRANCH  23  27
ENDBRANCH  22  23
ENDBRANCH  21  22
ENDBRANCH  20  21
ENDBRANCH  19  20
ENDBRANCH  18  19
ENDBRANCH  17  18
ENDBRANCH  16  17
ENDBRANCH  15  16
ENDBRANCH   1  15
BRANCH   1  32
HETATM   32  N4  UNL     1      14.685  22.198   6.452  1.00  0.00    -0.337 N 
HETATM   33  C23 UNL     1      15.770  22.785   7.088  1.00  0.00     0.318 C 
HETATM   34  O1  UNL     1      16.322  23.890   6.847  1.00  0.00    -0.247 OA
HETATM   35  N5  UNL     1      16.409  22.096   8.189  1.00  0.00    -0.333 N 
HETATM   36  C24 UNL     1      17.526  22.662   8.868  1.00  0.00     0.142 C 
HETATM   37  C27 UNL     1      15.835  20.799   8.548  1.00  0.00     0.142 C 
HETATM   38  C25 UNL     1      18.721  21.734   8.948  1.00  0.00     0.160 C 
HETATM   39  S1  UNL     1      18.231  20.133   9.553  1.00  0.00     0.147 S 
HETATM   40  O2  UNL     1      18.862  19.843  10.883  1.00  0.00    -0.228 OA
HETATM   41  O3  UNL     1      18.545  19.081   8.542  1.00  0.00    -0.228 OA
HETATM   42  C26 UNL     1      16.456  20.229   9.801  1.00  0.00     0.160 C 
ATOM     43  H4  UNL     1      14.421  21.284   6.821  1.00  0.00     0.164 HD
ENDBRANCH   1  32
TORSDOF 15
ENDMDL
MODEL 3
REMARK VINA RESULT: -8.328793415      2.558      5.153
REMARK  15 active torsions:
REMARK  status: ('A' for Active; 'I' for Inactive)
REMARK    1  A    between atoms: C2_2  and  C3_3 
REMARK    2  A    between atoms: C3_3  and  C4_4 
REMARK    3  A    between atoms: C12_12  and  C13_13 
REMARK    4  A    between atoms: C13_13  and  C14_14 
REMARK    5  A    between atoms: C13_13  and  N4_31 
REMARK    6  A    between atoms: C14_14  and  C15_15 
REMARK    7  A    between atoms: C15_15  and  C16_16 
REMARK    8  A    between atoms: C16_16  and  C17_17 
REMARK    9  A    between atoms: C17_17  and  C18_18 
REMARK   10  A    between atoms: C18_18  and  C19_19 
REMARK   11  A    between atoms: C19_19  and  C20_20 
REMARK   12  A    between atoms: C20_20  and  C21_21 
REMARK   13  A    between atoms: C21_21  and  C22_22 
REMARK   14  A    between atoms: C22_22  and  N2_26 
REMARK   15  A    between atoms: N2_26  and  N3_28 
REMARK       I    between atoms: N4_31  and  C23_33 
REMARK       I    between atoms: C23_33  and  N5_35 
ROOT
HETATM    1  C13 UNL     1      12.867  23.161   5.394  1.00  0.00     0.099 C 
ENDROOT
BRANCH   1   2
HETATM    2  C12 UNL     1      11.666  23.622   4.640  1.00  0.00     0.004 C 
HETATM    3  C4  UNL     1      10.619  24.398   5.323  1.00  0.00    -0.069 C 
HETATM    4  C5  UNL     1       9.411  24.542   4.433  1.00  0.00     0.016 C 
HETATM    5  C6  UNL     1       9.854  25.554   3.329  1.00  0.00     0.013 C 
HETATM    6  C10 UNL     1       8.918  23.381   3.689  1.00  0.00     0.013 C 
HETATM    7  C7  UNL     1      11.021  24.945   2.628  1.00  0.00    -0.012 C 
HETATM    8  C8  UNL     1      10.517  23.725   1.858  1.00  0.00     0.009 C 
HETATM    9  C28 UNL     1      12.182  24.578   3.509  1.00  0.00     0.020 C 
HETATM   10  C9  UNL     1      10.050  22.733   2.913  1.00  0.00    -0.012 C 
HETATM   11  C11 UNL     1      11.220  22.442   3.804  1.00  0.00     0.020 C 
BRANCH   3  12
HETATM   12  C3  UNL     1      10.346  24.237   6.752  1.00  0.00    -0.023 C 
BRANCH  12  13
HETATM   13  C2  UNL     1       9.851  25.236   7.675  1.00  0.00     0.023 C 
HETATM   14  C1  UNL     1      10.681  25.633   8.853  1.00  0.00     0.009 C 
ENDBRANCH  12  13
ENDBRANCH   3  12
ENDBRANCH   1   2
BRANCH   1  15
HETATM   15  C14 UNL     1      13.772  24.227   5.941  1.00  0.00     0.026 C 
BRANCH  15  16
HETATM   16  C15 UNL     1      13.870  24.206   7.426  1.00  0.00     0.002 C 
BRANCH  16  17
HETATM   17  C16 UNL     1      13.634  22.895   8.102  1.00  0.00     0.000 C 
BRANCH  17  18
HETATM   18  C17 UNL     1      14.794  21.980   8.220  1.00  0.00     0.000 C 
BRANCH  18  19
HETATM   19  C18 UNL     1      15.211  21.705   9.635  1.00  0.00     0.000 C 
BRANCH  19  20
HETATM   20  C19 UNL     1      16.327  20.715   9.783  1.00  0.00     0.000 C 
BRANCH  20  21
HETATM   21  C20 UNL     1      16.694  20.098   8.474  1.00  0.00     0.007 C 
BRANCH  21  22
HETATM   22  C21 UNL     1      18.131  20.467   8.079  1.00  0.00     0.077 C 
BRANCH  22  23
HETATM   23  C22 UNL     1      18.227  20.361   6.612  1.00  0.00     0.088 C 
HETATM   24  N1  UNL     1      17.293  20.840   5.870  1.00  0.00    -0.388 N 
ATOM     25  H12 UNL     1      16.497  21.288   6.324  1.00  0.00     0.157 HD
ATOM     26  H11 UNL     1      17.360  20.766   4.855  1.00  0.00     0.157 HD
BRANCH  23  27
HETATM   27  N2  UNL     1      19.336  19.738   5.980  1.00  0.00    -0.296 N 
ATOM     28  H2  UNL     1      20.131  20.283   5.645  1.00  0.00     0.187 HD
BRANCH  27  29
HETATM   29  N3  UNL     1      19.297  18.345   5.835  1.00  0.00    -0.344 N 
ATOM     30  H32 UNL     1      18.607  17.911   5.223  1.00  0.00     0.176 HD
ATOM     31  H31 UNL     1      19.979  17.799   6.362  1.00  0.00     0.176 HD
ENDBRANCH  27  29
ENDBRANCH  23  27
ENDBRANCH  22  23
ENDBRANCH  21  22
ENDBRANCH  20  21
ENDBRANCH  19  20
ENDBRANCH  18  19
ENDBRANCH  17  18
ENDBRANCH  16  17
ENDBRANCH  15  16
ENDBRANCH   1  15
BRANCH   1  32
HETATM   32  N4  UNL     1      13.547  22.107   4.667  1.00  0.00    -0.337 N 
HETATM   33  C23 UNL     1      13.599  20.738   4.885  1.00  0.00     0.318 C 
HETATM   34  O1  UNL     1      13.059  20.065   5.802  1.00  0.00    -0.247 OA
HETATM   35  N5  UNL     1      14.356  19.900   3.980  1.00  0.00    -0.333 N 
HETATM   36  C24 UNL     1      14.436  18.490   4.168  1.00  0.00     0.142 C 
HETATM   37  C27 UNL     1      15.020  20.592   2.875  1.00  0.00     0.142 C 
HETATM   38  C25 UNL     1      15.856  17.962   4.197  1.00  0.00     0.160 C 
HETATM   39  S1  UNL     1      16.777  18.567   2.798  1.00  0.00     0.147 S 
HETATM   40  O2  UNL     1      17.172  17.443   1.886  1.00  0.00    -0.228 OA
HETATM   41  O3  UNL     1      17.956  19.357   3.259  1.00  0.00    -0.228 OA
HETATM   42  C26 UNL     1      15.647  19.630   1.895  1.00  0.00     0.160 C 
ATOM     43  H4  UNL     1      14.078  22.427   3.856  1.00  0.00     0.164 HD
ENDBRANCH   1  32
TORSDOF 15
ENDMDL
MODEL 4
REMARK VINA RESULT: -8.236872932      6.216      9.561
REMARK  15 active torsions:
REMARK  status: ('A' for Active; 'I' for Inactive)
REMARK    1  A    between atoms: C2_2  and  C3_3 
REMARK    2  A    between atoms: C3_3  and  C4_4 
REMARK    3  A    between atoms: C12_12  and  C13_13 
REMARK    4  A    between atoms: C13_13  and  C14_14 
REMARK    5  A    between atoms: C13_13  and  N4_31 
REMARK    6  A    between atoms: C14_14  and  C15_15 
REMARK    7  A    between atoms: C15_15  and  C16_16 
REMARK    8  A    between atoms: C16_16  and  C17_17 
REMARK    9  A    between atoms: C17_17  and  C18_18 
REMARK   10  A    between atoms: C18_18  and  C19_19 
REMARK   11  A    between atoms: C19_19  and  C20_20 
REMARK   12  A    between atoms: C20_20  and  C21_21 
REMARK   13  A    between atoms: C21_21  and  C22_22 
REMARK   14  A    between atoms: C22_22  and  N2_26 
REMARK   15  A    between atoms: N2_26  and  N3_28 
REMARK       I    between atoms: N4_31  and  C23_33 
REMARK       I    between atoms: C23_33  and  N5_35 
ROOT
HETATM    1  C13 UNL     1       9.022  26.415   4.864  1.00  0.00     0.099 C 
ENDROOT
BRANCH   1   2
HETATM    2  C12 UNL     1       9.645  25.373   3.998  1.00  0.00     0.004 C 
HETATM    3  C4  UNL     1       9.824  25.620   2.558  1.00  0.00    -0.069 C 
HETATM    4  C5  UNL     1      10.244  24.352   1.860  1.00  0.00     0.016 C 
HETATM    5  C6  UNL     1      11.724  24.129   2.306  1.00  0.00     0.013 C 
HETATM    6  C10 UNL     1       9.570  23.092   2.180  1.00  0.00     0.013 C 
HETATM    7  C7  UNL     1      11.711  23.995   3.792  1.00  0.00    -0.012 C 
HETATM    8  C8  UNL     1      11.000  22.687   4.135  1.00  0.00     0.009 C 
HETATM    9  C28 UNL     1      11.100  25.148   4.537  1.00  0.00     0.020 C 
HETATM   10  C9  UNL     1       9.559  22.867   3.680  1.00  0.00    -0.012 C 
HETATM   11  C11 UNL     1       9.007  24.060   4.402  1.00  0.00     0.020 C 
BRANCH   3  12
HETATM   12  C3  UNL     1       8.925  26.498   1.807  1.00  0.00    -0.023 C 
BRANCH  12  13
HETATM   13  C2  UNL     1       7.816  26.110   0.961  1.00  0.00     0.023 C 
HETATM   14  C1  UNL     1       6.715  25.270   1.521  1.00  0.00     0.009 C 
ENDBRANCH  12  13
ENDBRANCH   3  12
ENDBRANCH   1   2
BRANCH   1  15
HETATM   15  C14 UNL     1       9.623  26.608   6.226  1.00  0.00     0.026 C 
BRANCH  15  16
HETATM   16  C15 UNL     1       8.726  26.169   7.329  1.00  0.00     0.002 C 
BRANCH  16  17
HETATM   17  C16 UNL     1       9.314  25.266   8.362  1.00  0.00     0.000 C 
BRANCH  17  18
HETATM   18  C17 UNL     1      10.239  25.880   9.345  1.00  0.00     0.000 C 
BRANCH  18  19
HETATM   19  C18 UNL     1      11.688  25.769   8.969  1.00  0.00     0.000 C 
BRANCH  19  20
HETATM   20  C19 UNL     1      12.032  24.577   8.127  1.00  0.00     0.000 C 
BRANCH  20  21
HETATM   21  C20 UNL     1      13.222  24.838   7.263  1.00  0.00     0.007 C 
BRANCH  21  22
HETATM   22  C21 UNL     1      13.888  23.522   6.838  1.00  0.00     0.077 C 
BRANCH  22  23
HETATM   23  C22 UNL     1      15.232  23.850   6.330  1.00  0.00     0.088 C 
HETATM   24  N1  UNL     1      16.254  23.743   7.101  1.00  0.00    -0.388 N 
ATOM     25  H12 UNL     1      16.106  23.429   8.060  1.00  0.00     0.157 HD
ATOM     26  H11 UNL     1      17.184  23.971   6.749  1.00  0.00     0.157 HD
BRANCH  23  27
HETATM   27  N2  UNL     1      15.438  24.287   4.994  1.00  0.00    -0.296 N 
ATOM     28  H2  UNL     1      15.625  25.267   4.780  1.00  0.00     0.187 HD
BRANCH  27  29
HETATM   29  N3  UNL     1      15.377  23.321   3.982  1.00  0.00    -0.344 N 
ATOM     30  H32 UNL     1      15.326  22.331   4.219  1.00  0.00     0.176 HD
ATOM     31  H31 UNL     1      15.388  23.650   3.017  1.00  0.00     0.176 HD
ENDBRANCH  27  29
ENDBRANCH  23  27
ENDBRANCH  22  23
ENDBRANCH  21  22
ENDBRANCH  20  21
ENDBRANCH  19  20
ENDBRANCH  18  19
ENDBRANCH  17  18
ENDBRANCH  16  17
ENDBRANCH  15  16
ENDBRANCH   1  15
BRANCH   1  32
HETATM   32  N4  UNL     1       7.578  26.285   4.853  1.00  0.00    -0.337 N 
HETATM   33  C23 UNL     1       6.581  27.229   4.652  1.00  0.00     0.318 C 
HETATM   34  O1  UNL     1       6.696  28.463   4.433  1.00  0.00    -0.247 OA
HETATM   35  N5  UNL     1       5.194  26.818   4.681  1.00  0.00    -0.333 N 
HETATM   36  C24 UNL     1       4.139  27.754   4.480  1.00  0.00     0.142 C 
HETATM   37  C27 UNL     1       4.956  25.395   4.927  1.00  0.00     0.142 C 
HETATM   38  C25 UNL     1       3.094  27.734   5.577  1.00  0.00     0.160 C 
HETATM   39  S1  UNL     1       2.545  26.069   5.887  1.00  0.00     0.147 S 
HETATM   40  O2  UNL     1       1.096  25.905   5.532  1.00  0.00    -0.228 OA
HETATM   41  O3  UNL     1       2.821  25.691   7.304  1.00  0.00    -0.228 OA
HETATM   42  C26 UNL     1       3.499  25.029   4.781  1.00  0.00     0.160 C 
ATOM     43  H4  UNL     1       7.237  25.339   5.024  1.00  0.00     0.164 HD
ENDBRANCH   1  32
TORSDOF 15
ENDMDL
MODEL 5
REMARK VINA RESULT: -8.170666856      1.067      1.470
REMARK  15 active torsions:
REMARK  status: ('A' for Active; 'I' for Inactive)
REMARK    1  A    between atoms: C2_2  and  C3_3 
REMARK    2  A    between atoms: C3_3  and  C4_4 
REMARK    3  A    between atoms: C12_12  and  C13_13 
REMARK    4  A    between atoms: C13_13  and  C14_14 
REMARK    5  A    between atoms: C13_13  and  N4_31 
REMARK    6  A    between atoms: C14_14  and  C15_15 
REMARK    7  A    between atoms: C15_15  and  C16_16 
REMARK    8  A    between atoms: C16_16  and  C17_17 
REMARK    9  A    between atoms: C17_17  and  C18_18 
REMARK   10  A    between atoms: C18_18  and  C19_19 
REMARK   11  A    between atoms: C19_19  and  C20_20 
REMARK   12  A    between atoms: C20_20  and  C21_21 
REMARK   13  A    between atoms: C21_21  and  C22_22 
REMARK   14  A    between atoms: C22_22  and  N2_26 
REMARK   15  A    between atoms: N2_26  and  N3_28 
REMARK       I    between atoms: N4_31  and  C23_33 
REMARK       I    between atoms: C23_33  and  N5_35 
ROOT
HETATM    1  C13 UNL     1      14.159  24.169   5.909  1.00  0.00     0.099 C 
ENDROOT
BRANCH   1   2
HETATM    2  C12 UNL     1      12.788  24.488   6.404  1.00  0.00     0.004 C 
HETATM    3  C4  UNL     1      11.704  23.503   6.261  1.00  0.00    -0.069 C 
HETATM    4  C5  UNL     1      10.379  24.131   6.609  1.00  0.00     0.016 C 
HETATM    5  C6  UNL     1      10.419  24.301   8.160  1.00  0.00     0.013 C 
HETATM    6  C10 UNL     1      10.056  25.466   6.101  1.00  0.00     0.013 C 
HETATM    7  C7  UNL     1      11.579  25.188   8.468  1.00  0.00    -0.012 C 
HETATM    8  C8  UNL     1      11.254  26.581   7.931  1.00  0.00     0.009 C 
HETATM    9  C28 UNL     1      12.907  24.713   7.951  1.00  0.00     0.020 C 
HETATM   10  C9  UNL     1      11.179  26.436   6.418  1.00  0.00    -0.012 C 
HETATM   11  C11 UNL     1      12.501  25.904   5.952  1.00  0.00     0.020 C 
BRANCH   3  12
HETATM   12  C3  UNL     1      11.685  22.528   5.169  1.00  0.00    -0.023 C 
BRANCH  12  13
HETATM   13  C2  UNL     1      10.901  22.579   3.954  1.00  0.00     0.023 C 
HETATM   14  C1  UNL     1      11.140  23.672   2.963  1.00  0.00     0.009 C 
ENDBRANCH  12  13
ENDBRANCH   3  12
ENDBRANCH   1   2
BRANCH   1  15
HETATM   15  C14 UNL     1      14.284  23.798   4.459  1.00  0.00     0.026 C 
BRANCH  15  16
HETATM   16  C15 UNL     1      15.232  22.676   4.223  1.00  0.00     0.002 C 
BRANCH  16  17
HETATM   17  C16 UNL     1      14.776  21.585   3.310  1.00  0.00     0.000 C 
BRANCH  17  18
HETATM   18  C17 UNL     1      14.159  20.393   3.940  1.00  0.00     0.000 C 
BRANCH  18  19
HETATM   19  C18 UNL     1      14.633  19.088   3.370  1.00  0.00     0.000 C 
BRANCH  19  20
HETATM   20  C19 UNL     1      14.997  18.049   4.388  1.00  0.00     0.000 C 
BRANCH  20  21
HETATM   21  C20 UNL     1      16.301  17.397   4.068  1.00  0.00     0.007 C 
BRANCH  21  22
HETATM   22  C21 UNL     1      17.258  18.389   3.393  1.00  0.00     0.077 C 
BRANCH  22  23
HETATM   23  C22 UNL     1      18.562  18.276   4.070  1.00  0.00     0.088 C 
HETATM   24  N1  UNL     1      19.417  17.401   3.676  1.00  0.00    -0.388 N 
ATOM     25  H12 UNL     1      19.166  16.798   2.893  1.00  0.00     0.157 HD
ATOM     26  H11 UNL     1      20.319  17.323   4.145  1.00  0.00     0.157 HD
BRANCH  23  27
HETATM   27  N2  UNL     1      18.912  19.116   5.161  1.00  0.00    -0.296 N 
ATOM     28  H2  UNL     1      19.649  18.855   5.816  1.00  0.00     0.187 HD
BRANCH  27  29
HETATM   29  N3  UNL     1      18.206  20.317   5.302  1.00  0.00    -0.344 N 
ATOM     30  H32 UNL     1      17.579  20.636   4.564  1.00  0.00     0.176 HD
ATOM     31  H31 UNL     1      18.347  20.847   6.163  1.00  0.00     0.176 HD
ENDBRANCH  27  29
ENDBRANCH  23  27
ENDBRANCH  22  23
ENDBRANCH  21  22
ENDBRANCH  20  21
ENDBRANCH  19  20
ENDBRANCH  18  19
ENDBRANCH  17  18
ENDBRANCH  16  17
ENDBRANCH  15  16
ENDBRANCH   1  15
BRANCH   1  32
HETATM   32  N4  UNL     1      14.830  23.267   6.823  1.00  0.00    -0.337 N 
HETATM   33  C23 UNL     1      15.992  23.423   7.566  1.00  0.00     0.318 C 
HETATM   34  O1  UNL     1      16.769  24.411   7.616  1.00  0.00    -0.247 OA
HETATM   35  N5  UNL     1      16.438  22.347   8.426  1.00  0.00    -0.333 N 
HETATM   36  C24 UNL     1      17.625  22.464   9.204  1.00  0.00     0.142 C 
HETATM   37  C27 UNL     1      15.595  21.151   8.439  1.00  0.00     0.142 C 
HETATM   38  C25 UNL     1      18.598  21.320   9.002  1.00  0.00     0.160 C 
HETATM   39  S1  UNL     1      17.765  19.755   9.169  1.00  0.00     0.147 S 
HETATM   40  O2  UNL     1      18.279  18.996  10.357  1.00  0.00    -0.228 OA
HETATM   41  O3  UNL     1      17.887  18.970   7.906  1.00  0.00    -0.228 OA
HETATM   42  C26 UNL     1      16.043  20.151   9.478  1.00  0.00     0.160 C 
ATOM     43  H4  UNL     1      14.370  22.364   6.941  1.00  0.00     0.164 HD
ENDBRANCH   1  32
TORSDOF 15
ENDMDL
