MODEL 1
REMARK VINA RESULT: -6.958382559      0.000      0.000
REMARK  6 active torsions:
REMARK  status: ('A' for Active; 'I' for Inactive)
REMARK    1  A    between atoms: C5_7  and  C6_8 
REMARK    2  A    between atoms: C6_8  and  C7_9 
REMARK    3  A    between atoms: C7_9  and  N2_10 
REMARK    4  A    between atoms: C8_14  and  N3_15 
REMARK    5  A    between atoms: N3_15  and  O1_17 
REMARK    6  A    between atoms: C10_20  and  C11_21 
ROOT
HETATM    1  C1  UNL     1      12.720  17.291  -1.149  1.00  0.00     0.050 C 
HETATM    2  C2  UNL     1      11.823  16.501  -0.225  1.00  0.00    -0.037 A 
HETATM    3  C3  UNL     1      10.637  15.976  -0.672  1.00  0.00     0.039 A 
HETATM    4  C4  UNL     1       9.818  15.249   0.167  1.00  0.00     0.046 A 
HETATM    5  N1  UNL     1       8.631  14.639   0.000  1.00  0.00    -0.357 N 
ATOM      6  H1  UNL     1       8.113  14.626  -0.879  1.00  0.00     0.166 HD
HETATM    7  C5  UNL     1       8.216  14.055   1.113  1.00  0.00     0.041 A 
HETATM    8  C8  UNL     1       9.156  14.269   2.104  1.00  0.00     0.090 A 
HETATM    9  C9  UNL     1      10.164  15.020   1.507  1.00  0.00     0.035 A 
HETATM   10  C10 UNL     1      11.355  15.557   1.928  1.00  0.00     0.043 A 
HETATM   11  C12 UNL     1      12.193  16.299   1.073  1.00  0.00     0.052 A 
HETATM   12 CL1  UNL     1      13.707  16.972   1.651  1.00  0.00    -0.083 Cl
ENDROOT
BRANCH   7  13
HETATM   13  C6  UNL     1       6.969  13.267   1.336  1.00  0.00     0.086 C 
BRANCH  13  14
HETATM   14  C7  UNL     1       5.819  14.061   1.829  1.00  0.00     0.235 C 
BRANCH  14  15
HETATM   15  N2  UNL     1       6.101  15.260   2.536  1.00  0.00    -0.079 N 
ATOM     16  H23 UNL     1       6.835  15.081   3.222  1.00  0.00     0.274 HD
ATOM     17  H22 UNL     1       6.576  15.914   1.914  1.00  0.00     0.274 HD
ATOM     18  H21 UNL     1       5.322  15.735   2.992  1.00  0.00     0.274 HD
ENDBRANCH  14  15
ENDBRANCH  13  14
ENDBRANCH   7  13
BRANCH   8  19
HETATM   19  N3  UNL     1       9.080  13.823   3.461  1.00  0.00    -0.267 N 
ATOM     20  H3  UNL     1       9.550  12.966   3.751  1.00  0.00     0.194 HD
BRANCH  19  21
HETATM   21  O1  UNL     1       8.420  14.507   4.300  1.00  0.00    -0.289 OA
ATOM     22  H1  UNL     1       7.761  14.078   4.831  1.00  0.00     0.244 HD
ENDBRANCH  19  21
ENDBRANCH   8  19
BRANCH  10  23
HETATM   23  C11 UNL     1      11.827  15.362   3.319  1.00  0.00     0.389 C 
HETATM   24  F1  UNL     1      12.197  16.633   3.798  1.00  0.00    -0.209 F 
HETATM   25  F2  UNL     1      13.012  14.632   3.340  1.00  0.00    -0.209 F 
ENDBRANCH  10  23
TORSDOF 6
ENDMDL
MODEL 2
REMARK VINA RESULT: -6.783389656      3.215      5.276
REMARK  6 active torsions:
REMARK  status: ('A' for Active; 'I' for Inactive)
REMARK    1  A    between atoms: C5_7  and  C6_8 
REMARK    2  A    between atoms: C6_8  and  C7_9 
REMARK    3  A    between atoms: C7_9  and  N2_10 
REMARK    4  A    between atoms: C8_14  and  N3_15 
REMARK    5  A    between atoms: N3_15  and  O1_17 
REMARK    6  A    between atoms: C10_20  and  C11_21 
ROOT
HETATM    1  C1  UNL     1       6.699  13.620   1.016  1.00  0.00     0.050 C 
HETATM    2  C2  UNL     1       8.098  13.894   1.516  1.00  0.00    -0.037 A 
HETATM    3  C3  UNL     1       8.551  13.336   2.685  1.00  0.00     0.039 A 
HETATM    4  C4  UNL     1       9.830  13.580   3.142  1.00  0.00     0.046 A 
HETATM    5  N1  UNL     1      10.516  13.178   4.227  1.00  0.00    -0.357 N 
ATOM      6  H1  UNL     1      10.138  12.561   4.946  1.00  0.00     0.166 HD
HETATM    7  C5  UNL     1      11.741  13.678   4.249  1.00  0.00     0.041 A 
HETATM    8  C8  UNL     1      11.918  14.467   3.128  1.00  0.00     0.090 A 
HETATM    9  C9  UNL     1      10.715  14.404   2.431  1.00  0.00     0.035 A 
HETATM   10  C10 UNL     1      10.237  14.948   1.266  1.00  0.00     0.043 A 
HETATM   11  C12 UNL     1       8.932  14.701   0.798  1.00  0.00     0.052 A 
HETATM   12 CL1  UNL     1       8.356  15.419  -0.697  1.00  0.00    -0.083 Cl
ENDROOT
BRANCH   7  13
HETATM   13  C6  UNL     1      12.812  13.461   5.264  1.00  0.00     0.086 C 
BRANCH  13  14
HETATM   14  C7  UNL     1      13.891  12.541   4.833  1.00  0.00     0.235 C 
BRANCH  14  15
HETATM   15  N2  UNL     1      15.160  13.107   4.538  1.00  0.00    -0.079 N 
ATOM     16  H23 UNL     1      15.886  12.412   4.711  1.00  0.00     0.274 HD
ATOM     17  H22 UNL     1      15.248  13.229   3.529  1.00  0.00     0.274 HD
ATOM     18  H21 UNL     1      15.409  13.979   5.005  1.00  0.00     0.274 HD
ENDBRANCH  14  15
ENDBRANCH  13  14
ENDBRANCH   7  13
BRANCH   8  19
HETATM   19  N3  UNL     1      13.094  15.207   2.783  1.00  0.00    -0.267 N 
ATOM     20  H3  UNL     1      13.923  14.726   2.435  1.00  0.00     0.194 HD
BRANCH  19  21
HETATM   21  O1  UNL     1      13.092  16.467   2.917  1.00  0.00    -0.289 OA
ATOM     22  H1  UNL     1      13.240  17.013   2.155  1.00  0.00     0.244 HD
ENDBRANCH  19  21
ENDBRANCH   8  19
BRANCH  10  23
HETATM   23  C11 UNL     1      11.092  15.820   0.427  1.00  0.00     0.389 C 
HETATM   24  F1  UNL     1      10.638  17.137   0.627  1.00  0.00    -0.209 F 
HETATM   25  F2  UNL     1      10.863  15.582  -0.926  1.00  0.00    -0.209 F 
ENDBRANCH  10  23
TORSDOF 6
ENDMDL
MODEL 3
REMARK VINA RESULT: -6.437279764      3.514      5.356
REMARK  6 active torsions:
REMARK  status: ('A' for Active; 'I' for Inactive)
REMARK    1  A    between atoms: C5_7  and  C6_8 
REMARK    2  A    between atoms: C6_8  and  C7_9 
REMARK    3  A    between atoms: C7_9  and  N2_10 
REMARK    4  A    between atoms: C8_14  and  N3_15 
REMARK    5  A    between atoms: N3_15  and  O1_17 
REMARK    6  A    between atoms: C10_20  and  C11_21 
ROOT
HETATM    1  C1  UNL     1      13.019  12.232   5.976  1.00  0.00     0.050 C 
HETATM    2  C2  UNL     1      12.217  12.932   4.904  1.00  0.00    -0.037 A 
HETATM    3  C3  UNL     1      12.790  13.892   4.109  1.00  0.00     0.039 A 
HETATM    4  C4  UNL     1      12.062  14.530   3.125  1.00  0.00     0.046 A 
HETATM    5  N1  UNL     1      12.361  15.486   2.227  1.00  0.00    -0.357 N 
ATOM      6  H1  UNL     1      13.280  15.921   2.139  1.00  0.00     0.166 HD
HETATM    7  C5  UNL     1      11.320  15.794   1.471  1.00  0.00     0.041 A 
HETATM    8  C8  UNL     1      10.244  15.018   1.859  1.00  0.00     0.090 A 
HETATM    9  C9  UNL     1      10.712  14.223   2.900  1.00  0.00     0.035 A 
HETATM   10  C10 UNL     1      10.165  13.259   3.709  1.00  0.00     0.043 A 
HETATM   11  C12 UNL     1      10.905  12.607   4.714  1.00  0.00     0.052 A 
HETATM   12 CL1  UNL     1      10.166  11.381   5.730  1.00  0.00    -0.083 Cl
ENDROOT
BRANCH   7  13
HETATM   13  C6  UNL     1      11.245  16.784   0.357  1.00  0.00     0.086 C 
BRANCH  13  14
HETATM   14  C7  UNL     1      12.091  16.457  -0.815  1.00  0.00     0.235 C 
BRANCH  14  15
HETATM   15  N2  UNL     1      13.444  16.889  -0.792  1.00  0.00    -0.079 N 
ATOM     16  H23 UNL     1      13.474  17.888  -0.584  1.00  0.00     0.274 HD
ATOM     17  H22 UNL     1      13.906  16.507   0.033  1.00  0.00     0.274 HD
ATOM     18  H21 UNL     1      14.015  16.699  -1.615  1.00  0.00     0.274 HD
ENDBRANCH  14  15
ENDBRANCH  13  14
ENDBRANCH   7  13
BRANCH   8  19
HETATM   19  N3  UNL     1       8.923  15.056   1.309  1.00  0.00    -0.267 N 
ATOM     20  H3  UNL     1       8.210  15.658   1.720  1.00  0.00     0.194 HD
BRANCH  19  21
HETATM   21  O1  UNL     1       8.652  14.333   0.304  1.00  0.00    -0.289 OA
ATOM     22  H1  UNL     1       7.797  13.925   0.246  1.00  0.00     0.244 HD
ENDBRANCH  19  21
ENDBRANCH   8  19
BRANCH  10  23
HETATM   23  C11 UNL     1       8.751  12.844   3.547  1.00  0.00     0.389 C 
HETATM   24  F1  UNL     1       8.051  13.369   4.650  1.00  0.00    -0.209 F 
HETATM   25  F2  UNL     1       8.623  11.465   3.688  1.00  0.00    -0.209 F 
ENDBRANCH  10  23
TORSDOF 6
ENDMDL
MODEL 4
REMARK VINA RESULT: -6.234703430      3.874      5.980
REMARK  6 active torsions:
REMARK  status: ('A' for Active; 'I' for Inactive)
REMARK    1  A    between atoms: C5_7  and  C6_8 
REMARK    2  A    between atoms: C6_8  and  C7_9 
REMARK    3  A    between atoms: C7_9  and  N2_10 
REMARK    4  A    between atoms: C8_14  and  N3_15 
REMARK    5  A    between atoms: N3_15  and  O1_17 
REMARK    6  A    between atoms: C10_20  and  C11_21 
ROOT
HETATM    1  C1  UNL     1       9.754  11.989   5.405  1.00  0.00     0.050 C 
HETATM    2  C2  UNL     1      10.129  13.014   4.360  1.00  0.00    -0.037 A 
HETATM    3  C3  UNL     1      11.382  13.574   4.338  1.00  0.00     0.039 A 
HETATM    4  C4  UNL     1      11.730  14.507   3.383  1.00  0.00     0.046 A 
HETATM    5  N1  UNL     1      12.856  15.200   3.135  1.00  0.00    -0.357 N 
ATOM      6  H1  UNL     1      13.710  15.120   3.687  1.00  0.00     0.166 HD
HETATM    7  C5  UNL     1      12.721  16.000   2.090  1.00  0.00     0.041 A 
HETATM    8  C8  UNL     1      11.442  15.859   1.584  1.00  0.00     0.090 A 
HETATM    9  C9  UNL     1      10.820  14.918   2.398  1.00  0.00     0.035 A 
HETATM   10  C10 UNL     1       9.575  14.342   2.443  1.00  0.00     0.043 A 
HETATM   11  C12 UNL     1       9.217  13.391   3.417  1.00  0.00     0.052 A 
HETATM   12 CL1  UNL     1       7.612  12.680   3.442  1.00  0.00    -0.083 Cl
ENDROOT
BRANCH   7  13
HETATM   13  C6  UNL     1      13.734  16.913   1.486  1.00  0.00     0.086 C 
BRANCH  13  14
HETATM   14  C7  UNL     1      14.093  18.078   2.329  1.00  0.00     0.235 C 
BRANCH  14  15
HETATM   15  N2  UNL     1      15.456  18.229   2.699  1.00  0.00    -0.079 N 
ATOM     16  H23 UNL     1      15.704  19.218   2.673  1.00  0.00     0.274 HD
ATOM     17  H22 UNL     1      15.559  18.032   3.694  1.00  0.00     0.274 HD
ATOM     18  H21 UNL     1      16.150  17.693   2.177  1.00  0.00     0.274 HD
ENDBRANCH  14  15
ENDBRANCH  13  14
ENDBRANCH   7  13
BRANCH   8  19
HETATM   19  N3  UNL     1      10.885  16.560   0.468  1.00  0.00    -0.267 N 
ATOM     20  H3  UNL     1      10.372  17.430   0.609  1.00  0.00     0.194 HD
BRANCH  19  21
HETATM   21  O1  UNL     1      11.036  16.086  -0.697  1.00  0.00    -0.289 OA
ATOM     22  H1  UNL     1      10.355  16.222  -1.344  1.00  0.00     0.244 HD
ENDBRANCH  19  21
ENDBRANCH   8  19
BRANCH  10  23
HETATM   23  C11 UNL     1       8.540  14.691   1.441  1.00  0.00     0.389 C 
HETATM   24  F1  UNL     1       7.411  15.118   2.164  1.00  0.00    -0.209 F 
HETATM   25  F2  UNL     1       8.103  13.554   0.766  1.00  0.00    -0.209 F 
ENDBRANCH  10  23
TORSDOF 6
ENDMDL
MODEL 5
REMARK VINA RESULT: -6.224830132      2.552      3.576
REMARK  6 active torsions:
REMARK  status: ('A' for Active; 'I' for Inactive)
REMARK    1  A    between atoms: C5_7  and  C6_8 
REMARK    2  A    between atoms: C6_8  and  C7_9 
REMARK    3  A    between atoms: C7_9  and  N2_10 
REMARK    4  A    between atoms: C8_14  and  N3_15 
REMARK    5  A    between atoms: N3_15  and  O1_17 
REMARK    6  A    between atoms: C10_20  and  C11_21 
ROOT
HETATM    1  C1  UNL     1      13.691  17.599   2.199  1.00  0.00     0.050 C 
HETATM    2  C2  UNL     1      12.503  16.675   2.072  1.00  0.00    -0.037 A 
HETATM    3  C3  UNL     1      11.958  16.070   3.176  1.00  0.00     0.039 A 
HETATM    4  C4  UNL     1      10.869  15.229   3.065  1.00  0.00     0.046 A 
HETATM    5  N1  UNL     1      10.154  14.520   3.956  1.00  0.00    -0.357 N 
ATOM      6  H1  UNL     1      10.342  14.506   4.959  1.00  0.00     0.166 HD
HETATM    7  C5  UNL     1       9.178  13.841   3.376  1.00  0.00     0.041 A 
HETATM    8  C8  UNL     1       9.213  14.087   2.016  1.00  0.00     0.090 A 
HETATM    9  C9  UNL     1      10.277  14.962   1.822  1.00  0.00     0.035 A 
HETATM   10  C10 UNL     1      10.841  15.581   0.734  1.00  0.00     0.043 A 
HETATM   11  C12 UNL     1      11.953  16.438   0.845  1.00  0.00     0.052 A 
HETATM   12 CL1  UNL     1      12.647  17.207  -0.572  1.00  0.00    -0.083 Cl
ENDROOT
BRANCH   7  13
HETATM   13  C6  UNL     1       8.161  12.955   4.012  1.00  0.00     0.086 C 
BRANCH  13  14
HETATM   14  C7  UNL     1       8.721  11.768   4.700  1.00  0.00     0.235 C 
BRANCH  14  15
HETATM   15  N2  UNL     1       9.784  11.077   4.060  1.00  0.00    -0.079 N 
ATOM     16  H23 UNL     1       9.450  10.168   3.741  1.00  0.00     0.274 HD
ATOM     17  H22 UNL     1       9.991  11.529   3.169  1.00  0.00     0.274 HD
ATOM     18  H21 UNL     1      10.651  10.953   4.584  1.00  0.00     0.274 HD
ENDBRANCH  14  15
ENDBRANCH  13  14
ENDBRANCH   7  13
BRANCH   8  19
HETATM   19  N3  UNL     1       8.342  13.531   1.026  1.00  0.00    -0.267 N 
ATOM     20  H3  UNL     1       8.596  12.672   0.539  1.00  0.00     0.194 HD
BRANCH  19  21
HETATM   21  O1  UNL     1       7.251  14.120   0.763  1.00  0.00    -0.289 OA
ATOM     22  H1  UNL     1       6.520  13.612   0.431  1.00  0.00     0.244 HD
ENDBRANCH  19  21
ENDBRANCH   8  19
BRANCH  10  23
HETATM   23  C11 UNL     1      10.286  15.382  -0.625  1.00  0.00     0.389 C 
HETATM   24  F1  UNL     1      11.201  15.966  -1.521  1.00  0.00    -0.209 F 
HETATM   25  F2  UNL     1       9.121  16.125  -0.796  1.00  0.00    -0.209 F 
ENDBRANCH  10  23
TORSDOF 6
ENDMDL
