MODEL 1
REMARK VINA RESULT: -6.920514843      0.000      0.000
REMARK  6 active torsions:
REMARK  status: ('A' for Active; 'I' for Inactive)
REMARK    1  A    between atoms: O1_1  and  N1_3 
REMARK    2  A    between atoms: C1_5  and  C2_6 
REMARK    3  A    between atoms: C1_5  and  C10_16 
REMARK    4  A    between atoms: C2_6  and  N2_7 
REMARK    5  A    between atoms: N2_7  and  C3_9 
REMARK    6  A    between atoms: C3_9  and  C4_10 
ROOT
HETATM    1  C2  UNL     1      11.149  16.610   0.244  1.00  0.00     0.114 C 
ENDROOT
BRANCH   1   2
HETATM    2  C1  UNL     1      12.444  16.706   0.912  1.00  0.00     0.100 C 
HETATM    3  N1  UNL     1      13.528  16.664   0.230  1.00  0.00    -0.268 N 
ATOM      4  H1  UNL     1      14.424  16.732   0.711  1.00  0.00     0.194 HD
BRANCH   3   5
HETATM    5  O1  UNL     1      13.508  16.529  -1.128  1.00  0.00    -0.290 OA
ATOM      6  H1  UNL     1      14.045  15.881  -1.570  1.00  0.00     0.244 HD
ENDBRANCH   3   5
BRANCH   2   7
HETATM    7  C10 UNL     1      12.544  16.846   2.382  1.00  0.00     0.234 C 
HETATM    8 CL1  UNL     1      11.062  17.459   3.137  1.00  0.00    -0.077 Cl
HETATM    9 CL2  UNL     1      13.948  17.834   2.768  1.00  0.00    -0.077 Cl
HETATM   10 CL3  UNL     1      12.811  15.203   3.032  1.00  0.00    -0.077 Cl
ENDBRANCH   2   7
ENDBRANCH   1   2
BRANCH   1  11
HETATM   11  N2  UNL     1      10.796  15.361  -0.304  1.00  0.00    -0.397 N 
ATOM     12  H2  UNL     1      10.878  15.194  -1.307  1.00  0.00     0.158 HD
BRANCH  11  13
HETATM   13  C3  UNL     1      10.329  14.342   0.557  1.00  0.00     0.123 C 
BRANCH  13  14
HETATM   14  C4  UNL     1       9.106  14.760   1.391  1.00  0.00     0.003 C 
HETATM   15  C5  UNL     1       7.836  14.330   0.772  1.00  0.00     0.006 C 
HETATM   16  C6  UNL     1       6.728  13.941   1.652  1.00  0.00     0.000 C 
HETATM   17  C7  UNL     1       6.965  13.925   3.109  1.00  0.00     0.000 C 
HETATM   18  C8  UNL     1       8.121  14.753   3.597  1.00  0.00     0.000 C 
HETATM   19  C9  UNL     1       9.327  14.280   2.792  1.00  0.00     0.006 C 
ENDBRANCH  13  14
ENDBRANCH  11  13
ENDBRANCH   1  11
TORSDOF 6
ENDMDL
MODEL 2
REMARK VINA RESULT: -6.912499420      0.073      1.249
REMARK  6 active torsions:
REMARK  status: ('A' for Active; 'I' for Inactive)
REMARK    1  A    between atoms: O1_1  and  N1_3 
REMARK    2  A    between atoms: C1_5  and  C2_6 
REMARK    3  A    between atoms: C1_5  and  C10_16 
REMARK    4  A    between atoms: C2_6  and  N2_7 
REMARK    5  A    between atoms: N2_7  and  C3_9 
REMARK    6  A    between atoms: C3_9  and  C4_10 
ROOT
HETATM    1  C2  UNL     1      11.157  16.640   0.210  1.00  0.00     0.114 C 
ENDROOT
BRANCH   1   2
HETATM    2  C1  UNL     1      12.443  16.661   0.903  1.00  0.00     0.100 C 
HETATM    3  N1  UNL     1      13.536  16.636   0.236  1.00  0.00    -0.268 N 
ATOM      4  H1  UNL     1      14.426  16.653   0.735  1.00  0.00     0.194 HD
BRANCH   3   5
HETATM    5  O1  UNL     1      13.537  16.590  -1.128  1.00  0.00    -0.290 OA
ATOM      6  H1  UNL     1      14.344  16.496  -1.620  1.00  0.00     0.244 HD
ENDBRANCH   3   5
BRANCH   2   7
HETATM    7  C10 UNL     1      12.521  16.704   2.380  1.00  0.00     0.234 C 
HETATM    8 CL1  UNL     1      12.838  15.124   3.118  1.00  0.00    -0.077 Cl
HETATM    9 CL2  UNL     1      11.058  17.453   3.009  1.00  0.00    -0.077 Cl
HETATM   10 CL3  UNL     1      13.912  17.750   2.785  1.00  0.00    -0.077 Cl
ENDBRANCH   2   7
ENDBRANCH   1   2
BRANCH   1  11
HETATM   11  N2  UNL     1      10.745  15.414  -0.348  1.00  0.00    -0.397 N 
ATOM     12  H2  UNL     1      10.765  15.272  -1.358  1.00  0.00     0.158 HD
BRANCH  11  13
HETATM   13  C3  UNL     1      10.305  14.382   0.512  1.00  0.00     0.123 C 
BRANCH  13  14
HETATM   14  C4  UNL     1       9.089  14.776   1.366  1.00  0.00     0.003 C 
HETATM   15  C5  UNL     1       7.816  14.331   0.764  1.00  0.00     0.006 C 
HETATM   16  C6  UNL     1       6.728  13.920   1.657  1.00  0.00     0.000 C 
HETATM   17  C7  UNL     1       6.986  13.897   3.110  1.00  0.00     0.000 C 
HETATM   18  C8  UNL     1       8.137  14.740   3.587  1.00  0.00     0.000 C 
HETATM   19  C9  UNL     1       9.338  14.291   2.761  1.00  0.00     0.006 C 
ENDBRANCH  13  14
ENDBRANCH  11  13
ENDBRANCH   1  11
TORSDOF 6
ENDMDL
MODEL 3
REMARK VINA RESULT: -6.767114218      0.065      1.249
REMARK  6 active torsions:
REMARK  status: ('A' for Active; 'I' for Inactive)
REMARK    1  A    between atoms: O1_1  and  N1_3 
REMARK    2  A    between atoms: C1_5  and  C2_6 
REMARK    3  A    between atoms: C1_5  and  C10_16 
REMARK    4  A    between atoms: C2_6  and  N2_7 
REMARK    5  A    between atoms: N2_7  and  C3_9 
REMARK    6  A    between atoms: C3_9  and  C4_10 
ROOT
HETATM    1  C2  UNL     1      11.162  16.623   0.282  1.00  0.00     0.114 C 
ENDROOT
BRANCH   1   2
HETATM    2  C1  UNL     1      12.477  16.675   0.916  1.00  0.00     0.100 C 
HETATM    3  N1  UNL     1      13.540  16.634   0.202  1.00  0.00    -0.268 N 
ATOM      4  H1  UNL     1      14.451  16.673   0.660  1.00  0.00     0.194 HD
BRANCH   3   5
HETATM    5  O1  UNL     1      13.480  16.541  -1.158  1.00  0.00    -0.290 OA
ATOM      6  H1  UNL     1      13.659  15.722  -1.606  1.00  0.00     0.244 HD
ENDBRANCH   3   5
BRANCH   2   7
HETATM    7  C10 UNL     1      12.620  16.770   2.386  1.00  0.00     0.234 C 
HETATM    8 CL1  UNL     1      13.912  17.868   2.902  1.00  0.00    -0.077 Cl
HETATM    9 CL2  UNL     1      12.817  15.151   3.047  1.00  0.00    -0.077 Cl
HETATM   10 CL3  UNL     1      11.087  17.451   3.003  1.00  0.00    -0.077 Cl
ENDBRANCH   2   7
ENDBRANCH   1   2
BRANCH   1  11
HETATM   11  N2  UNL     1      10.771  15.397  -0.291  1.00  0.00    -0.397 N 
ATOM     12  H2  UNL     1      10.825  15.257  -1.300  1.00  0.00     0.158 HD
BRANCH  11  13
HETATM   13  C3  UNL     1      10.303  14.364   0.553  1.00  0.00     0.123 C 
BRANCH  13  14
HETATM   14  C4  UNL     1       9.081  14.769   1.394  1.00  0.00     0.003 C 
HETATM   15  C5  UNL     1       7.811  14.327   0.782  1.00  0.00     0.006 C 
HETATM   16  C6  UNL     1       6.713  13.926   1.668  1.00  0.00     0.000 C 
HETATM   17  C7  UNL     1       6.958  13.909   3.123  1.00  0.00     0.000 C 
HETATM   18  C8  UNL     1       8.108  14.749   3.606  1.00  0.00     0.000 C 
HETATM   19  C9  UNL     1       9.315  14.289   2.794  1.00  0.00     0.006 C 
ENDBRANCH  13  14
ENDBRANCH  11  13
ENDBRANCH   1  11
TORSDOF 6
ENDMDL
MODEL 4
REMARK VINA RESULT: -6.698159828      0.432      1.817
REMARK  6 active torsions:
REMARK  status: ('A' for Active; 'I' for Inactive)
REMARK    1  A    between atoms: O1_1  and  N1_3 
REMARK    2  A    between atoms: C1_5  and  C2_6 
REMARK    3  A    between atoms: C1_5  and  C10_16 
REMARK    4  A    between atoms: C2_6  and  N2_7 
REMARK    5  A    between atoms: N2_7  and  C3_9 
REMARK    6  A    between atoms: C3_9  and  C4_10 
ROOT
HETATM    1  C2  UNL     1      10.968  16.615   0.381  1.00  0.00     0.114 C 
ENDROOT
BRANCH   1   2
HETATM    2  C1  UNL     1      12.297  16.631   0.987  1.00  0.00     0.100 C 
HETATM    3  N1  UNL     1      13.344  16.579   0.250  1.00  0.00    -0.268 N 
ATOM      4  H1  UNL     1      14.264  16.592   0.689  1.00  0.00     0.194 HD
BRANCH   3   5
HETATM    5  O1  UNL     1      13.253  16.507  -1.110  1.00  0.00    -0.290 OA
ATOM      6  H1  UNL     1      12.430  16.657  -1.560  1.00  0.00     0.244 HD
ENDBRANCH   3   5
BRANCH   2   7
HETATM    7  C10 UNL     1      12.473  16.701   2.455  1.00  0.00     0.234 C 
HETATM    8 CL1  UNL     1      12.840  15.135   3.199  1.00  0.00    -0.077 Cl
HETATM    9 CL2  UNL     1      11.054  17.461   3.166  1.00  0.00    -0.077 Cl
HETATM   10 CL3  UNL     1      13.887  17.754   2.747  1.00  0.00    -0.077 Cl
ENDBRANCH   2   7
ENDBRANCH   1   2
BRANCH   1  11
HETATM   11  N2  UNL     1      10.449  15.363  -0.002  1.00  0.00    -0.397 N 
ATOM     12  H2  UNL     1      10.009  15.242  -0.915  1.00  0.00     0.158 HD
BRANCH  11  13
HETATM   13  C3  UNL     1      10.547  14.276   0.896  1.00  0.00     0.123 C 
BRANCH  13  14
HETATM   14  C4  UNL     1       9.209  13.908   1.558  1.00  0.00     0.003 C 
HETATM   15  C5  UNL     1       9.137  14.363   2.961  1.00  0.00     0.006 C 
HETATM   16  C6  UNL     1       7.839  14.799   3.487  1.00  0.00     0.000 C 
HETATM   17  C7  UNL     1       6.687  14.835   2.565  1.00  0.00     0.000 C 
HETATM   18  C8  UNL     1       6.804  13.983   1.332  1.00  0.00     0.000 C 
HETATM   19  C9  UNL     1       8.111  14.406   0.670  1.00  0.00     0.006 C 
ENDBRANCH  13  14
ENDBRANCH  11  13
ENDBRANCH   1  11
TORSDOF 6
ENDMDL
MODEL 5
REMARK VINA RESULT: -6.665952654      0.444      1.322
REMARK  6 active torsions:
REMARK  status: ('A' for Active; 'I' for Inactive)
REMARK    1  A    between atoms: O1_1  and  N1_3 
REMARK    2  A    between atoms: C1_5  and  C2_6 
REMARK    3  A    between atoms: C1_5  and  C10_16 
REMARK    4  A    between atoms: C2_6  and  N2_7 
REMARK    5  A    between atoms: N2_7  and  C3_9 
REMARK    6  A    between atoms: C3_9  and  C4_10 
ROOT
HETATM    1  C2  UNL     1      10.973  16.629   0.421  1.00  0.00     0.114 C 
ENDROOT
BRANCH   1   2
HETATM    2  C1  UNL     1      12.311  16.693   1.005  1.00  0.00     0.100 C 
HETATM    3  N1  UNL     1      13.347  16.596   0.259  1.00  0.00    -0.268 N 
ATOM      4  H1  UNL     1      14.274  16.643   0.682  1.00  0.00     0.194 HD
BRANCH   3   5
HETATM    5  O1  UNL     1      13.237  16.431  -1.092  1.00  0.00    -0.290 OA
ATOM      6  H1  UNL     1      13.362  17.157  -1.691  1.00  0.00     0.244 HD
ENDBRANCH   3   5
BRANCH   2   7
HETATM    7  C10 UNL     1      12.508  16.863   2.462  1.00  0.00     0.234 C 
HETATM    8 CL1  UNL     1      11.082  17.502   3.299  1.00  0.00    -0.077 Cl
HETATM    9 CL2  UNL     1      13.939  17.849   2.735  1.00  0.00    -0.077 Cl
HETATM   10 CL3  UNL     1      12.808  15.232   3.128  1.00  0.00    -0.077 Cl
ENDBRANCH   2   7
ENDBRANCH   1   2
BRANCH   1  11
HETATM   11  N2  UNL     1      10.496  15.359   0.041  1.00  0.00    -0.397 N 
ATOM     12  H2  UNL     1      10.091  15.215  -0.884  1.00  0.00     0.158 HD
BRANCH  11  13
HETATM   13  C3  UNL     1      10.587  14.289   0.959  1.00  0.00     0.123 C 
BRANCH  13  14
HETATM   14  C4  UNL     1       9.239  13.917   1.600  1.00  0.00     0.003 C 
HETATM   15  C5  UNL     1       9.129  14.403   2.990  1.00  0.00     0.006 C 
HETATM   16  C6  UNL     1       7.813  14.832   3.476  1.00  0.00     0.000 C 
HETATM   17  C7  UNL     1       6.682  14.831   2.528  1.00  0.00     0.000 C 
HETATM   18  C8  UNL     1       6.839  13.952   1.318  1.00  0.00     0.000 C 
HETATM   19  C9  UNL     1       8.155  14.379   0.675  1.00  0.00     0.006 C 
ENDBRANCH  13  14
ENDBRANCH  11  13
ENDBRANCH   1  11
TORSDOF 6
ENDMDL
