MODEL 1
REMARK VINA RESULT: -6.920107050      0.000      0.000
REMARK  3 active torsions:
REMARK  status: ('A' for Active; 'I' for Inactive)
REMARK    1  A    between atoms: N1_1  and  N2_4 
REMARK    2  A    between atoms: C1_5  and  C2_6 
REMARK    3  A    between atoms: C4_8  and  C5_9 
ROOT
HETATM    1  N2  UNL     1       9.958  12.594   3.437  1.00  0.00    -0.217 N 
HETATM    2  C1  UNL     1       9.519  13.777   3.028  1.00  0.00     0.156 A 
HETATM    3  N3  UNL     1       8.570  14.127   3.940  1.00  0.00    -0.281 N 
ATOM      4  H3  UNL     1       8.034  14.994   3.910  1.00  0.00     0.188 HD
HETATM    5  N4  UNL     1       8.436  13.210   4.855  1.00  0.00    -0.273 N 
ATOM      6  H4  UNL     1       7.791  13.240   5.645  1.00  0.00     0.189 HD
HETATM    7  C9  UNL     1       9.296  12.220   4.578  1.00  0.00     0.213 A 
HETATM    8  S1  UNL     1       9.511  10.861   5.415  1.00  0.00    -0.037 SA
ENDROOT
BRANCH   2   9
HETATM    9  C2  UNL     1       9.901  14.577   1.895  1.00  0.00     0.034 A 
HETATM   10  C3  UNL     1      11.054  15.297   1.743  1.00  0.00     0.029 A 
HETATM   11  C4  UNL     1      11.358  16.053   0.610  1.00  0.00     0.010 A 
HETATM   12  C6  UNL     1      10.456  16.087  -0.427  1.00  0.00     0.126 A 
HETATM   13  F2  UNL     1      10.728  16.811  -1.536  1.00  0.00    -0.205 F 
HETATM   14  C7  UNL     1       9.277  15.372  -0.315  1.00  0.00     0.067 A 
HETATM   15  C8  UNL     1       9.008  14.638   0.814  1.00  0.00     0.051 A 
HETATM   16 CL1  UNL     1       7.476  13.764   0.856  1.00  0.00    -0.083 Cl
BRANCH  11  17
HETATM   17  C5  UNL     1      12.632  16.812   0.513  1.00  0.00     0.263 C 
HETATM   18  F1  UNL     1      13.340  16.530  -0.630  1.00  0.00    -0.250 F 
ENDBRANCH  11  17
ENDBRANCH   2   9
BRANCH   1  19
HETATM   19  N1  UNL     1      10.936  11.792   2.854  1.00  0.00    -0.335 N 
ATOM     20  H12 UNL     1      11.916  12.073   2.819  1.00  0.00     0.177 HD
ATOM     21  H11 UNL     1      10.821  10.879   2.413  1.00  0.00     0.177 HD
ENDBRANCH   1  19
TORSDOF 3
ENDMDL
MODEL 2
REMARK VINA RESULT: -6.888380411      1.091      1.128
REMARK  3 active torsions:
REMARK  status: ('A' for Active; 'I' for Inactive)
REMARK    1  A    between atoms: N1_1  and  N2_4 
REMARK    2  A    between atoms: C1_5  and  C2_6 
REMARK    3  A    between atoms: C4_8  and  C5_9 
ROOT
HETATM    1  N2  UNL     1      10.005  12.518   3.514  1.00  0.00    -0.217 N 
HETATM    2  C1  UNL     1       9.740  13.783   3.220  1.00  0.00     0.156 A 
HETATM    3  N3  UNL     1       8.730  14.130   4.065  1.00  0.00    -0.281 N 
ATOM      4  H3  UNL     1       8.291  15.050   4.093  1.00  0.00     0.188 HD
HETATM    5  N4  UNL     1       8.396  13.131   4.833  1.00  0.00    -0.273 N 
ATOM      6  H4  UNL     1       7.668  13.141   5.547  1.00  0.00     0.189 HD
HETATM    7  C9  UNL     1       9.178  12.089   4.520  1.00  0.00     0.213 A 
HETATM    8  S1  UNL     1       9.154  10.625   5.189  1.00  0.00    -0.037 SA
ENDROOT
BRANCH   2   9
HETATM    9  C2  UNL     1      10.333  14.663   2.248  1.00  0.00     0.034 A 
HETATM   10  C3  UNL     1      11.505  15.357   2.369  1.00  0.00     0.029 A 
HETATM   11  C4  UNL     1      12.020  16.196   1.379  1.00  0.00     0.010 A 
HETATM   12  C6  UNL     1      11.322  16.344   0.205  1.00  0.00     0.126 A 
HETATM   13  F2  UNL     1      11.800  17.151  -0.770  1.00  0.00    -0.205 F 
HETATM   14  C7  UNL     1      10.131  15.660   0.041  1.00  0.00     0.067 A 
HETATM   15  C8  UNL     1       9.651  14.842   1.035  1.00  0.00     0.051 A 
HETATM   16 CL1  UNL     1       8.123  14.015   0.725  1.00  0.00    -0.083 Cl
BRANCH  11  17
HETATM   17  C5  UNL     1      13.303  16.921   1.579  1.00  0.00     0.263 C 
HETATM   18  F1  UNL     1      13.332  17.650   2.743  1.00  0.00    -0.250 F 
ENDBRANCH  11  17
ENDBRANCH   2   9
BRANCH   1  19
HETATM   19  N1  UNL     1      10.960  11.683   2.936  1.00  0.00    -0.335 N 
ATOM     20  H12 UNL     1      11.023  11.551   1.927  1.00  0.00     0.177 HD
ATOM     21  H11 UNL     1      11.677  11.129   3.404  1.00  0.00     0.177 HD
ENDBRANCH   1  19
TORSDOF 3
ENDMDL
MODEL 3
REMARK VINA RESULT: -6.680872779      2.945      3.930
REMARK  3 active torsions:
REMARK  status: ('A' for Active; 'I' for Inactive)
REMARK    1  A    between atoms: N1_1  and  N2_4 
REMARK    2  A    between atoms: C1_5  and  C2_6 
REMARK    3  A    between atoms: C4_8  and  C5_9 
ROOT
HETATM    1  N2  UNL     1      11.913  11.951   3.555  1.00  0.00    -0.217 N 
HETATM    2  C1  UNL     1      11.284  13.113   3.446  1.00  0.00     0.156 A 
HETATM    3  N3  UNL     1      12.164  14.030   3.934  1.00  0.00    -0.281 N 
ATOM      4  H3  UNL     1      11.982  15.032   3.991  1.00  0.00     0.188 HD
HETATM    5  N4  UNL     1      13.271  13.460   4.321  1.00  0.00    -0.273 N 
ATOM      6  H4  UNL     1      14.081  13.933   4.721  1.00  0.00     0.189 HD
HETATM    7  C9  UNL     1      13.157  12.144   4.099  1.00  0.00     0.213 A 
HETATM    8  S1  UNL     1      14.259  11.011   4.408  1.00  0.00    -0.037 SA
ENDROOT
BRANCH   2   9
HETATM    9  C2  UNL     1       9.973  13.425   2.940  1.00  0.00     0.034 A 
HETATM   10  C3  UNL     1       9.668  14.008   1.742  1.00  0.00     0.029 A 
HETATM   11  C4  UNL     1       8.366  14.281   1.317  1.00  0.00     0.010 A 
HETATM   12  C6  UNL     1       7.316  13.948   2.138  1.00  0.00     0.126 A 
HETATM   13  F2  UNL     1       6.046  14.201   1.749  1.00  0.00    -0.205 F 
HETATM   14  C7  UNL     1       7.580  13.355   3.360  1.00  0.00     0.067 A 
HETATM   15  C8  UNL     1       8.873  13.100   3.748  1.00  0.00     0.051 A 
HETATM   16 CL1  UNL     1       9.101  12.342   5.326  1.00  0.00    -0.083 Cl
BRANCH  11  17
HETATM   17  C5  UNL     1       8.107  14.918  -0.001  1.00  0.00     0.263 C 
HETATM   18  F1  UNL     1       9.254  15.340  -0.628  1.00  0.00    -0.250 F 
ENDBRANCH  11  17
ENDBRANCH   2   9
BRANCH   1  19
HETATM   19  N1  UNL     1      11.451  10.686   3.197  1.00  0.00    -0.335 N 
ATOM     20  H12 UNL     1      10.486  10.398   3.357  1.00  0.00     0.177 HD
ATOM     21  H11 UNL     1      11.972   9.927   2.758  1.00  0.00     0.177 HD
ENDBRANCH   1  19
TORSDOF 3
ENDMDL
MODEL 4
REMARK VINA RESULT: -6.657340591      2.026      3.118
REMARK  3 active torsions:
REMARK  status: ('A' for Active; 'I' for Inactive)
REMARK    1  A    between atoms: N1_1  and  N2_4 
REMARK    2  A    between atoms: C1_5  and  C2_6 
REMARK    3  A    between atoms: C4_8  and  C5_9 
ROOT
HETATM    1  N2  UNL     1       9.520  11.989   3.986  1.00  0.00    -0.217 N 
HETATM    2  C1  UNL     1      10.431  12.318   3.080  1.00  0.00     0.156 A 
HETATM    3  N3  UNL     1      11.228  11.220   2.975  1.00  0.00    -0.281 N 
ATOM      4  H3  UNL     1      12.033  11.149   2.354  1.00  0.00     0.188 HD
HETATM    5  N4  UNL     1      10.827  10.271   3.773  1.00  0.00    -0.273 N 
ATOM      6  H4  UNL     1      11.259   9.352   3.877  1.00  0.00     0.189 HD
HETATM    7  C9  UNL     1       9.749  10.713   4.433  1.00  0.00     0.213 A 
HETATM    8  S1  UNL     1       8.888   9.909   5.532  1.00  0.00    -0.037 SA
ENDROOT
BRANCH   2   9
HETATM    9  C2  UNL     1      10.608  13.534   2.330  1.00  0.00     0.034 A 
HETATM   10  C3  UNL     1       9.975  13.891   1.172  1.00  0.00     0.029 A 
HETATM   11  C4  UNL     1      10.199  15.093   0.498  1.00  0.00     0.010 A 
HETATM   12  C6  UNL     1      11.108  15.984   1.016  1.00  0.00     0.126 A 
HETATM   13  F2  UNL     1      11.342  17.156   0.383  1.00  0.00    -0.205 F 
HETATM   14  C7  UNL     1      11.772  15.663   2.187  1.00  0.00     0.067 A 
HETATM   15  C8  UNL     1      11.527  14.472   2.826  1.00  0.00     0.051 A 
HETATM   16 CL1  UNL     1      12.427  14.160   4.311  1.00  0.00    -0.083 Cl
BRANCH  11  17
HETATM   17  C5  UNL     1       9.473  15.415  -0.758  1.00  0.00     0.263 C 
HETATM   18  F1  UNL     1       8.108  15.403  -0.608  1.00  0.00    -0.250 F 
ENDBRANCH  11  17
ENDBRANCH   2   9
BRANCH   1  19
HETATM   19  N1  UNL     1       8.465  12.762   4.465  1.00  0.00    -0.335 N 
ATOM     20  H12 UNL     1       7.502  12.609   4.164  1.00  0.00     0.177 HD
ATOM     21  H11 UNL     1       8.501  13.531   5.134  1.00  0.00     0.177 HD
ENDBRANCH   1  19
TORSDOF 3
ENDMDL
MODEL 5
REMARK VINA RESULT: -6.649655346      4.378      5.741
REMARK  3 active torsions:
REMARK  status: ('A' for Active; 'I' for Inactive)
REMARK    1  A    between atoms: N1_1  and  N2_4 
REMARK    2  A    between atoms: C1_5  and  C2_6 
REMARK    3  A    between atoms: C4_8  and  C5_9 
ROOT
HETATM    1  N2  UNL     1      10.804  15.087   1.219  1.00  0.00    -0.217 N 
HETATM    2  C1  UNL     1       9.927  14.152   1.558  1.00  0.00     0.156 A 
HETATM    3  N3  UNL     1       9.028  14.134   0.536  1.00  0.00    -0.281 N 
ATOM      4  H3  UNL     1       8.218  13.516   0.492  1.00  0.00     0.188 HD
HETATM    5  N4  UNL     1       9.338  15.009  -0.378  1.00  0.00    -0.273 N 
ATOM      6  H4  UNL     1       8.821  15.186  -1.239  1.00  0.00     0.189 HD
HETATM    7  C9  UNL     1      10.456  15.635   0.012  1.00  0.00     0.213 A 
HETATM    8  S1  UNL     1      11.239  16.801  -0.778  1.00  0.00    -0.037 SA
ENDROOT
BRANCH   2   9
HETATM    9  C2  UNL     1       9.864  13.304   2.720  1.00  0.00     0.034 A 
HETATM   10  C3  UNL     1      10.614  12.188   2.969  1.00  0.00     0.029 A 
HETATM   11  C4  UNL     1      10.497  11.412   4.124  1.00  0.00     0.010 A 
HETATM   12  C6  UNL     1       9.580  11.778   5.080  1.00  0.00     0.126 A 
HETATM   13  F2  UNL     1       9.448  11.043   6.207  1.00  0.00    -0.205 F 
HETATM   14  C7  UNL     1       8.800  12.901   4.868  1.00  0.00     0.067 A 
HETATM   15  C8  UNL     1       8.940  13.643   3.720  1.00  0.00     0.051 A 
HETATM   16 CL1  UNL     1       7.898  15.057   3.547  1.00  0.00    -0.083 Cl
BRANCH  11  17
HETATM   17  C5  UNL     1      11.346  10.210   4.329  1.00  0.00     0.263 C 
HETATM   18  F1  UNL     1      11.235   9.293   3.312  1.00  0.00    -0.250 F 
ENDBRANCH  11  17
ENDBRANCH   2   9
BRANCH   1  19
HETATM   19  N1  UNL     1      11.930  15.506   1.924  1.00  0.00    -0.335 N 
ATOM     20  H12 UNL     1      11.869  15.867   2.876  1.00  0.00     0.177 HD
ATOM     21  H11 UNL     1      12.902  15.510   1.613  1.00  0.00     0.177 HD
ENDBRANCH   1  19
TORSDOF 3
ENDMDL
