MODEL 1
REMARK VINA RESULT: -6.981608603      0.000      0.000
REMARK  7 active torsions:
REMARK  status: ('A' for Active; 'I' for Inactive)
REMARK    1  A    between atoms: C2_2  and  C3_3 
REMARK    2  A    between atoms: C2_2  and  C5_11 
REMARK    3  A    between atoms: C3_3  and  C4_4 
REMARK    4  A    between atoms: C4_4  and  O1_5 
REMARK    5  A    between atoms: N1_7  and  O2_9 
REMARK    6  A    between atoms: C5_11  and  C6_13 
REMARK    7  A    between atoms: C6_13  and  C9_16 
ROOT
HETATM    1  C1  UNL     1       8.570  15.392  -0.407  1.00  0.00     0.018 C 
HETATM    2  C2  UNL     1       9.899  15.510   0.326  1.00  0.00     0.060 C 
ENDROOT
BRANCH   2   3
HETATM    3  C3  UNL     1      10.973  15.634  -0.717  1.00  0.00     0.097 C 
BRANCH   3   4
HETATM    4  C4  UNL     1      11.546  16.949  -0.940  1.00  0.00     0.135 C 
HETATM    5  N1  UNL     1      12.832  17.167  -0.665  1.00  0.00    -0.251 N 
ATOM      6  H1  UNL     1      13.218  18.097  -0.827  1.00  0.00     0.196 HD
BRANCH   4   7
HETATM    7  O1  UNL     1      10.931  18.081  -1.421  1.00  0.00    -0.348 OA
ATOM      8  H1  UNL     1      10.287  18.633  -0.992  1.00  0.00     0.219 HD
ENDBRANCH   4   7
BRANCH   5   9
HETATM    9  O2  UNL     1      13.639  16.204  -0.181  1.00  0.00    -0.288 OA
ATOM     10  H2  UNL     1      14.584  16.292  -0.169  1.00  0.00     0.244 HD
ENDBRANCH   5   9
ENDBRANCH   3   4
ENDBRANCH   2   3
BRANCH   2  11
HETATM   11  C5  UNL     1      10.087  14.453   1.322  1.00  0.00     0.143 C 
HETATM   12  O3  UNL     1      10.595  13.402   0.860  1.00  0.00    -0.297 OA
BRANCH  11  13
HETATM   13  C6  UNL     1       9.782  14.415   2.740  1.00  0.00     0.063 C 
HETATM   14  C7  UNL     1      10.031  15.783   3.414  1.00  0.00     0.027 C 
HETATM   15  C8  UNL     1      10.796  13.499   3.495  1.00  0.00     0.027 C 
BRANCH  13  16
HETATM   16  C9  UNL     1       8.461  13.895   3.197  1.00  0.00     0.202 C 
HETATM   17 CL1  UNL     1       8.696  12.728   4.545  1.00  0.00    -0.083 Cl
HETATM   18 CL2  UNL     1       7.686  15.320   4.052  1.00  0.00    -0.083 Cl
HETATM   19 CL3  UNL     1       7.373  13.331   1.959  1.00  0.00    -0.083 Cl
ENDBRANCH  13  16
ENDBRANCH  11  13
ENDBRANCH   2  11
TORSDOF 7
ENDMDL
MODEL 2
REMARK VINA RESULT: -6.958416538      0.167      1.233
REMARK  7 active torsions:
REMARK  status: ('A' for Active; 'I' for Inactive)
REMARK    1  A    between atoms: C2_2  and  C3_3 
REMARK    2  A    between atoms: C2_2  and  C5_11 
REMARK    3  A    between atoms: C3_3  and  C4_4 
REMARK    4  A    between atoms: C4_4  and  O1_5 
REMARK    5  A    between atoms: N1_7  and  O2_9 
REMARK    6  A    between atoms: C5_11  and  C6_13 
REMARK    7  A    between atoms: C6_13  and  C9_16 
ROOT
HETATM    1  C1  UNL     1       8.568  15.363  -0.395  1.00  0.00     0.018 C 
HETATM    2  C2  UNL     1       9.890  15.531   0.339  1.00  0.00     0.060 C 
ENDROOT
BRANCH   2   3
HETATM    3  C3  UNL     1      10.969  15.630  -0.701  1.00  0.00     0.097 C 
BRANCH   3   4
HETATM    4  C4  UNL     1      11.550  16.937  -0.946  1.00  0.00     0.135 C 
HETATM    5  N1  UNL     1      12.833  17.157  -0.658  1.00  0.00    -0.251 N 
ATOM      6  H1  UNL     1      13.225  18.081  -0.835  1.00  0.00     0.196 HD
BRANCH   4   7
HETATM    7  O1  UNL     1      10.946  18.061  -1.461  1.00  0.00    -0.348 OA
ATOM      8  H1  UNL     1      10.668  18.846  -1.004  1.00  0.00     0.219 HD
ENDBRANCH   4   7
BRANCH   5   9
HETATM    9  O2  UNL     1      13.629  16.202  -0.141  1.00  0.00    -0.288 OA
ATOM     10  H2  UNL     1      14.264  16.384   0.542  1.00  0.00     0.244 HD
ENDBRANCH   5   9
ENDBRANCH   3   4
ENDBRANCH   2   3
BRANCH   2  11
HETATM   11  C5  UNL     1      10.089  14.518   1.379  1.00  0.00     0.143 C 
HETATM   12  O3  UNL     1      10.535  13.427   0.948  1.00  0.00    -0.297 OA
BRANCH  11  13
HETATM   13  C6  UNL     1       9.852  14.561   2.809  1.00  0.00     0.063 C 
HETATM   14  C7  UNL     1      10.276  15.918   3.416  1.00  0.00     0.027 C 
HETATM   15  C8  UNL     1      10.802  13.570   3.553  1.00  0.00     0.027 C 
BRANCH  13  16
HETATM   16  C9  UNL     1       8.509  14.201   3.347  1.00  0.00     0.202 C 
HETATM   17 CL1  UNL     1       7.587  13.267   2.117  1.00  0.00    -0.083 Cl
HETATM   18 CL2  UNL     1       8.858  12.925   4.618  1.00  0.00    -0.083 Cl
HETATM   19 CL3  UNL     1       7.595  15.486   4.087  1.00  0.00    -0.083 Cl
ENDBRANCH  13  16
ENDBRANCH  11  13
ENDBRANCH   2  11
TORSDOF 7
ENDMDL
MODEL 3
REMARK VINA RESULT: -6.850237804      1.337      1.420
REMARK  7 active torsions:
REMARK  status: ('A' for Active; 'I' for Inactive)
REMARK    1  A    between atoms: C2_2  and  C3_3 
REMARK    2  A    between atoms: C2_2  and  C5_11 
REMARK    3  A    between atoms: C3_3  and  C4_4 
REMARK    4  A    between atoms: C4_4  and  O1_5 
REMARK    5  A    between atoms: N1_7  and  O2_9 
REMARK    6  A    between atoms: C5_11  and  C6_13 
REMARK    7  A    between atoms: C6_13  and  C9_16 
ROOT
HETATM    1  C1  UNL     1       9.251  15.713  -0.750  1.00  0.00     0.018 C 
HETATM    2  C2  UNL     1      10.119  15.726   0.500  1.00  0.00     0.060 C 
ENDROOT
BRANCH   2   3
HETATM    3  C3  UNL     1      11.453  16.297   0.111  1.00  0.00     0.097 C 
BRANCH   3   4
HETATM    4  C4  UNL     1      12.346  16.706   1.178  1.00  0.00     0.135 C 
HETATM    5  N1  UNL     1      13.664  16.579   1.025  1.00  0.00    -0.251 N 
ATOM      6  H1  UNL     1      14.278  16.871   1.785  1.00  0.00     0.196 HD
BRANCH   4   7
HETATM    7  O1  UNL     1      12.028  17.239   2.406  1.00  0.00    -0.348 OA
ATOM      8  H1  UNL     1      12.610  17.470   3.120  1.00  0.00     0.219 HD
ENDBRANCH   4   7
BRANCH   5   9
HETATM    9  O2  UNL     1      14.215  16.080  -0.098  1.00  0.00    -0.288 OA
ATOM     10  H2  UNL     1      13.915  15.271  -0.495  1.00  0.00     0.244 HD
ENDBRANCH   5   9
ENDBRANCH   3   4
ENDBRANCH   2   3
BRANCH   2  11
HETATM   11  C5  UNL     1      10.148  14.427   1.177  1.00  0.00     0.143 C 
HETATM   12  O3  UNL     1      10.665  13.508   0.496  1.00  0.00    -0.297 OA
BRANCH  11  13
HETATM   13  C6  UNL     1       9.677  14.027   2.489  1.00  0.00     0.063 C 
HETATM   14  C7  UNL     1      10.057  15.063   3.572  1.00  0.00     0.027 C 
HETATM   15  C8  UNL     1      10.439  12.757   2.983  1.00  0.00     0.027 C 
BRANCH  13  16
HETATM   16  C9  UNL     1       8.246  13.649   2.677  1.00  0.00     0.202 C 
HETATM   17 CL1  UNL     1       8.122  12.282   3.839  1.00  0.00    -0.083 Cl
HETATM   18 CL2  UNL     1       7.533  15.038   3.638  1.00  0.00    -0.083 Cl
HETATM   19 CL3  UNL     1       7.301  13.431   1.230  1.00  0.00    -0.083 Cl
ENDBRANCH  13  16
ENDBRANCH  11  13
ENDBRANCH   2  11
TORSDOF 7
ENDMDL
MODEL 4
REMARK VINA RESULT: -6.811734340      1.335      1.944
REMARK  7 active torsions:
REMARK  status: ('A' for Active; 'I' for Inactive)
REMARK    1  A    between atoms: C2_2  and  C3_3 
REMARK    2  A    between atoms: C2_2  and  C5_11 
REMARK    3  A    between atoms: C3_3  and  C4_4 
REMARK    4  A    between atoms: C4_4  and  O1_5 
REMARK    5  A    between atoms: N1_7  and  O2_9 
REMARK    6  A    between atoms: C5_11  and  C6_13 
REMARK    7  A    between atoms: C6_13  and  C9_16 
ROOT
HETATM    1  C1  UNL     1       9.171  15.700  -0.559  1.00  0.00     0.018 C 
HETATM    2  C2  UNL     1      10.091  15.701   0.653  1.00  0.00     0.060 C 
ENDROOT
BRANCH   2   3
HETATM    3  C3  UNL     1      11.397  16.303   0.222  1.00  0.00     0.097 C 
BRANCH   3   4
HETATM    4  C4  UNL     1      12.326  16.708   1.260  1.00  0.00     0.135 C 
HETATM    5  N1  UNL     1      13.639  16.600   1.054  1.00  0.00    -0.251 N 
ATOM      6  H1  UNL     1      14.278  16.889   1.795  1.00  0.00     0.196 HD
BRANCH   4   7
HETATM    7  O1  UNL     1      12.049  17.219   2.507  1.00  0.00    -0.348 OA
ATOM      8  H1  UNL     1      12.371  16.927   3.352  1.00  0.00     0.219 HD
ENDBRANCH   4   7
BRANCH   5   9
HETATM    9  O2  UNL     1      14.151  16.123  -0.096  1.00  0.00    -0.288 OA
ATOM     10  H2  UNL     1      13.610  15.927  -0.851  1.00  0.00     0.244 HD
ENDBRANCH   5   9
ENDBRANCH   3   4
ENDBRANCH   2   3
BRANCH   2  11
HETATM   11  C5  UNL     1      10.169  14.388   1.300  1.00  0.00     0.143 C 
HETATM   12  O3  UNL     1      10.662  13.491   0.574  1.00  0.00    -0.297 OA
BRANCH  11  13
HETATM   13  C6  UNL     1       9.769  13.955   2.625  1.00  0.00     0.063 C 
HETATM   14  C7  UNL     1      10.505  14.746   3.730  1.00  0.00     0.027 C 
HETATM   15  C8  UNL     1      10.260  12.498   2.897  1.00  0.00     0.027 C 
BRANCH  13  16
HETATM   16  C9  UNL     1       8.321  13.887   2.975  1.00  0.00     0.202 C 
HETATM   17 CL1  UNL     1       7.359  13.448   1.521  1.00  0.00    -0.083 Cl
HETATM   18 CL2  UNL     1       8.175  12.377   4.006  1.00  0.00    -0.083 Cl
HETATM   19 CL3  UNL     1       7.672  15.234   3.869  1.00  0.00    -0.083 Cl
ENDBRANCH  13  16
ENDBRANCH  11  13
ENDBRANCH   2  11
TORSDOF 7
ENDMDL
MODEL 5
REMARK VINA RESULT: -6.593157843      2.297      2.918
REMARK  7 active torsions:
REMARK  status: ('A' for Active; 'I' for Inactive)
REMARK    1  A    between atoms: C2_2  and  C3_3 
REMARK    2  A    between atoms: C2_2  and  C5_11 
REMARK    3  A    between atoms: C3_3  and  C4_4 
REMARK    4  A    between atoms: C4_4  and  O1_5 
REMARK    5  A    between atoms: N1_7  and  O2_9 
REMARK    6  A    between atoms: C5_11  and  C6_13 
REMARK    7  A    between atoms: C6_13  and  C9_16 
ROOT
HETATM    1  C1  UNL     1      12.162  14.328   3.374  1.00  0.00     0.018 C 
HETATM    2  C2  UNL     1      11.075  14.778   2.408  1.00  0.00     0.060 C 
ENDROOT
BRANCH   2   3
HETATM    3  C3  UNL     1      11.702  15.758   1.458  1.00  0.00     0.097 C 
BRANCH   3   4
HETATM    4  C4  UNL     1      12.767  16.602   1.967  1.00  0.00     0.135 C 
HETATM    5  N1  UNL     1      13.896  16.736   1.271  1.00  0.00    -0.251 N 
ATOM      6  H1  UNL     1      14.635  17.333   1.644  1.00  0.00     0.196 HD
BRANCH   4   7
HETATM    7  O1  UNL     1      12.798  17.334   3.131  1.00  0.00    -0.348 OA
ATOM      8  H1  UNL     1      12.453  18.204   3.293  1.00  0.00     0.219 HD
ENDBRANCH   4   7
BRANCH   5   9
HETATM    9  O2  UNL     1      14.097  16.113   0.095  1.00  0.00    -0.288 OA
ATOM     10  H2  UNL     1      13.584  16.310  -0.679  1.00  0.00     0.244 HD
ENDBRANCH   5   9
ENDBRANCH   3   4
ENDBRANCH   2   3
BRANCH   2  11
HETATM   11  C5  UNL     1       9.865  15.234   3.097  1.00  0.00     0.143 C 
HETATM   12  O3  UNL     1       9.995  16.336   3.682  1.00  0.00    -0.297 OA
BRANCH  11  13
HETATM   13  C6  UNL     1       8.554  14.625   3.221  1.00  0.00     0.063 C 
HETATM   14  C7  UNL     1       7.681  15.358   4.265  1.00  0.00     0.027 C 
HETATM   15  C8  UNL     1       8.667  13.199   3.846  1.00  0.00     0.027 C 
BRANCH  13  16
HETATM   16  C9  UNL     1       7.732  14.387   1.999  1.00  0.00     0.202 C 
HETATM   17 CL1  UNL     1       7.278  12.650   1.896  1.00  0.00    -0.083 Cl
HETATM   18 CL2  UNL     1       6.124  15.185   2.374  1.00  0.00    -0.083 Cl
HETATM   19 CL3  UNL     1       8.344  15.045   0.507  1.00  0.00    -0.083 Cl
ENDBRANCH  13  16
ENDBRANCH  11  13
ENDBRANCH   2  11
TORSDOF 7
ENDMDL
