MODEL 1
REMARK VINA RESULT: -6.454638264      0.000      0.000
REMARK  3 active torsions:
REMARK  status: ('A' for Active; 'I' for Inactive)
REMARK       I    between atoms: C1_2  and  N1_3 
REMARK       I    between atoms: C1_2  and  N2_8 
REMARK    1  A    between atoms: N1_3  and  C2_5 
REMARK    2  A    between atoms: C2_5  and  C3_6 
REMARK       I    between atoms: N3_11  and  C6_12 
REMARK       I    between atoms: C6_12  and  N4_14 
REMARK    3  A    between atoms: N4_14  and  C7_16 
ROOT
HETATM    1  O1  UNL     1      20.292 -18.303 -58.059  1.00  0.00    -0.247 OA
HETATM    2  C1  UNL     1      19.187 -18.064 -58.588  1.00  0.00     0.318 C 
HETATM    3  N1  UNL     1      18.417 -19.087 -59.179  1.00  0.00    -0.342 N 
ATOM      4  H1  UNL     1      17.524 -18.831 -59.600  1.00  0.00     0.164 HD
HETATM    5  N2  UNL     1      18.700 -16.745 -58.596  1.00  0.00    -0.331 N 
HETATM    6  C4  UNL     1      19.464 -15.674 -58.009  1.00  0.00     0.147 C 
HETATM    7  C5  UNL     1      18.572 -14.953 -57.023  1.00  0.00     0.147 C 
HETATM    8  N3  UNL     1      17.326 -14.550 -57.651  1.00  0.00    -0.331 N 
HETATM    9  C6  UNL     1      16.478 -13.660 -56.963  1.00  0.00     0.318 C 
HETATM   10  O2  UNL     1      15.374 -13.288 -57.495  1.00  0.00    -0.247 OA
HETATM   11  N4  UNL     1      16.847 -13.168 -55.672  1.00  0.00    -0.338 N 
ATOM     12  H4  UNL     1      17.726 -13.462 -55.247  1.00  0.00     0.164 HD
HETATM   13  C11 UNL     1      16.936 -15.039 -58.956  1.00  0.00     0.147 C 
HETATM   14  C12 UNL     1      17.429 -16.448 -59.193  1.00  0.00     0.147 C 
ENDROOT
BRANCH  11  15
HETATM   15  C7  UNL     1      15.975 -12.254 -54.970  1.00  0.00     0.086 C 
HETATM   16  C8  UNL     1      15.034 -12.998 -54.042  1.00  0.00     0.025 C 
HETATM   17  C9  UNL     1      15.439 -12.012 -52.953  1.00  0.00     0.004 C 
HETATM   18  C10 UNL     1      16.644 -11.595 -53.778  1.00  0.00     0.025 C 
ENDBRANCH  11  15
BRANCH   3  19
HETATM   19  C2  UNL     1      18.819 -20.482 -59.225  1.00  0.00     0.139 C 
BRANCH  19  20
HETATM   20  C3  UNL     1      18.460 -21.139 -57.932  1.00  0.00     0.134 C 
HETATM   21 CL1  UNL     1      19.002 -22.848 -57.904  1.00  0.00    -0.129 Cl
ENDBRANCH  19  20
ENDBRANCH   3  19
TORSDOF 3
ENDMDL
MODEL 2
REMARK VINA RESULT: -5.804250213      4.150      8.165
REMARK  3 active torsions:
REMARK  status: ('A' for Active; 'I' for Inactive)
REMARK       I    between atoms: C1_2  and  N1_3 
REMARK       I    between atoms: C1_2  and  N2_8 
REMARK    1  A    between atoms: N1_3  and  C2_5 
REMARK    2  A    between atoms: C2_5  and  C3_6 
REMARK       I    between atoms: N3_11  and  C6_12 
REMARK       I    between atoms: C6_12  and  N4_14 
REMARK    3  A    between atoms: N4_14  and  C7_16 
ROOT
HETATM    1  O1  UNL     1      16.716 -12.760 -52.075  1.00  0.00    -0.247 OA
HETATM    2  C1  UNL     1      16.541 -12.181 -53.167  1.00  0.00     0.318 C 
HETATM    3  N1  UNL     1      16.742 -10.792 -53.304  1.00  0.00    -0.342 N 
ATOM      4  H1  UNL     1      16.580 -10.373 -54.220  1.00  0.00     0.164 HD
HETATM    5  N2  UNL     1      16.132 -12.931 -54.284  1.00  0.00    -0.331 N 
HETATM    6  C4  UNL     1      15.908 -14.349 -54.177  1.00  0.00     0.147 C 
HETATM    7  C5  UNL     1      16.726 -15.031 -55.252  1.00  0.00     0.147 C 
HETATM    8  N3  UNL     1      16.445 -14.459 -56.557  1.00  0.00    -0.331 N 
HETATM    9  C6  UNL     1      16.925 -15.120 -57.704  1.00  0.00     0.318 C 
HETATM   10  O2  UNL     1      16.691 -14.637 -58.867  1.00  0.00    -0.247 OA
HETATM   11  N4  UNL     1      17.673 -16.332 -57.575  1.00  0.00    -0.338 N 
ATOM     12  H4  UNL     1      17.861 -16.719 -56.650  1.00  0.00     0.164 HD
HETATM   13  C11 UNL     1      15.692 -13.232 -56.706  1.00  0.00     0.147 C 
HETATM   14  C12 UNL     1      15.931 -12.288 -55.551  1.00  0.00     0.147 C 
ENDROOT
BRANCH  11  15
HETATM   15  C7  UNL     1      18.163 -17.009 -58.754  1.00  0.00     0.086 C 
HETATM   16  C8  UNL     1      19.286 -17.969 -58.408  1.00  0.00     0.025 C 
HETATM   17  C9  UNL     1      18.545 -19.020 -59.225  1.00  0.00     0.004 C 
HETATM   18  C10 UNL     1      17.287 -18.173 -59.177  1.00  0.00     0.025 C 
ENDBRANCH  11  15
BRANCH   3  19
HETATM   19  C2  UNL     1      17.167  -9.922 -52.222  1.00  0.00     0.139 C 
BRANCH  19  20
HETATM   20  C3  UNL     1      16.070  -8.960 -51.905  1.00  0.00     0.134 C 
HETATM   21 CL1  UNL     1      15.095  -8.586 -53.363  1.00  0.00    -0.129 Cl
ENDBRANCH  19  20
ENDBRANCH   3  19
TORSDOF 3
ENDMDL
MODEL 3
REMARK VINA RESULT: -5.693836201      3.804      7.920
REMARK  3 active torsions:
REMARK  status: ('A' for Active; 'I' for Inactive)
REMARK       I    between atoms: C1_2  and  N1_3 
REMARK       I    between atoms: C1_2  and  N2_8 
REMARK    1  A    between atoms: N1_3  and  C2_5 
REMARK    2  A    between atoms: C2_5  and  C3_6 
REMARK       I    between atoms: N3_11  and  C6_12 
REMARK       I    between atoms: C6_12  and  N4_14 
REMARK    3  A    between atoms: N4_14  and  C7_16 
ROOT
HETATM    1  O1  UNL     1      16.958 -12.723 -52.074  1.00  0.00    -0.247 OA
HETATM    2  C1  UNL     1      16.766 -12.147 -53.165  1.00  0.00     0.318 C 
HETATM    3  N1  UNL     1      16.998 -10.765 -53.318  1.00  0.00    -0.342 N 
ATOM      4  H1  UNL     1      16.820 -10.348 -54.232  1.00  0.00     0.164 HD
HETATM    5  N2  UNL     1      16.307 -12.894 -54.264  1.00  0.00    -0.331 N 
HETATM    6  C4  UNL     1      16.051 -14.306 -54.139  1.00  0.00     0.147 C 
HETATM    7  C5  UNL     1      16.820 -15.016 -55.233  1.00  0.00     0.147 C 
HETATM    8  N3  UNL     1      16.515 -14.445 -56.533  1.00  0.00    -0.331 N 
HETATM    9  C6  UNL     1      16.945 -15.126 -57.688  1.00  0.00     0.318 C 
HETATM   10  O2  UNL     1      16.688 -14.646 -58.848  1.00  0.00    -0.247 OA
HETATM   11  N4  UNL     1      17.666 -16.356 -57.572  1.00  0.00    -0.338 N 
ATOM     12  H4  UNL     1      17.871 -16.741 -56.650  1.00  0.00     0.164 HD
HETATM   13  C11 UNL     1      15.788 -13.201 -56.669  1.00  0.00     0.147 C 
HETATM   14  C12 UNL     1      16.085 -12.255 -55.529  1.00  0.00     0.147 C 
ENDROOT
BRANCH  11  15
HETATM   15  C7  UNL     1      18.104 -17.053 -58.759  1.00  0.00     0.086 C 
HETATM   16  C8  UNL     1      19.241 -18.008 -58.446  1.00  0.00     0.025 C 
HETATM   17  C9  UNL     1      18.465 -19.072 -59.213  1.00  0.00     0.004 C 
HETATM   18  C10 UNL     1      17.210 -18.223 -59.125  1.00  0.00     0.025 C 
ENDBRANCH  11  15
BRANCH   3  19
HETATM   19  C2  UNL     1      17.476  -9.899 -52.256  1.00  0.00     0.139 C 
BRANCH  19  20
HETATM   20  C3  UNL     1      18.533  -8.992 -52.798  1.00  0.00     0.134 C 
HETATM   21 CL1  UNL     1      19.506  -9.815 -54.059  1.00  0.00    -0.129 Cl
ENDBRANCH  19  20
ENDBRANCH   3  19
TORSDOF 3
ENDMDL
MODEL 4
REMARK VINA RESULT: -5.578404108      4.407      8.355
REMARK  3 active torsions:
REMARK  status: ('A' for Active; 'I' for Inactive)
REMARK       I    between atoms: C1_2  and  N1_3 
REMARK       I    between atoms: C1_2  and  N2_8 
REMARK    1  A    between atoms: N1_3  and  C2_5 
REMARK    2  A    between atoms: C2_5  and  C3_6 
REMARK       I    between atoms: N3_11  and  C6_12 
REMARK       I    between atoms: C6_12  and  N4_14 
REMARK    3  A    between atoms: N4_14  and  C7_16 
ROOT
HETATM    1  O1  UNL     1      16.330 -13.263 -50.996  1.00  0.00    -0.247 OA
HETATM    2  C1  UNL     1      16.480 -12.462 -51.942  1.00  0.00     0.318 C 
HETATM    3  N1  UNL     1      17.001 -11.168 -51.734  1.00  0.00    -0.342 N 
ATOM      4  H1  UNL     1      17.098 -10.555 -52.543  1.00  0.00     0.164 HD
HETATM    5  N2  UNL     1      16.120 -12.858 -53.242  1.00  0.00    -0.331 N 
HETATM    6  C4  UNL     1      15.576 -14.168 -53.489  1.00  0.00     0.147 C 
HETATM    7  C5  UNL     1      16.401 -14.816 -54.580  1.00  0.00     0.147 C 
HETATM    8  N3  UNL     1      16.485 -13.953 -55.745  1.00  0.00    -0.331 N 
HETATM    9  C6  UNL     1      17.002 -14.482 -56.943  1.00  0.00     0.318 C 
HETATM   10  O2  UNL     1      17.087 -13.743 -57.986  1.00  0.00    -0.247 OA
HETATM   11  N4  UNL     1      17.433 -15.845 -57.001  1.00  0.00    -0.338 N 
ATOM     12  H4  UNL     1      17.366 -16.436 -56.172  1.00  0.00     0.164 HD
HETATM   13  C11 UNL     1      16.056 -12.571 -55.704  1.00  0.00     0.147 C 
HETATM   14  C12 UNL     1      16.290 -11.955 -54.345  1.00  0.00     0.147 C 
ENDROOT
BRANCH  11  15
HETATM   15  C7  UNL     1      17.962 -16.386 -58.232  1.00  0.00     0.086 C 
HETATM   16  C8  UNL     1      19.343 -16.977 -58.022  1.00  0.00     0.025 C 
HETATM   17  C9  UNL     1      18.848 -18.217 -58.756  1.00  0.00     0.004 C 
HETATM   18  C10 UNL     1      17.413 -17.761 -58.560  1.00  0.00     0.025 C 
ENDBRANCH  11  15
BRANCH   3  19
HETATM   19  C2  UNL     1      17.409 -10.656 -50.438  1.00  0.00     0.139 C 
BRANCH  19  20
HETATM   20  C3  UNL     1      16.900  -9.261 -50.278  1.00  0.00     0.134 C 
HETATM   21 CL1  UNL     1      15.568  -8.922 -51.430  1.00  0.00    -0.129 Cl
ENDBRANCH  19  20
ENDBRANCH   3  19
TORSDOF 3
ENDMDL
MODEL 5
REMARK VINA RESULT: -5.406945905      6.166     10.839
REMARK  3 active torsions:
REMARK  status: ('A' for Active; 'I' for Inactive)
REMARK       I    between atoms: C1_2  and  N1_3 
REMARK       I    between atoms: C1_2  and  N2_8 
REMARK    1  A    between atoms: N1_3  and  C2_5 
REMARK    2  A    between atoms: C2_5  and  C3_6 
REMARK       I    between atoms: N3_11  and  C6_12 
REMARK       I    between atoms: C6_12  and  N4_14 
REMARK    3  A    between atoms: N4_14  and  C7_16 
ROOT
HETATM    1  O1  UNL     1      18.465 -20.618 -56.238  1.00  0.00    -0.247 OA
HETATM    2  C1  UNL     1      18.678 -21.554 -57.035  1.00  0.00     0.318 C 
HETATM    3  N1  UNL     1      18.553 -21.377 -58.428  1.00  0.00    -0.342 N 
ATOM      4  H1  UNL     1      18.736 -22.180 -59.031  1.00  0.00     0.164 HD
HETATM    5  N2  UNL     1      19.050 -22.814 -56.532  1.00  0.00    -0.331 N 
HETATM    6  C4  UNL     1      19.178 -23.032 -55.114  1.00  0.00     0.147 C 
HETATM    7  C5  UNL     1      20.549 -23.619 -54.856  1.00  0.00     0.147 C 
HETATM    8  N3  UNL     1      20.773 -24.791 -55.684  1.00  0.00    -0.331 N 
HETATM    9  C6  UNL     1      21.886 -25.609 -55.411  1.00  0.00     0.318 C 
HETATM   10  O2  UNL     1      22.107 -26.650 -56.125  1.00  0.00    -0.247 OA
HETATM   11  N4  UNL     1      22.772 -25.284 -54.337  1.00  0.00    -0.338 N 
ATOM     12  H4  UNL     1      22.599 -24.456 -53.766  1.00  0.00     0.164 HD
HETATM   13  C11 UNL     1      19.888 -25.135 -56.776  1.00  0.00     0.147 C 
HETATM   14  C12 UNL     1      19.306 -23.903 -57.430  1.00  0.00     0.147 C 
ENDROOT
BRANCH  11  15
HETATM   15  C7  UNL     1      23.913 -26.126 -54.058  1.00  0.00     0.086 C 
HETATM   16  C8  UNL     1      25.082 -25.311 -53.538  1.00  0.00     0.025 C 
HETATM   17  C9  UNL     1      25.203 -26.333 -52.414  1.00  0.00     0.004 C 
HETATM   18  C10 UNL     1      23.809 -26.844 -52.726  1.00  0.00     0.025 C 
ENDBRANCH  11  15
BRANCH   3  19
HETATM   19  C2  UNL     1      18.181 -20.123 -59.058  1.00  0.00     0.139 C 
BRANCH  19  20
HETATM   20  C3  UNL     1      19.321 -19.162 -58.952  1.00  0.00     0.134 C 
HETATM   21 CL1  UNL     1      18.741 -17.513 -58.554  1.00  0.00    -0.129 Cl
ENDBRANCH  19  20
ENDBRANCH   3  19
TORSDOF 3
ENDMDL
