MODEL 1
REMARK VINA RESULT: -5.861236217      0.000      0.000
REMARK  3 active torsions:
REMARK  status: ('A' for Active; 'I' for Inactive)
REMARK    1  A    between atoms: C3_3  and  N1_4 
REMARK       I    between atoms: N1_4  and  C4_6 
REMARK    2  A    between atoms: C4_6  and  C5_8 
REMARK       I    between atoms: N2_16  and  C12_17 
REMARK       I    between atoms: C12_17  and  N3_19 
REMARK    3  A    between atoms: N3_19  and  C13_21 
ROOT
HETATM    1  C1  UNL     1      18.514 -20.942 -57.526  1.00  0.00     0.098 C 
HETATM    2  C2  UNL     1      18.825 -22.118 -57.628  1.00  0.00    -0.168 C 
HETATM    3  C3  UNL     1      19.197 -23.525 -57.749  1.00  0.00     0.202 C 
ENDROOT
BRANCH   3   4
HETATM    4  N1  UNL     1      19.698 -23.981 -56.473  1.00  0.00    -0.350 N 
HETATM    5  C4  UNL     1      20.383 -25.209 -56.338  1.00  0.00     0.241 C 
HETATM    6  O1  UNL     1      20.549 -25.905 -57.357  1.00  0.00    -0.271 OA
ATOM      7  H1  UNL     1      19.554 -23.400 -55.647  1.00  0.00     0.163 HD
BRANCH   5   8
HETATM    8  C5  UNL     1      20.867 -25.625 -55.042  1.00  0.00     0.188 C 
HETATM    9  C6  UNL     1      22.376 -25.626 -54.946  1.00  0.00     0.052 C 
HETATM   10  C7  UNL     1      22.900 -24.215 -55.120  1.00  0.00     0.012 C 
HETATM   11  C11 UNL     1      22.704 -26.156 -53.561  1.00  0.00     0.178 C 
HETATM   12  C8  UNL     1      22.086 -23.248 -54.286  1.00  0.00     0.026 C 
HETATM   13  C9  UNL     1      21.364 -24.068 -53.243  1.00  0.00     0.092 C 
HETATM   14  C10 UNL     1      22.434 -24.982 -52.619  1.00  0.00     0.063 C 
HETATM   15  N2  UNL     1      20.366 -24.865 -53.924  1.00  0.00    -0.315 N 
HETATM   16  C12 UNL     1      19.001 -24.904 -53.530  1.00  0.00     0.319 C 
HETATM   17  O2  UNL     1      18.228 -25.643 -54.211  1.00  0.00    -0.247 OA
HETATM   18  N3  UNL     1      18.433 -24.196 -52.454  1.00  0.00    -0.338 N 
ATOM     19  H3  UNL     1      19.035 -23.594 -51.892  1.00  0.00     0.164 HD
HETATM   20  F1  UNL     1      21.782 -27.159 -53.301  1.00  0.00    -0.249 F 
BRANCH  18  21
HETATM   21  C13 UNL     1      17.039 -24.287 -52.117  1.00  0.00     0.086 A 
HETATM   22  C14 UNL     1      16.560 -23.945 -50.761  1.00  0.00     0.027 A 
HETATM   23  C15 UNL     1      16.655 -25.414 -51.191  1.00  0.00     0.027 A 
ENDBRANCH  18  21
ENDBRANCH   5   8
ENDBRANCH   3   4
TORSDOF 3
ENDMDL
MODEL 2
REMARK VINA RESULT: -5.843737288      2.257      4.623
REMARK  3 active torsions:
REMARK  status: ('A' for Active; 'I' for Inactive)
REMARK    1  A    between atoms: C3_3  and  N1_4 
REMARK       I    between atoms: N1_4  and  C4_6 
REMARK    2  A    between atoms: C4_6  and  C5_8 
REMARK       I    between atoms: N2_16  and  C12_17 
REMARK       I    between atoms: C12_17  and  N3_19 
REMARK    3  A    between atoms: N3_19  and  C13_21 
ROOT
HETATM    1  C1  UNL     1      18.762 -19.716 -58.684  1.00  0.00     0.098 C 
HETATM    2  C2  UNL     1      18.787 -20.846 -58.224  1.00  0.00    -0.168 C 
HETATM    3  C3  UNL     1      18.816 -22.197 -57.672  1.00  0.00     0.202 C 
ENDROOT
BRANCH   3   4
HETATM    4  N1  UNL     1      19.320 -22.132 -56.319  1.00  0.00    -0.350 N 
HETATM    5  C4  UNL     1      19.604 -23.298 -55.574  1.00  0.00     0.241 C 
HETATM    6  O1  UNL     1      19.408 -24.402 -56.112  1.00  0.00    -0.271 OA
ATOM      7  H1  UNL     1      19.475 -21.219 -55.891  1.00  0.00     0.163 HD
BRANCH   5   8
HETATM    8  C5  UNL     1      20.107 -23.185 -54.224  1.00  0.00     0.188 C 
HETATM    9  C6  UNL     1      19.016 -22.942 -53.205  1.00  0.00     0.052 C 
HETATM   10  C7  UNL     1      18.077 -24.129 -53.168  1.00  0.00     0.012 C 
HETATM   11  C11 UNL     1      19.725 -22.774 -51.872  1.00  0.00     0.178 C 
HETATM   12  C8  UNL     1      18.865 -25.421 -53.144  1.00  0.00     0.026 C 
HETATM   13  C9  UNL     1      20.266 -25.071 -52.700  1.00  0.00     0.092 C 
HETATM   14  C10 UNL     1      20.098 -24.195 -51.445  1.00  0.00     0.063 C 
HETATM   15  N2  UNL     1      20.886 -24.305 -53.761  1.00  0.00    -0.315 N 
HETATM   16  C12 UNL     1      22.158 -24.624 -54.308  1.00  0.00     0.319 C 
HETATM   17  O2  UNL     1      22.589 -23.873 -55.234  1.00  0.00    -0.247 OA
HETATM   18  N3  UNL     1      22.980 -25.696 -53.913  1.00  0.00    -0.338 N 
ATOM     19  H3  UNL     1      22.656 -26.314 -53.170  1.00  0.00     0.164 HD
HETATM   20  F1  UNL     1      20.888 -22.066 -52.136  1.00  0.00    -0.249 F 
BRANCH  18  21
HETATM   21  C13 UNL     1      24.260 -25.955 -54.516  1.00  0.00     0.086 A 
HETATM   22  C14 UNL     1      24.482 -27.158 -55.345  1.00  0.00     0.027 A 
HETATM   23  C15 UNL     1      25.052 -27.093 -53.922  1.00  0.00     0.027 A 
ENDBRANCH  18  21
ENDBRANCH   5   8
ENDBRANCH   3   4
TORSDOF 3
ENDMDL
MODEL 3
REMARK VINA RESULT: -5.674089516     10.973     13.561
REMARK  3 active torsions:
REMARK  status: ('A' for Active; 'I' for Inactive)
REMARK    1  A    between atoms: C3_3  and  N1_4 
REMARK       I    between atoms: N1_4  and  C4_6 
REMARK    2  A    between atoms: C4_6  and  C5_8 
REMARK       I    between atoms: N2_16  and  C12_17 
REMARK       I    between atoms: C12_17  and  N3_19 
REMARK    3  A    between atoms: N3_19  and  C13_21 
ROOT
HETATM    1  C1  UNL     1      15.865 -16.899 -50.264  1.00  0.00     0.098 C 
HETATM    2  C2  UNL     1      15.106 -16.057 -50.717  1.00  0.00    -0.168 C 
HETATM    3  C3  UNL     1      14.198 -15.051 -51.260  1.00  0.00     0.202 C 
ENDROOT
BRANCH   3   4
HETATM    4  N1  UNL     1      14.979 -14.046 -51.944  1.00  0.00    -0.350 N 
HETATM    5  C4  UNL     1      14.848 -12.671 -51.649  1.00  0.00     0.241 C 
HETATM    6  O1  UNL     1      14.031 -12.334 -50.773  1.00  0.00    -0.271 OA
ATOM      7  H1  UNL     1      15.645 -14.339 -52.661  1.00  0.00     0.163 HD
BRANCH   5   8
HETATM    8  C5  UNL     1      15.650 -11.702 -52.360  1.00  0.00     0.188 C 
HETATM    9  C6  UNL     1      16.539 -10.888 -51.447  1.00  0.00     0.052 C 
HETATM   10  C7  UNL     1      17.543 -11.795 -50.767  1.00  0.00     0.012 C 
HETATM   11  C11 UNL     1      17.242  -9.882 -52.343  1.00  0.00     0.178 C 
HETATM   12  C8  UNL     1      18.155 -12.747 -51.773  1.00  0.00     0.026 C 
HETATM   13  C9  UNL     1      17.906 -12.157 -53.142  1.00  0.00     0.092 C 
HETATM   14  C10 UNL     1      18.339 -10.683 -53.045  1.00  0.00     0.063 C 
HETATM   15  N2  UNL     1      16.485 -12.240 -53.405  1.00  0.00    -0.315 N 
HETATM   16  C12 UNL     1      15.946 -12.804 -54.593  1.00  0.00     0.319 C 
HETATM   17  O2  UNL     1      14.682 -12.816 -54.700  1.00  0.00    -0.247 OA
HETATM   18  N3  UNL     1      16.688 -13.348 -55.658  1.00  0.00    -0.338 N 
ATOM     19  H3  UNL     1      17.706 -13.349 -55.594  1.00  0.00     0.164 HD
HETATM   20  F1  UNL     1      16.307  -9.482 -53.286  1.00  0.00    -0.249 F 
BRANCH  18  21
HETATM   21  C13 UNL     1      16.069 -13.901 -56.831  1.00  0.00     0.086 A 
HETATM   22  C14 UNL     1      16.723 -14.980 -57.600  1.00  0.00     0.027 A 
HETATM   23  C15 UNL     1      16.715 -13.548 -58.148  1.00  0.00     0.027 A 
ENDBRANCH  18  21
ENDBRANCH   5   8
ENDBRANCH   3   4
TORSDOF 3
ENDMDL
MODEL 4
REMARK VINA RESULT: -5.632983041     11.225     13.581
REMARK  3 active torsions:
REMARK  status: ('A' for Active; 'I' for Inactive)
REMARK    1  A    between atoms: C3_3  and  N1_4 
REMARK       I    between atoms: N1_4  and  C4_6 
REMARK    2  A    between atoms: C4_6  and  C5_8 
REMARK       I    between atoms: N2_16  and  C12_17 
REMARK       I    between atoms: C12_17  and  N3_19 
REMARK    3  A    between atoms: N3_19  and  C13_21 
ROOT
HETATM    1  C1  UNL     1      14.496  -7.747 -53.260  1.00  0.00     0.098 C 
HETATM    2  C2  UNL     1      15.540  -8.356 -53.089  1.00  0.00    -0.168 C 
HETATM    3  C3  UNL     1      16.788  -9.085 -52.885  1.00  0.00     0.202 C 
ENDROOT
BRANCH   3   4
HETATM    4  N1  UNL     1      16.495 -10.499 -52.843  1.00  0.00    -0.350 N 
HETATM    5  C4  UNL     1      17.043 -11.345 -51.854  1.00  0.00     0.241 C 
HETATM    6  O1  UNL     1      17.799 -10.841 -51.003  1.00  0.00    -0.271 OA
ATOM      7  H1  UNL     1      15.874 -10.898 -53.548  1.00  0.00     0.163 HD
BRANCH   5   8
HETATM    8  C5  UNL     1      16.721 -12.754 -51.851  1.00  0.00     0.188 C 
HETATM    9  C6  UNL     1      15.978 -13.188 -50.608  1.00  0.00     0.052 C 
HETATM   10  C7  UNL     1      14.638 -12.486 -50.542  1.00  0.00     0.012 C 
HETATM   11  C11 UNL     1      15.794 -14.691 -50.740  1.00  0.00     0.178 C 
HETATM   12  C8  UNL     1      13.954 -12.534 -51.892  1.00  0.00     0.026 C 
HETATM   13  C9  UNL     1      14.615 -13.641 -52.680  1.00  0.00     0.092 C 
HETATM   14  C10 UNL     1      14.648 -14.858 -51.739  1.00  0.00     0.063 C 
HETATM   15  N2  UNL     1      15.964 -13.215 -52.988  1.00  0.00    -0.315 N 
HETATM   16  C12 UNL     1      16.508 -13.246 -54.301  1.00  0.00     0.319 C 
HETATM   17  O2  UNL     1      17.703 -12.846 -54.436  1.00  0.00    -0.247 OA
HETATM   18  N3  UNL     1      15.839 -13.681 -55.460  1.00  0.00    -0.338 N 
ATOM     19  H3  UNL     1      14.876 -14.008 -55.376  1.00  0.00     0.164 HD
HETATM   20  F1  UNL     1      16.960 -15.176 -51.310  1.00  0.00    -0.249 F 
BRANCH  18  21
HETATM   21  C13 UNL     1      16.458 -13.683 -56.758  1.00  0.00     0.086 A 
HETATM   22  C14 UNL     1      16.122 -14.716 -57.760  1.00  0.00     0.027 A 
HETATM   23  C15 UNL     1      17.458 -14.784 -57.011  1.00  0.00     0.027 A 
ENDBRANCH  18  21
ENDBRANCH   5   8
ENDBRANCH   3   4
TORSDOF 3
ENDMDL
MODEL 5
REMARK VINA RESULT: -5.487055795     10.928     13.301
REMARK  3 active torsions:
REMARK  status: ('A' for Active; 'I' for Inactive)
REMARK    1  A    between atoms: C3_3  and  N1_4 
REMARK       I    between atoms: N1_4  and  C4_6 
REMARK    2  A    between atoms: C4_6  and  C5_8 
REMARK       I    between atoms: N2_16  and  C12_17 
REMARK       I    between atoms: C12_17  and  N3_19 
REMARK    3  A    between atoms: N3_19  and  C13_21 
ROOT
HETATM    1  C1  UNL     1      17.521  -7.172 -52.881  1.00  0.00     0.098 C 
HETATM    2  C2  UNL     1      16.628  -7.976 -52.665  1.00  0.00    -0.168 C 
HETATM    3  C3  UNL     1      15.562  -8.938 -52.405  1.00  0.00     0.202 C 
ENDROOT
BRANCH   3   4
HETATM    4  N1  UNL     1      16.158 -10.228 -52.141  1.00  0.00    -0.350 N 
HETATM    5  C4  UNL     1      15.678 -11.408 -52.750  1.00  0.00     0.241 C 
HETATM    6  O1  UNL     1      14.714 -11.317 -53.531  1.00  0.00    -0.271 OA
ATOM      7  H1  UNL     1      16.948 -10.287 -51.498  1.00  0.00     0.163 HD
BRANCH   5   8
HETATM    8  C5  UNL     1      16.306 -12.677 -52.457  1.00  0.00     0.188 C 
HETATM    9  C6  UNL     1      15.953 -13.209 -51.086  1.00  0.00     0.052 C 
HETATM   10  C7  UNL     1      14.467 -13.488 -51.013  1.00  0.00     0.012 C 
HETATM   11  C11 UNL     1      16.752 -14.491 -50.921  1.00  0.00     0.178 C 
HETATM   12  C8  UNL     1      14.010 -14.225 -52.255  1.00  0.00     0.026 C 
HETATM   13  C9  UNL     1      15.246 -14.820 -52.890  1.00  0.00     0.092 C 
HETATM   14  C10 UNL     1      15.998 -15.531 -51.751  1.00  0.00     0.063 C 
HETATM   15  N2  UNL     1      16.044 -13.728 -53.407  1.00  0.00    -0.315 N 
HETATM   16  C12 UNL     1      16.534 -13.687 -54.740  1.00  0.00     0.319 C 
HETATM   17  O2  UNL     1      17.221 -12.674 -55.068  1.00  0.00    -0.247 OA
HETATM   18  N3  UNL     1      16.324 -14.670 -55.726  1.00  0.00    -0.338 N 
ATOM     19  H3  UNL     1      15.774 -15.494 -55.487  1.00  0.00     0.164 HD
HETATM   20  F1  UNL     1      17.986 -14.258 -51.509  1.00  0.00    -0.249 F 
BRANCH  18  21
HETATM   21  C13 UNL     1      16.854 -14.557 -57.058  1.00  0.00     0.086 A 
HETATM   22  C14 UNL     1      16.967 -15.741 -57.935  1.00  0.00     0.027 A 
HETATM   23  C15 UNL     1      18.222 -15.154 -57.277  1.00  0.00     0.027 A 
ENDBRANCH  18  21
ENDBRANCH   5   8
ENDBRANCH   3   4
TORSDOF 3
ENDMDL
