MODEL 1
REMARK VINA RESULT: -6.561171356      0.000      0.000
REMARK  3 active torsions:
REMARK  status: ('A' for Active; 'I' for Inactive)
REMARK    1  A    between atoms: C3_5  and  C4_6 
REMARK    2  A    between atoms: C4_6  and  C6_8 
REMARK    3  A    between atoms: C4_6  and  N2_11 
ROOT
HETATM    1  C4  UNL     1      18.369 -16.214 -57.893  1.00  0.00     0.202 C 
HETATM    2  C5  UNL     1      18.532 -15.847 -59.325  1.00  0.00     0.057 C 
ENDROOT
BRANCH   1   3
HETATM    3  C3  UNL     1      17.465 -15.293 -57.131  1.00  0.00     0.057 A 
HETATM    4  N1  UNL     1      17.275 -15.377 -55.803  1.00  0.00    -0.358 N 
HETATM    5  C2  UNL     1      16.515 -14.367 -55.348  1.00  0.00     0.045 A 
ATOM      6  H1  UNL     1      17.660 -16.116 -55.214  1.00  0.00     0.165 HD
HETATM    7  C1  UNL     1      16.117 -14.167 -53.932  1.00  0.00     0.071 C 
HETATM    8  C15 UNL     1      16.223 -13.619 -56.452  1.00  0.00     0.146 A 
HETATM    9  C13 UNL     1      16.804 -14.175 -57.593  1.00  0.00     0.004 A 
HETATM   10  F1  UNL     1      15.474 -12.493 -56.457  1.00  0.00    -0.203 F 
HETATM   11  C14 UNL     1      16.679 -13.691 -58.966  1.00  0.00     0.054 C 
ENDBRANCH   1   3
BRANCH   1  12
HETATM   12  C6  UNL     1      19.705 -15.911 -57.233  1.00  0.00     0.030 A 
HETATM   13  C7  UNL     1      20.476 -14.702 -57.542  1.00  0.00     0.008 A 
HETATM   14  C8  UNL     1      21.006 -15.997 -57.910  1.00  0.00     0.008 A 
ENDBRANCH   1  12
BRANCH   1  15
HETATM   15  N2  UNL     1      17.903 -17.548 -57.646  1.00  0.00     0.114 N 
HETATM   16  C9  UNL     1      17.271 -18.096 -58.849  1.00  0.00     0.294 C 
HETATM   17  C10 UNL     1      18.118 -19.096 -59.604  1.00  0.00     0.153 C 
HETATM   18  N3  UNL     1      18.031 -20.295 -58.735  1.00  0.00    -0.358 N 
HETATM   19  C11 UNL     1      18.181 -19.877 -57.383  1.00  0.00     0.246 C 
ATOM     20  H3  UNL     1      17.889 -21.254 -59.052  1.00  0.00     0.162 HD
HETATM   21  O1  UNL     1      17.792 -20.600 -56.455  1.00  0.00    -0.272 OA
HETATM   22  C12 UNL     1      18.834 -18.528 -57.228  1.00  0.00     0.376 C 
ENDBRANCH   1  15
TORSDOF 3
ENDMDL
MODEL 2
REMARK VINA RESULT: -5.666166590      4.983      7.626
REMARK  3 active torsions:
REMARK  status: ('A' for Active; 'I' for Inactive)
REMARK    1  A    between atoms: C3_5  and  C4_6 
REMARK    2  A    between atoms: C4_6  and  C6_8 
REMARK    3  A    between atoms: C4_6  and  N2_11 
ROOT
HETATM    1  C4  UNL     1      16.111 -11.453 -52.661  1.00  0.00     0.202 C 
HETATM    2  C5  UNL     1      17.009 -11.817 -51.533  1.00  0.00     0.057 C 
ENDROOT
BRANCH   1   3
HETATM    3  C3  UNL     1      15.984  -9.977 -52.882  1.00  0.00     0.057 A 
HETATM    4  N1  UNL     1      14.803  -9.349 -53.016  1.00  0.00    -0.358 N 
HETATM    5  C2  UNL     1      14.956  -8.017 -53.084  1.00  0.00     0.045 A 
ATOM      6  H1  UNL     1      13.902  -9.825 -53.059  1.00  0.00     0.165 HD
HETATM    7  C1  UNL     1      13.853  -7.035 -53.234  1.00  0.00     0.071 C 
HETATM    8  C15 UNL     1      16.302  -7.810 -52.986  1.00  0.00     0.146 A 
HETATM    9  C13 UNL     1      16.980  -9.024 -52.858  1.00  0.00     0.004 A 
HETATM   10  F1  UNL     1      16.911  -6.603 -53.007  1.00  0.00    -0.203 F 
HETATM   11  C14 UNL     1      18.426  -9.218 -52.777  1.00  0.00     0.054 C 
ENDBRANCH   1   3
BRANCH   1  12
HETATM   12  C6  UNL     1      14.704 -11.793 -52.197  1.00  0.00     0.030 A 
HETATM   13  C7  UNL     1      14.348 -11.887 -50.776  1.00  0.00     0.008 A 
HETATM   14  C8  UNL     1      14.312 -13.077 -51.598  1.00  0.00     0.008 A 
ENDBRANCH   1  12
BRANCH   1  15
HETATM   15  N2  UNL     1      16.446 -12.034 -53.930  1.00  0.00     0.114 N 
HETATM   16  C9  UNL     1      17.111 -13.326 -53.737  1.00  0.00     0.294 C 
HETATM   17  C10 UNL     1      16.236 -14.529 -54.010  1.00  0.00     0.153 C 
HETATM   18  N3  UNL     1      16.164 -14.530 -55.492  1.00  0.00    -0.358 N 
HETATM   19  C11 UNL     1      15.959 -13.190 -55.928  1.00  0.00     0.246 C 
ATOM     20  H3  UNL     1      16.247 -15.349 -56.094  1.00  0.00     0.162 HD
HETATM   21  O1  UNL     1      16.222 -12.862 -57.093  1.00  0.00    -0.272 OA
HETATM   22  C12 UNL     1      15.411 -12.276 -54.862  1.00  0.00     0.376 C 
ENDBRANCH   1  15
TORSDOF 3
ENDMDL
MODEL 3
REMARK VINA RESULT: -5.613596783      2.812      5.220
REMARK  3 active torsions:
REMARK  status: ('A' for Active; 'I' for Inactive)
REMARK    1  A    between atoms: C3_5  and  C4_6 
REMARK    2  A    between atoms: C4_6  and  C6_8 
REMARK    3  A    between atoms: C4_6  and  N2_11 
ROOT
HETATM    1  C4  UNL     1      18.537 -16.009 -57.222  1.00  0.00     0.202 C 
HETATM    2  C5  UNL     1      19.171 -16.227 -55.895  1.00  0.00     0.057 C 
ENDROOT
BRANCH   1   3
HETATM    3  C3  UNL     1      18.298 -17.271 -57.994  1.00  0.00     0.057 A 
HETATM    4  N1  UNL     1      18.453 -18.498 -57.469  1.00  0.00    -0.358 N 
HETATM    5  C2  UNL     1      18.064 -19.455 -58.327  1.00  0.00     0.045 A 
ATOM      6  H1  UNL     1      18.820 -18.681 -56.535  1.00  0.00     0.165 HD
HETATM    7  C1  UNL     1      18.106 -20.914 -58.058  1.00  0.00     0.071 C 
HETATM    8  C15 UNL     1      17.645 -18.784 -59.439  1.00  0.00     0.146 A 
HETATM    9  C13 UNL     1      17.780 -17.406 -59.264  1.00  0.00     0.004 A 
HETATM   10  F1  UNL     1      17.163 -19.359 -60.564  1.00  0.00    -0.203 F 
HETATM   11  C14 UNL     1      17.484 -16.363 -60.244  1.00  0.00     0.054 C 
ENDBRANCH   1   3
BRANCH   1  12
HETATM   12  C6  UNL     1      19.598 -15.343 -58.084  1.00  0.00     0.030 A 
HETATM   13  C7  UNL     1      20.994 -15.796 -58.098  1.00  0.00     0.008 A 
HETATM   14  C8  UNL     1      20.675 -14.488 -57.567  1.00  0.00     0.008 A 
ENDBRANCH   1  12
BRANCH   1  15
HETATM   15  N2  UNL     1      17.292 -15.295 -57.202  1.00  0.00     0.114 N 
HETATM   16  C9  UNL     1      16.879 -15.035 -55.821  1.00  0.00     0.294 C 
HETATM   17  C10 UNL     1      17.097 -13.612 -55.356  1.00  0.00     0.153 C 
HETATM   18  N3  UNL     1      16.011 -12.886 -56.060  1.00  0.00    -0.358 N 
HETATM   19  C11 UNL     1      15.952 -13.363 -57.399  1.00  0.00     0.246 C 
ATOM     20  H3  UNL     1      15.410 -12.169 -55.653  1.00  0.00     0.162 HD
HETATM   21  O1  UNL     1      14.929 -13.200 -58.080  1.00  0.00    -0.272 OA
HETATM   22  C12 UNL     1      17.212 -14.047 -57.862  1.00  0.00     0.376 C 
ENDBRANCH   1  15
TORSDOF 3
ENDMDL
MODEL 4
REMARK VINA RESULT: -5.323440334      6.847      9.596
REMARK  3 active torsions:
REMARK  status: ('A' for Active; 'I' for Inactive)
REMARK    1  A    between atoms: C3_5  and  C4_6 
REMARK    2  A    between atoms: C4_6  and  C6_8 
REMARK    3  A    between atoms: C4_6  and  N2_11 
ROOT
HETATM    1  C4  UNL     1      19.857 -23.969 -53.217  1.00  0.00     0.202 C 
HETATM    2  C5  UNL     1      20.322 -25.331 -52.842  1.00  0.00     0.057 C 
ENDROOT
BRANCH   1   3
HETATM    3  C3  UNL     1      19.602 -23.798 -54.684  1.00  0.00     0.057 A 
HETATM    4  N1  UNL     1      19.238 -22.628 -55.238  1.00  0.00    -0.358 N 
HETATM    5  C2  UNL     1      19.190 -22.712 -56.578  1.00  0.00     0.045 A 
ATOM      6  H1  UNL     1      19.026 -21.783 -54.708  1.00  0.00     0.165 HD
HETATM    7  C1  UNL     1      18.822 -21.601 -57.491  1.00  0.00     0.071 C 
HETATM    8  C15 UNL     1      19.544 -23.998 -56.866  1.00  0.00     0.146 A 
HETATM    9  C13 UNL     1      19.810 -24.711 -55.696  1.00  0.00     0.004 A 
HETATM   10  F1  UNL     1      19.630 -24.526 -58.108  1.00  0.00    -0.203 F 
HETATM   11  C14 UNL     1      20.171 -26.123 -55.590  1.00  0.00     0.054 C 
ENDBRANCH   1   3
BRANCH   1  12
HETATM   12  C6  UNL     1      21.057 -23.055 -53.028  1.00  0.00     0.030 A 
HETATM   13  C7  UNL     1      22.393 -23.402 -53.525  1.00  0.00     0.008 A 
HETATM   14  C8  UNL     1      22.165 -23.317 -52.099  1.00  0.00     0.008 A 
ENDBRANCH   1  12
BRANCH   1  15
HETATM   15  N2  UNL     1      18.680 -23.509 -52.537  1.00  0.00     0.114 N 
HETATM   16  C9  UNL     1      17.588 -24.471 -52.705  1.00  0.00     0.294 C 
HETATM   17  C10 UNL     1      17.314 -25.330 -51.491  1.00  0.00     0.153 C 
HETATM   18  N3  UNL     1      16.636 -24.373 -50.581  1.00  0.00    -0.358 N 
HETATM   19  C11 UNL     1      17.341 -23.137 -50.629  1.00  0.00     0.246 C 
ATOM     20  H3  UNL     1      15.808 -24.568 -50.018  1.00  0.00     0.162 HD
HETATM   21  O1  UNL     1      16.795 -22.088 -50.263  1.00  0.00    -0.272 OA
HETATM   22  C12 UNL     1      18.751 -23.256 -51.147  1.00  0.00     0.376 C 
ENDBRANCH   1  15
TORSDOF 3
ENDMDL
MODEL 5
REMARK VINA RESULT: -5.178920319      7.228     10.081
REMARK  3 active torsions:
REMARK  status: ('A' for Active; 'I' for Inactive)
REMARK    1  A    between atoms: C3_5  and  C4_6 
REMARK    2  A    between atoms: C4_6  and  C6_8 
REMARK    3  A    between atoms: C4_6  and  N2_11 
ROOT
HETATM    1  C4  UNL     1      19.941 -24.045 -53.149  1.00  0.00     0.202 C 
HETATM    2  C5  UNL     1      19.609 -22.870 -52.301  1.00  0.00     0.057 C 
ENDROOT
BRANCH   1   3
HETATM    3  C3  UNL     1      19.660 -23.841 -54.607  1.00  0.00     0.057 A 
HETATM    4  N1  UNL     1      19.294 -22.657 -55.128  1.00  0.00    -0.358 N 
HETATM    5  C2  UNL     1      19.219 -22.710 -56.468  1.00  0.00     0.045 A 
ATOM      6  H1  UNL     1      19.099 -21.822 -54.576  1.00  0.00     0.165 HD
HETATM    7  C1  UNL     1      18.842 -21.577 -57.350  1.00  0.00     0.071 C 
HETATM    8  C15 UNL     1      19.557 -23.993 -56.791  1.00  0.00     0.146 A 
HETATM    9  C13 UNL     1      19.840 -24.733 -55.642  1.00  0.00     0.004 A 
HETATM   10  F1  UNL     1      19.615 -24.494 -58.046  1.00  0.00    -0.203 F 
HETATM   11  C14 UNL     1      20.192 -26.149 -55.574  1.00  0.00     0.054 C 
ENDBRANCH   1   3
BRANCH   1  12
HETATM   12  C6  UNL     1      18.909 -25.108 -52.807  1.00  0.00     0.030 A 
HETATM   13  C7  UNL     1      17.471 -24.817 -52.756  1.00  0.00     0.008 A 
HETATM   14  C8  UNL     1      18.168 -25.171 -51.539  1.00  0.00     0.008 A 
ENDBRANCH   1  12
BRANCH   1  15
HETATM   15  N2  UNL     1      21.293 -24.516 -53.051  1.00  0.00     0.114 N 
HETATM   16  C9  UNL     1      22.224 -23.486 -53.520  1.00  0.00     0.294 C 
HETATM   17  C10 UNL     1      22.956 -22.752 -52.419  1.00  0.00     0.153 C 
HETATM   18  N3  UNL     1      23.944 -23.766 -51.975  1.00  0.00    -0.358 N 
HETATM   19  C11 UNL     1      23.283 -25.024 -51.889  1.00  0.00     0.246 C 
ATOM     20  H3  UNL     1      24.927 -23.591 -51.766  1.00  0.00     0.162 HD
HETATM   21  O1  UNL     1      23.935 -26.077 -51.899  1.00  0.00    -0.272 OA
HETATM   22  C12 UNL     1      21.783 -24.922 -51.788  1.00  0.00     0.376 C 
ENDBRANCH   1  15
TORSDOF 3
ENDMDL
