MODEL 1
REMARK VINA RESULT: -6.184762639      0.000      0.000
REMARK  4 active torsions:
REMARK  status: ('A' for Active; 'I' for Inactive)
REMARK    1  A    between atoms: C2_2  and  C3_4 
REMARK    2  A    between atoms: C3_4  and  N1_5 
REMARK    3  A    between atoms: C6_8  and  N2_9 
REMARK    4  A    between atoms: N2_9  and  C7_11 
ROOT
HETATM    1  N1  UNL     1      18.800 -17.654 -58.084  1.00  0.00     0.093 N 
HETATM    2  C4  UNL     1      17.932 -16.951 -58.987  1.00  0.00     0.275 C 
HETATM    3  C5  UNL     1      17.013 -16.082 -58.177  1.00  0.00     0.056 C 
HETATM    4  C6  UNL     1      17.810 -15.209 -57.243  1.00  0.00     0.090 C 
HETATM    5  C8  UNL     1      19.291 -15.356 -57.377  1.00  0.00     0.032 C 
HETATM    6  C9  UNL     1      19.883 -14.602 -58.529  1.00  0.00     0.014 C 
HETATM    7  C10 UNL     1      19.688 -16.812 -57.346  1.00  0.00     0.279 C 
ENDROOT
BRANCH   4   8
HETATM    8  N2  UNL     1      17.360 -13.846 -57.379  1.00  0.00    -0.364 N 
ATOM      9  H2  UNL     1      17.970 -13.166 -57.833  1.00  0.00     0.162 HD
BRANCH   8  10
HETATM   10  C7  UNL     1      16.097 -13.423 -56.901  1.00  0.00     0.181 C 
HETATM   11  N3  UNL     1      14.988 -13.220 -57.758  1.00  0.00    -0.070 NA
HETATM   12  S1  UNL     1      15.932 -13.164 -55.302  1.00  0.00    -0.044 SA
ENDBRANCH   8  10
ENDBRANCH   4   8
BRANCH   1  13
HETATM   13  C3  UNL     1      19.460 -18.717 -58.802  1.00  0.00     0.317 C 
BRANCH  13  14
HETATM   14  C2  UNL     1      18.585 -19.901 -58.997  1.00  0.00     0.007 C 
HETATM   15  C1  UNL     1      17.805 -19.968 -60.055  1.00  0.00     0.029 C 
HETATM   16 BR1  UNL     1      18.567 -21.329 -57.739  1.00  0.00    -0.055 Br
ENDBRANCH  13  14
ENDBRANCH   1  13
TORSDOF 4
ENDMDL
MODEL 2
REMARK VINA RESULT: -5.233858821      2.645      3.659
REMARK  4 active torsions:
REMARK  status: ('A' for Active; 'I' for Inactive)
REMARK    1  A    between atoms: C2_2  and  C3_4 
REMARK    2  A    between atoms: C3_4  and  N1_5 
REMARK    3  A    between atoms: C6_8  and  N2_9 
REMARK    4  A    between atoms: N2_9  and  C7_11 
ROOT
HETATM    1  N1  UNL     1      18.419 -17.336 -58.867  1.00  0.00     0.093 N 
HETATM    2  C4  UNL     1      19.157 -17.360 -57.635  1.00  0.00     0.275 C 
HETATM    3  C5  UNL     1      20.354 -16.465 -57.785  1.00  0.00     0.056 C 
HETATM    4  C6  UNL     1      19.928 -15.097 -58.251  1.00  0.00     0.090 C 
HETATM    5  C8  UNL     1      18.449 -14.929 -58.391  1.00  0.00     0.032 C 
HETATM    6  C9  UNL     1      17.734 -14.672 -57.101  1.00  0.00     0.014 C 
HETATM    7  C10 UNL     1      17.857 -16.063 -59.191  1.00  0.00     0.279 C 
ENDROOT
BRANCH   4   8
HETATM    8  N2  UNL     1      20.534 -14.103 -57.400  1.00  0.00    -0.364 N 
ATOM      9  H2  UNL     1      19.954 -13.355 -57.021  1.00  0.00     0.162 HD
BRANCH   8  10
HETATM   10  C7  UNL     1      21.911 -14.135 -57.075  1.00  0.00     0.181 C 
HETATM   11  N3  UNL     1      22.601 -15.342 -56.806  1.00  0.00    -0.070 NA
HETATM   12  S1  UNL     1      22.716 -12.722 -57.012  1.00  0.00    -0.044 SA
ENDBRANCH   8  10
ENDBRANCH   4   8
BRANCH   1  13
HETATM   13  C3  UNL     1      17.463 -18.416 -58.861  1.00  0.00     0.317 C 
BRANCH  13  14
HETATM   14  C2  UNL     1      18.107 -19.745 -58.702  1.00  0.00     0.007 C 
HETATM   15  C1  UNL     1      18.697 -20.311 -59.733  1.00  0.00     0.029 C 
HETATM   16 BR1  UNL     1      18.092 -20.651 -57.028  1.00  0.00    -0.055 Br
ENDBRANCH  13  14
ENDBRANCH   1  13
TORSDOF 4
ENDMDL
MODEL 3
REMARK VINA RESULT: -5.199618265      2.835      4.209
REMARK  4 active torsions:
REMARK  status: ('A' for Active; 'I' for Inactive)
REMARK    1  A    between atoms: C2_2  and  C3_4 
REMARK    2  A    between atoms: C3_4  and  N1_5 
REMARK    3  A    between atoms: C6_8  and  N2_9 
REMARK    4  A    between atoms: N2_9  and  C7_11 
ROOT
HETATM    1  N1  UNL     1      18.880 -21.016 -57.855  1.00  0.00     0.093 N 
HETATM    2  C4  UNL     1      17.951 -20.232 -57.089  1.00  0.00     0.275 C 
HETATM    3  C5  UNL     1      18.555 -18.877 -56.858  1.00  0.00     0.056 C 
HETATM    4  C6  UNL     1      18.983 -18.266 -58.167  1.00  0.00     0.090 C 
HETATM    5  C8  UNL     1      18.659 -19.096 -59.367  1.00  0.00     0.032 C 
HETATM    6  C9  UNL     1      17.237 -18.989 -59.824  1.00  0.00     0.014 C 
HETATM    7  C10 UNL     1      19.122 -20.519 -59.172  1.00  0.00     0.279 C 
ENDROOT
BRANCH   4   8
HETATM    8  N2  UNL     1      18.464 -16.923 -58.248  1.00  0.00    -0.364 N 
ATOM      9  H2  UNL     1      17.613 -16.753 -58.785  1.00  0.00     0.162 HD
BRANCH   8  10
HETATM   10  C7  UNL     1      19.100 -15.835 -57.606  1.00  0.00     0.181 C 
HETATM   11  N3  UNL     1      18.375 -14.796 -56.971  1.00  0.00    -0.070 NA
HETATM   12  S1  UNL     1      20.727 -15.790 -57.607  1.00  0.00    -0.044 SA
ENDBRANCH   8  10
ENDBRANCH   4   8
BRANCH   1  13
HETATM   13  C3  UNL     1      18.472 -22.398 -57.813  1.00  0.00     0.317 C 
BRANCH  13  14
HETATM   14  C2  UNL     1      19.253 -23.194 -56.832  1.00  0.00     0.007 C 
HETATM   15  C1  UNL     1      19.509 -22.692 -55.643  1.00  0.00     0.029 C 
HETATM   16 BR1  UNL     1      19.897 -24.931 -57.264  1.00  0.00    -0.055 Br
ENDBRANCH  13  14
ENDBRANCH   1  13
TORSDOF 4
ENDMDL
MODEL 4
REMARK VINA RESULT: -5.025890350      1.120      1.385
REMARK  4 active torsions:
REMARK  status: ('A' for Active; 'I' for Inactive)
REMARK    1  A    between atoms: C2_2  and  C3_4 
REMARK    2  A    between atoms: C3_4  and  N1_5 
REMARK    3  A    between atoms: C6_8  and  N2_9 
REMARK    4  A    between atoms: N2_9  and  C7_11 
ROOT
HETATM    1  N1  UNL     1      18.283 -17.383 -58.150  1.00  0.00     0.093 N 
HETATM    2  C4  UNL     1      17.746 -16.321 -58.954  1.00  0.00     0.275 C 
HETATM    3  C5  UNL     1      16.764 -15.548 -58.120  1.00  0.00     0.056 C 
HETATM    4  C6  UNL     1      17.405 -15.114 -56.827  1.00  0.00     0.090 C 
HETATM    5  C8  UNL     1      18.848 -15.484 -56.702  1.00  0.00     0.032 C 
HETATM    6  C9  UNL     1      19.784 -14.570 -57.432  1.00  0.00     0.014 C 
HETATM    7  C10 UNL     1      19.055 -16.942 -57.032  1.00  0.00     0.279 C 
ENDROOT
BRANCH   4   8
HETATM    8  N2  UNL     1      17.162 -13.706 -56.634  1.00  0.00    -0.364 N 
ATOM      9  H2  UNL     1      17.145 -13.091 -57.448  1.00  0.00     0.162 HD
BRANCH   8  10
HETATM   10  C7  UNL     1      16.945 -13.153 -55.350  1.00  0.00     0.181 C 
HETATM   11  N3  UNL     1      17.980 -12.546 -54.598  1.00  0.00    -0.070 NA
HETATM   12  S1  UNL     1      15.442 -13.226 -54.729  1.00  0.00    -0.044 SA
ENDBRANCH   8  10
ENDBRANCH   4   8
BRANCH   1  13
HETATM   13  C3  UNL     1      18.971 -18.317 -59.007  1.00  0.00     0.317 C 
BRANCH  13  14
HETATM   14  C2  UNL     1      18.232 -19.596 -59.164  1.00  0.00     0.007 C 
HETATM   15  C1  UNL     1      17.328 -19.714 -60.113  1.00  0.00     0.029 C 
HETATM   16 BR1  UNL     1      18.567 -21.073 -58.013  1.00  0.00    -0.055 Br
ENDBRANCH  13  14
ENDBRANCH   1  13
TORSDOF 4
ENDMDL
MODEL 5
REMARK VINA RESULT: -4.953449804      5.628      8.255
REMARK  4 active torsions:
REMARK  status: ('A' for Active; 'I' for Inactive)
REMARK    1  A    between atoms: C2_2  and  C3_4 
REMARK    2  A    between atoms: C3_4  and  N1_5 
REMARK    3  A    between atoms: C6_8  and  N2_9 
REMARK    4  A    between atoms: N2_9  and  C7_11 
ROOT
HETATM    1  N1  UNL     1      16.299 -12.248 -52.066  1.00  0.00     0.093 N 
HETATM    2  C4  UNL     1      15.203 -12.092 -52.981  1.00  0.00     0.275 C 
HETATM    3  C5  UNL     1      15.699 -12.396 -54.366  1.00  0.00     0.056 C 
HETATM    4  C6  UNL     1      16.372 -13.743 -54.395  1.00  0.00     0.090 C 
HETATM    5  C8  UNL     1      16.338 -14.476 -53.093  1.00  0.00     0.032 C 
HETATM    6  C9  UNL     1      15.041 -15.171 -52.813  1.00  0.00     0.014 C 
HETATM    7  C10 UNL     1      16.796 -13.583 -51.966  1.00  0.00     0.279 C 
ENDROOT
BRANCH   4   8
HETATM    8  N2  UNL     1      15.837 -14.510 -55.493  1.00  0.00    -0.364 N 
ATOM      9  H2  UNL     1      15.169 -15.254 -55.297  1.00  0.00     0.162 HD
BRANCH   8  10
HETATM   10  C7  UNL     1      16.212 -14.259 -56.834  1.00  0.00     0.181 C 
HETATM   11  N3  UNL     1      15.443 -13.445 -57.701  1.00  0.00    -0.070 NA
HETATM   12  S1  UNL     1      17.584 -14.941 -57.385  1.00  0.00    -0.044 SA
ENDBRANCH   8  10
ENDBRANCH   4   8
BRANCH   1  13
HETATM   13  C3  UNL     1      15.938 -11.659 -50.799  1.00  0.00     0.317 C 
BRANCH  13  14
HETATM   14  C2  UNL     1      16.024 -10.176 -50.815  1.00  0.00     0.007 C 
HETATM   15  C1  UNL     1      15.068  -9.463 -50.260  1.00  0.00     0.029 C 
HETATM   16 BR1  UNL     1      17.495  -9.286 -51.629  1.00  0.00    -0.055 Br
ENDBRANCH  13  14
ENDBRANCH   1  13
TORSDOF 4
ENDMDL
