MODEL 1
REMARK VINA RESULT: -8.914712295      0.000      0.000
REMARK  5 active torsions:
REMARK  status: ('A' for Active; 'I' for Inactive)
REMARK    1  A    between atoms: O1_2  and  C2_3 
REMARK    2  A    between atoms: N1_10  and  C9_11 
REMARK    3  A    between atoms: C13_18  and  N3_19 
REMARK    4  A    between atoms: N3_19  and  C14_22 
REMARK    5  A    between atoms: C14_22  and  C15_23 
ROOT
HETATM    1  C9  UNL     1      40.349  36.594  52.211  1.00  0.00     0.147 A 
HETATM    2  N2  UNL     1      41.444  35.859  52.147  1.00  0.00    -0.339 N 
ATOM      3  H2  UNL     1      41.375  34.861  51.954  1.00  0.00     0.168 HD
HETATM    4  C10 UNL     1      42.614  36.406  52.331  1.00  0.00     0.024 A 
HETATM    5  C11 UNL     1      42.662  37.747  52.586  1.00  0.00     0.011 A 
HETATM    6  S1  UNL     1      40.976  38.148  52.547  1.00  0.00    -0.057 SA
HETATM    7  C12 UNL     1      43.872  38.572  52.830  1.00  0.00     0.081 C 
HETATM    8  C13 UNL     1      45.104  37.780  52.793  1.00  0.00     0.191 C 
HETATM    9  C20 UNL     1      44.871  36.371  53.184  1.00  0.00     0.039 C 
HETATM   10  C21 UNL     1      43.936  35.624  52.285  1.00  0.00     0.060 C 
ENDROOT
BRANCH   1  11
HETATM   11  N1  UNL     1      38.998  36.168  52.054  1.00  0.00    -0.361 N 
HETATM   12  C8  UNL     1      38.002  37.117  51.659  1.00  0.00     0.125 C 
HETATM   13  C7  UNL     1      37.386  36.655  50.388  1.00  0.00     0.021 C 
HETATM   14  C6  UNL     1      37.247  35.197  50.263  1.00  0.00     0.012 C 
HETATM   15  C5  UNL     1      37.488  34.343  51.456  1.00  0.00    -0.024 C 
HETATM   16  C4  UNL     1      36.275  34.168  52.316  1.00  0.00     0.013 C 
HETATM   17  C22 UNL     1      38.662  34.805  52.293  1.00  0.00     0.134 C 
HETATM   18  C23 UNL     1      37.866  32.946  50.953  1.00  0.00     0.013 C 
HETATM   19  C3  UNL     1      35.163  33.411  51.681  1.00  0.00     0.033 C 
HETATM   20  C2  UNL     1      35.632  32.042  51.218  1.00  0.00     0.120 C 
HETATM   21  C24 UNL     1      36.749  32.297  50.210  1.00  0.00     0.033 C 
BRANCH  20  22
HETATM   22  O1  UNL     1      34.590  31.324  50.633  1.00  0.00    -0.391 OA
HETATM   23  C1  UNL     1      33.460  32.137  50.660  1.00  0.00     0.202 C 
ENDBRANCH  20  22
ENDBRANCH   1  11
BRANCH   8  24
HETATM   24  N3  UNL     1      45.932  37.923  51.611  1.00  0.00    -0.067 N 
ATOM     25  H32 UNL     1      45.949  37.071  51.052  1.00  0.00     0.277 HD
ATOM     26  H31 UNL     1      45.509  38.545  50.922  1.00  0.00     0.277 HD
BRANCH  24  27
HETATM   27  C14 UNL     1      47.263  38.352  51.984  1.00  0.00     0.274 C 
BRANCH  27  28
HETATM   28  C15 UNL     1      48.234  37.250  51.828  1.00  0.00     0.008 A 
HETATM   29  C16 UNL     1      48.804  36.818  50.664  1.00  0.00     0.118 A 
HETATM   30  N4  UNL     1      49.641  35.783  50.949  1.00  0.00    -0.309 N 
HETATM   31  N5  UNL     1      49.584  35.587  52.257  1.00  0.00    -0.301 N 
ATOM     32  H4  UNL     1      50.206  35.258  50.282  1.00  0.00     0.186 HD
HETATM   33  C17 UNL     1      50.320  34.569  52.998  1.00  0.00     0.177 C 
HETATM   34  C18 UNL     1      48.729  36.468  52.837  1.00  0.00     0.033 A 
HETATM   35  C19 UNL     1      48.435  36.521  54.283  1.00  0.00     0.070 C 
ENDBRANCH  27  28
ENDBRANCH  24  27
ENDBRANCH   8  24
TORSDOF 5
ENDMDL
MODEL 2
REMARK VINA RESULT: -8.835107312      3.630     10.341
REMARK  5 active torsions:
REMARK  status: ('A' for Active; 'I' for Inactive)
REMARK    1  A    between atoms: O1_2  and  C2_3 
REMARK    2  A    between atoms: N1_10  and  C9_11 
REMARK    3  A    between atoms: C13_18  and  N3_19 
REMARK    4  A    between atoms: N3_19  and  C14_22 
REMARK    5  A    between atoms: C14_22  and  C15_23 
ROOT
HETATM    1  C9  UNL     1      42.761  36.766  52.524  1.00  0.00     0.147 A 
HETATM    2  N2  UNL     1      41.817  37.594  52.113  1.00  0.00    -0.339 N 
ATOM      3  H2  UNL     1      42.056  38.368  51.494  1.00  0.00     0.168 HD
HETATM    4  C10 UNL     1      40.582  37.424  52.495  1.00  0.00     0.024 A 
HETATM    5  C11 UNL     1      40.306  36.374  53.323  1.00  0.00     0.011 A 
HETATM    6  S1  UNL     1      41.882  35.677  53.506  1.00  0.00    -0.057 SA
HETATM    7  C12 UNL     1      38.984  35.995  53.883  1.00  0.00     0.081 C 
HETATM    8  C13 UNL     1      37.919  36.912  53.467  1.00  0.00     0.191 C 
HETATM    9  C20 UNL     1      38.432  38.273  53.191  1.00  0.00     0.039 C 
HETATM   10  C21 UNL     1      39.426  38.345  52.074  1.00  0.00     0.060 C 
ENDROOT
BRANCH   1  11
HETATM   11  N1  UNL     1      44.153  36.805  52.223  1.00  0.00    -0.361 N 
HETATM   12  C8  UNL     1      44.712  37.981  51.629  1.00  0.00     0.125 C 
HETATM   13  C7  UNL     1      45.774  38.506  52.527  1.00  0.00     0.021 C 
HETATM   14  C6  UNL     1      46.551  37.475  53.232  1.00  0.00     0.012 C 
HETATM   15  C5  UNL     1      46.397  36.051  52.830  1.00  0.00    -0.024 C 
HETATM   16  C4  UNL     1      47.297  35.652  51.703  1.00  0.00     0.013 C 
HETATM   17  C22 UNL     1      44.964  35.672  52.517  1.00  0.00     0.134 C 
HETATM   18  C23 UNL     1      46.798  35.189  54.030  1.00  0.00     0.013 C 
HETATM   19  C3  UNL     1      48.748  35.670  52.026  1.00  0.00     0.033 C 
HETATM   20  C2  UNL     1      49.050  34.786  53.225  1.00  0.00     0.120 C 
HETATM   21  C24 UNL     1      48.237  35.356  54.384  1.00  0.00     0.033 C 
BRANCH  20  22
HETATM   22  O1  UNL     1      50.411  34.790  53.525  1.00  0.00    -0.391 OA
HETATM   23  C1  UNL     1      51.015  35.731  52.694  1.00  0.00     0.202 C 
ENDBRANCH  20  22
ENDBRANCH   1  11
BRANCH   8  24
HETATM   24  N3  UNL     1      37.001  36.424  52.456  1.00  0.00    -0.067 N 
ATOM     25  H32 UNL     1      36.261  37.096  52.256  1.00  0.00     0.277 HD
ATOM     26  H31 UNL     1      37.432  36.395  51.532  1.00  0.00     0.277 HD
BRANCH  24  27
HETATM   27  C14 UNL     1      36.470  35.135  52.846  1.00  0.00     0.274 C 
BRANCH  27  28
HETATM   28  C15 UNL     1      36.275  34.268  51.667  1.00  0.00     0.008 A 
HETATM   29  C16 UNL     1      35.107  34.049  50.993  1.00  0.00     0.118 A 
HETATM   30  N4  UNL     1      35.352  33.186  49.969  1.00  0.00    -0.309 N 
HETATM   31  N5  UNL     1      36.640  32.883  50.017  1.00  0.00    -0.301 N 
ATOM     32  H4  UNL     1      34.672  32.839  49.293  1.00  0.00     0.186 HD
HETATM   33  C17 UNL     1      37.336  31.981  49.106  1.00  0.00     0.177 C 
HETATM   34  C18 UNL     1      37.246  33.526  51.048  1.00  0.00     0.033 A 
HETATM   35  C19 UNL     1      38.679  33.408  51.382  1.00  0.00     0.070 C 
ENDBRANCH  27  28
ENDBRANCH  24  27
ENDBRANCH   8  24
TORSDOF 5
ENDMDL
MODEL 3
REMARK VINA RESULT: -8.724513065      5.051     11.072
REMARK  5 active torsions:
REMARK  status: ('A' for Active; 'I' for Inactive)
REMARK    1  A    between atoms: O1_2  and  C2_3 
REMARK    2  A    between atoms: N1_10  and  C9_11 
REMARK    3  A    between atoms: C13_18  and  N3_19 
REMARK    4  A    between atoms: N3_19  and  C14_22 
REMARK    5  A    between atoms: C14_22  and  C15_23 
ROOT
HETATM    1  C9  UNL     1      39.058  35.907  51.854  1.00  0.00     0.147 A 
HETATM    2  N2  UNL     1      39.088  34.612  51.594  1.00  0.00    -0.339 N 
ATOM      3  H2  UNL     1      39.839  34.036  51.973  1.00  0.00     0.168 HD
HETATM    4  C10 UNL     1      38.160  34.068  50.856  1.00  0.00     0.024 A 
HETATM    5  C11 UNL     1      37.172  34.876  50.371  1.00  0.00     0.011 A 
HETATM    6  S1  UNL     1      37.651  36.409  51.023  1.00  0.00    -0.057 SA
HETATM    7  C12 UNL     1      36.027  34.479  49.513  1.00  0.00     0.081 C 
HETATM    8  C13 UNL     1      36.047  33.051  49.184  1.00  0.00     0.191 C 
HETATM    9  C20 UNL     1      37.421  32.500  49.178  1.00  0.00     0.039 C 
HETATM   10  C21 UNL     1      38.125  32.575  50.497  1.00  0.00     0.060 C 
ENDROOT
BRANCH   1  11
HETATM   11  N1  UNL     1      39.987  36.668  52.622  1.00  0.00    -0.361 N 
HETATM   12  C8  UNL     1      41.387  36.406  52.494  1.00  0.00     0.125 C 
HETATM   13  C7  UNL     1      42.063  37.651  52.044  1.00  0.00     0.021 C 
HETATM   14  C6  UNL     1      41.491  38.893  52.583  1.00  0.00     0.012 C 
HETATM   15  C5  UNL     1      40.490  38.812  53.680  1.00  0.00    -0.024 C 
HETATM   16  C4  UNL     1      41.105  38.759  55.043  1.00  0.00     0.013 C 
HETATM   17  C22 UNL     1      39.504  37.676  53.504  1.00  0.00     0.134 C 
HETATM   18  C23 UNL     1      39.653  40.094  53.634  1.00  0.00     0.013 C 
HETATM   19  C3  UNL     1      41.830  39.991  55.450  1.00  0.00     0.033 C 
HETATM   20  C2  UNL     1      40.922  41.207  55.375  1.00  0.00     0.120 C 
HETATM   21  C24 UNL     1      40.471  41.307  53.921  1.00  0.00     0.033 C 
BRANCH  20  22
HETATM   22  O1  UNL     1      41.593  42.364  55.767  1.00  0.00    -0.391 OA
HETATM   23  C1  UNL     1      42.794  42.404  55.063  1.00  0.00     0.202 C 
ENDBRANCH  20  22
ENDBRANCH   1  11
BRANCH   8  24
HETATM   24  N3  UNL     1      35.090  32.211  49.880  1.00  0.00    -0.067 N 
ATOM     25  H32 UNL     1      34.659  31.528  49.258  1.00  0.00     0.277 HD
ATOM     26  H31 UNL     1      35.548  31.562  50.521  1.00  0.00     0.277 HD
BRANCH  24  27
HETATM   27  C14 UNL     1      34.104  33.031  50.551  1.00  0.00     0.274 C 
BRANCH  27  28
HETATM   28  C15 UNL     1      33.729  32.442  51.854  1.00  0.00     0.008 A 
HETATM   29  C16 UNL     1      34.571  32.112  52.877  1.00  0.00     0.118 A 
HETATM   30  N4  UNL     1      33.831  31.598  53.898  1.00  0.00    -0.309 N 
HETATM   31  N5  UNL     1      32.567  31.612  53.507  1.00  0.00    -0.301 N 
ATOM     32  H4  UNL     1      34.185  31.265  54.795  1.00  0.00     0.186 HD
HETATM   33  C17 UNL     1      31.429  31.144  54.289  1.00  0.00     0.177 C 
HETATM   34  C18 UNL     1      32.459  32.123  52.253  1.00  0.00     0.033 A 
HETATM   35  C19 UNL     1      31.187  32.279  51.520  1.00  0.00     0.070 C 
ENDBRANCH  27  28
ENDBRANCH  24  27
ENDBRANCH   8  24
TORSDOF 5
ENDMDL
MODEL 4
REMARK VINA RESULT: -8.708210929      5.739     10.980
REMARK  5 active torsions:
REMARK  status: ('A' for Active; 'I' for Inactive)
REMARK    1  A    between atoms: O1_2  and  C2_3 
REMARK    2  A    between atoms: N1_10  and  C9_11 
REMARK    3  A    between atoms: C13_18  and  N3_19 
REMARK    4  A    between atoms: N3_19  and  C14_22 
REMARK    5  A    between atoms: C14_22  and  C15_23 
ROOT
HETATM    1  C9  UNL     1      43.599  38.622  52.742  1.00  0.00     0.147 A 
HETATM    2  N2  UNL     1      43.515  39.456  53.763  1.00  0.00    -0.339 N 
ATOM      3  H2  UNL     1      44.357  39.719  54.275  1.00  0.00     0.168 HD
HETATM    4  C10 UNL     1      42.359  39.943  54.120  1.00  0.00     0.024 A 
HETATM    5  C11 UNL     1      41.257  39.566  53.408  1.00  0.00     0.011 A 
HETATM    6  S1  UNL     1      41.970  38.503  52.239  1.00  0.00    -0.057 SA
HETATM    7  C12 UNL     1      39.852  39.988  53.636  1.00  0.00     0.081 C 
HETATM    8  C13 UNL     1      39.721  40.894  54.781  1.00  0.00     0.191 C 
HETATM    9  C20 UNL     1      40.778  40.667  55.793  1.00  0.00     0.039 C 
HETATM   10  C21 UNL     1      42.170  40.909  55.300  1.00  0.00     0.060 C 
ENDROOT
BRANCH   1  11
HETATM   11  N1  UNL     1      44.765  37.984  52.225  1.00  0.00    -0.361 N 
HETATM   12  C8  UNL     1      45.394  38.511  51.054  1.00  0.00     0.125 C 
HETATM   13  C7  UNL     1      46.796  38.872  51.391  1.00  0.00     0.021 C 
HETATM   14  C6  UNL     1      47.447  37.978  52.360  1.00  0.00     0.012 C 
HETATM   15  C5  UNL     1      46.781  36.699  52.725  1.00  0.00    -0.024 C 
HETATM   16  C4  UNL     1      47.106  35.573  51.794  1.00  0.00     0.013 C 
HETATM   17  C22 UNL     1      45.281  36.833  52.884  1.00  0.00     0.134 C 
HETATM   18  C23 UNL     1      47.306  36.285  54.103  1.00  0.00     0.013 C 
HETATM   19  C3  UNL     1      48.527  35.135  51.815  1.00  0.00     0.033 C 
HETATM   20  C2  UNL     1      48.956  34.743  53.219  1.00  0.00     0.120 C 
HETATM   21  C24 UNL     1      48.767  35.989  54.080  1.00  0.00     0.033 C 
BRANCH  20  22
HETATM   22  O1  UNL     1      50.284  34.321  53.241  1.00  0.00    -0.391 OA
HETATM   23  C1  UNL     1      51.077  35.433  52.966  1.00  0.00     0.202 C 
ENDBRANCH  20  22
ENDBRANCH   1  11
BRANCH   8  24
HETATM   24  N3  UNL     1      39.501  42.294  54.478  1.00  0.00    -0.067 N 
ATOM     25  H32 UNL     1      39.291  42.837  55.315  1.00  0.00     0.277 HD
ATOM     26  H31 UNL     1      40.364  42.766  54.207  1.00  0.00     0.277 HD
BRANCH  24  27
HETATM   27  C14 UNL     1      38.469  42.431  53.472  1.00  0.00     0.274 C 
BRANCH  27  28
HETATM   28  C15 UNL     1      37.941  43.810  53.443  1.00  0.00     0.008 A 
HETATM   29  C16 UNL     1      37.389  44.499  54.486  1.00  0.00     0.118 A 
HETATM   30  N4  UNL     1      37.027  45.735  54.045  1.00  0.00    -0.309 N 
HETATM   31  N5  UNL     1      37.349  45.800  52.763  1.00  0.00    -0.301 N 
ATOM     32  H4  UNL     1      36.591  46.472  54.599  1.00  0.00     0.186 HD
HETATM   33  C17 UNL     1      37.134  46.946  51.888  1.00  0.00     0.177 C 
HETATM   34  C18 UNL     1      37.914  44.635  52.351  1.00  0.00     0.033 A 
HETATM   35  C19 UNL     1      38.388  44.375  50.977  1.00  0.00     0.070 C 
ENDBRANCH  27  28
ENDBRANCH  24  27
ENDBRANCH   8  24
TORSDOF 5
ENDMDL
MODEL 5
REMARK VINA RESULT: -8.546876986      3.614     10.551
REMARK  5 active torsions:
REMARK  status: ('A' for Active; 'I' for Inactive)
REMARK    1  A    between atoms: O1_2  and  C2_3 
REMARK    2  A    between atoms: N1_10  and  C9_11 
REMARK    3  A    between atoms: C13_18  and  N3_19 
REMARK    4  A    between atoms: N3_19  and  C14_22 
REMARK    5  A    between atoms: C14_22  and  C15_23 
ROOT
HETATM    1  C9  UNL     1      42.739  36.685  52.531  1.00  0.00     0.147 A 
HETATM    2  N2  UNL     1      41.780  37.490  52.107  1.00  0.00    -0.339 N 
ATOM      3  H2  UNL     1      42.006  38.265  51.484  1.00  0.00     0.168 HD
HETATM    4  C10 UNL     1      40.546  37.297  52.483  1.00  0.00     0.024 A 
HETATM    5  C11 UNL     1      40.287  36.247  53.317  1.00  0.00     0.011 A 
HETATM    6  S1  UNL     1      41.877  35.586  53.515  1.00  0.00    -0.057 SA
HETATM    7  C12 UNL     1      38.971  35.845  53.872  1.00  0.00     0.081 C 
HETATM    8  C13 UNL     1      37.889  36.736  53.442  1.00  0.00     0.191 C 
HETATM    9  C20 UNL     1      38.375  38.105  53.159  1.00  0.00     0.039 C 
HETATM   10  C21 UNL     1      39.374  38.190  52.048  1.00  0.00     0.060 C 
ENDROOT
BRANCH   1  11
HETATM   11  N1  UNL     1      44.132  36.752  52.238  1.00  0.00    -0.361 N 
HETATM   12  C8  UNL     1      44.672  37.941  51.653  1.00  0.00     0.125 C 
HETATM   13  C7  UNL     1      45.719  38.481  52.560  1.00  0.00     0.021 C 
HETATM   14  C6  UNL     1      46.511  37.461  53.264  1.00  0.00     0.012 C 
HETATM   15  C5  UNL     1      46.385  36.037  52.853  1.00  0.00    -0.024 C 
HETATM   16  C4  UNL     1      47.300  35.661  51.730  1.00  0.00     0.013 C 
HETATM   17  C22 UNL     1      44.962  35.633  52.530  1.00  0.00     0.134 C 
HETATM   18  C23 UNL     1      46.796  35.176  54.051  1.00  0.00     0.013 C 
HETATM   19  C3  UNL     1      48.748  35.703  52.062  1.00  0.00     0.033 C 
HETATM   20  C2  UNL     1      49.060  34.819  53.257  1.00  0.00     0.120 C 
HETATM   21  C24 UNL     1      48.229  35.367  54.415  1.00  0.00     0.033 C 
BRANCH  20  22
HETATM   22  O1  UNL     1      50.418  34.847  53.565  1.00  0.00    -0.391 OA
HETATM   23  C1  UNL     1      51.039  35.666  52.625  1.00  0.00     0.202 C 
ENDBRANCH  20  22
ENDBRANCH   1  11
BRANCH   8  24
HETATM   24  N3  UNL     1      36.988  36.220  52.430  1.00  0.00    -0.067 N 
ATOM     25  H32 UNL     1      36.322  36.926  52.116  1.00  0.00     0.277 HD
ATOM     26  H31 UNL     1      37.464  36.059  51.542  1.00  0.00     0.277 HD
BRANCH  24  27
HETATM   27  C14 UNL     1      36.325  35.028  52.913  1.00  0.00     0.274 C 
BRANCH  27  28
HETATM   28  C15 UNL     1      36.348  33.962  51.891  1.00  0.00     0.008 A 
HETATM   29  C16 UNL     1      37.141  33.907  50.780  1.00  0.00     0.118 A 
HETATM   30  N4  UNL     1      36.854  32.764  50.098  1.00  0.00    -0.309 N 
HETATM   31  N5  UNL     1      35.907  32.135  50.776  1.00  0.00    -0.301 N 
ATOM     32  H4  UNL     1      37.288  32.451  49.230  1.00  0.00     0.186 HD
HETATM   33  C17 UNL     1      35.293  30.866  50.403  1.00  0.00     0.177 C 
HETATM   34  C18 UNL     1      35.565  32.838  51.886  1.00  0.00     0.033 A 
HETATM   35  C19 UNL     1      34.539  32.417  52.861  1.00  0.00     0.070 C 
ENDBRANCH  27  28
ENDBRANCH  24  27
ENDBRANCH   8  24
TORSDOF 5
ENDMDL
