MODEL 1
REMARK VINA RESULT: -8.472048433      0.000      0.000
REMARK  8 active torsions:
REMARK  status: ('A' for Active; 'I' for Inactive)
REMARK    1  A    between atoms: O1_2  and  C2_3 
REMARK    2  A    between atoms: N1_5  and  C3_6 
REMARK    3  A    between atoms: C3_6  and  C4_7 
REMARK    4  A    between atoms: C4_7  and  C5_8 
REMARK    5  A    between atoms: C14_18  and  C15_19 
REMARK    6  A    between atoms: C18_22  and  O4_23 
REMARK    7  A    between atoms: C23_29  and  O5_30 
REMARK    8  A    between atoms: O5_30  and  C24_31 
ROOT
HETATM    1  C5  UNL     1      40.613  36.814  53.009  1.00  0.00     0.054 C 
HETATM    2  O3  UNL     1      40.470  37.483  51.812  1.00  0.00    -0.351 OA
HETATM    3  C6  UNL     1      41.038  38.790  51.792  1.00  0.00     0.202 C 
HETATM    4  C7  UNL     1      40.610  39.629  52.924  1.00  0.00    -0.004 C 
HETATM    5  C8  UNL     1      41.039  40.520  53.734  1.00  0.00    -0.029 C 
HETATM    6  C9  UNL     1      40.551  41.340  54.873  1.00  0.00     0.027 C 
HETATM    7  C10 UNL     1      40.534  40.558  56.199  1.00  0.00     0.004 C 
HETATM    8  C11 UNL     1      39.308  39.728  56.362  1.00  0.00     0.000 C 
HETATM    9  C12 UNL     1      39.599  38.279  56.787  1.00  0.00     0.000 C 
HETATM   10  C13 UNL     1      38.601  37.385  56.144  1.00  0.00     0.007 C 
HETATM   11  C14 UNL     1      38.994  35.978  55.813  1.00  0.00     0.018 C 
HETATM   12  C18 UNL     1      38.804  35.640  54.418  1.00  0.00     0.132 C 
HETATM   13  C19 UNL     1      39.756  35.679  53.309  1.00  0.00     0.067 C 
HETATM   14  C20 UNL     1      38.812  35.546  52.071  1.00  0.00     0.020 C 
ENDROOT
BRANCH   1  15
HETATM   15  C4  UNL     1      42.053  36.719  53.324  1.00  0.00     0.052 C 
BRANCH  15  16
HETATM   16  C3  UNL     1      42.979  35.693  52.886  1.00  0.00     0.119 C 
BRANCH  16  17
HETATM   17  N1  UNL     1      44.370  35.752  52.980  1.00  0.00    -0.267 N 
HETATM   18  O2  UNL     1      44.946  36.786  52.331  1.00  0.00    -0.243 OA
HETATM   19  C2  UNL     1      46.267  36.945  52.735  1.00  0.00     0.317 C 
HETATM   20  C23 UNL     1      47.098  35.827  52.195  1.00  0.00     0.191 C 
HETATM   21  C22 UNL     1      46.215  34.698  51.795  1.00  0.00     0.060 C 
HETATM   22  C21 UNL     1      45.166  34.580  52.921  1.00  0.00     0.158 C 
BRANCH  19  23
HETATM   23  O1  UNL     1      46.757  38.127  52.211  1.00  0.00    -0.361 OA
HETATM   24  C1  UNL     1      45.757  38.862  51.609  1.00  0.00     0.205 C 
ENDBRANCH  19  23
BRANCH  20  25
HETATM   25  O5  UNL     1      48.019  36.223  51.216  1.00  0.00    -0.311 OA
BRANCH  25  26
HETATM   26  C24 UNL     1      49.380  36.211  51.309  1.00  0.00     0.255 C 
HETATM   27  C25 UNL     1      50.092  35.816  52.538  1.00  0.00     0.126 C 
HETATM   28  O6  UNL     1      50.035  36.554  50.295  1.00  0.00    -0.266 OA
ENDBRANCH  25  26
ENDBRANCH  20  25
ENDBRANCH  16  17
ENDBRANCH  15  16
ENDBRANCH   1  15
BRANCH  12  29
HETATM   29  O4  UNL     1      37.672  36.410  53.991  1.00  0.00    -0.394 OA
ATOM     30  H4  UNL     1      38.030  37.107  53.454  1.00  0.00     0.210 HD
ENDBRANCH  12  29
BRANCH  11  31
HETATM   31  C15 UNL     1      40.169  35.473  56.587  1.00  0.00    -0.016 C 
HETATM   32  C16 UNL     1      39.766  35.195  58.034  1.00  0.00     0.010 C 
HETATM   33  C17 UNL     1      40.700  34.197  56.029  1.00  0.00     0.010 C 
ENDBRANCH  11  31
TORSDOF 8
ENDMDL
MODEL 2
REMARK VINA RESULT: -8.309117990      1.506      2.892
REMARK  8 active torsions:
REMARK  status: ('A' for Active; 'I' for Inactive)
REMARK    1  A    between atoms: O1_2  and  C2_3 
REMARK    2  A    between atoms: N1_5  and  C3_6 
REMARK    3  A    between atoms: C3_6  and  C4_7 
REMARK    4  A    between atoms: C4_7  and  C5_8 
REMARK    5  A    between atoms: C14_18  and  C15_19 
REMARK    6  A    between atoms: C18_22  and  O4_23 
REMARK    7  A    between atoms: C23_29  and  O5_30 
REMARK    8  A    between atoms: O5_30  and  C24_31 
ROOT
HETATM    1  C5  UNL     1      41.130  39.119  53.503  1.00  0.00     0.054 C 
HETATM    2  O3  UNL     1      40.853  40.464  53.378  1.00  0.00    -0.351 OA
HETATM    3  C6  UNL     1      41.004  41.215  54.580  1.00  0.00     0.202 C 
HETATM    4  C7  UNL     1      40.289  40.629  55.726  1.00  0.00    -0.004 C 
HETATM    5  C8  UNL     1      40.391  40.443  56.988  1.00  0.00    -0.029 C 
HETATM    6  C9  UNL     1      39.623  39.835  58.105  1.00  0.00     0.027 C 
HETATM    7  C10 UNL     1      39.775  38.304  58.161  1.00  0.00     0.004 C 
HETATM    8  C11 UNL     1      38.847  37.600  57.233  1.00  0.00     0.000 C 
HETATM    9  C12 UNL     1      39.538  36.531  56.368  1.00  0.00     0.000 C 
HETATM   10  C13 UNL     1      38.887  36.506  55.032  1.00  0.00     0.007 C 
HETATM   11  C14 UNL     1      39.699  36.116  53.837  1.00  0.00     0.018 C 
HETATM   12  C18 UNL     1      39.688  37.110  52.783  1.00  0.00     0.132 C 
HETATM   13  C19 UNL     1      40.639  38.185  52.504  1.00  0.00     0.067 C 
HETATM   14  C20 UNL     1      39.841  39.062  51.487  1.00  0.00     0.020 C 
ENDROOT
BRANCH   1  15
HETATM   15  C4  UNL     1      42.515  38.970  53.994  1.00  0.00     0.052 C 
BRANCH  15  16
HETATM   16  C3  UNL     1      43.736  39.311  53.290  1.00  0.00     0.119 C 
BRANCH  16  17
HETATM   17  N1  UNL     1      44.563  38.418  52.607  1.00  0.00    -0.267 N 
HETATM   18  O2  UNL     1      44.944  37.333  53.316  1.00  0.00    -0.243 OA
HETATM   19  C2  UNL     1      45.487  36.365  52.476  1.00  0.00     0.317 C 
HETATM   20  C23 UNL     1      46.824  36.816  51.986  1.00  0.00     0.191 C 
HETATM   21  C22 UNL     1      46.952  38.288  52.169  1.00  0.00     0.060 C 
HETATM   22  C21 UNL     1      45.590  38.874  51.743  1.00  0.00     0.158 C 
BRANCH  19  23
HETATM   23  O1  UNL     1      45.672  35.200  53.198  1.00  0.00    -0.361 OA
HETATM   24  C1  UNL     1      44.883  34.178  52.714  1.00  0.00     0.205 C 
ENDBRANCH  19  23
BRANCH  20  25
HETATM   25  O5  UNL     1      47.897  36.069  52.488  1.00  0.00    -0.311 OA
BRANCH  25  26
HETATM   26  C24 UNL     1      48.841  35.393  51.772  1.00  0.00     0.255 C 
HETATM   27  C25 UNL     1      49.961  36.069  51.090  1.00  0.00     0.126 C 
HETATM   28  O6  UNL     1      48.734  34.145  51.701  1.00  0.00    -0.266 OA
ENDBRANCH  25  26
ENDBRANCH  20  25
ENDBRANCH  16  17
ENDBRANCH  15  16
ENDBRANCH   1  15
BRANCH  12  29
HETATM   29  O4  UNL     1      38.400  37.735  52.864  1.00  0.00    -0.394 OA
ATOM     30  H4  UNL     1      37.966  37.524  52.046  1.00  0.00     0.210 HD
ENDBRANCH  12  29
BRANCH  11  31
HETATM   31  C15 UNL     1      40.931  35.335  54.162  1.00  0.00    -0.016 C 
HETATM   32  C16 UNL     1      40.596  33.850  54.287  1.00  0.00     0.010 C 
HETATM   33  C17 UNL     1      41.971  35.460  53.101  1.00  0.00     0.010 C 
ENDBRANCH  11  31
TORSDOF 8
ENDMDL
MODEL 3
REMARK VINA RESULT: -8.081607388      1.220      1.733
REMARK  8 active torsions:
REMARK  status: ('A' for Active; 'I' for Inactive)
REMARK    1  A    between atoms: O1_2  and  C2_3 
REMARK    2  A    between atoms: N1_5  and  C3_6 
REMARK    3  A    between atoms: C3_6  and  C4_7 
REMARK    4  A    between atoms: C4_7  and  C5_8 
REMARK    5  A    between atoms: C14_18  and  C15_19 
REMARK    6  A    between atoms: C18_22  and  O4_23 
REMARK    7  A    between atoms: C23_29  and  O5_30 
REMARK    8  A    between atoms: O5_30  and  C24_31 
ROOT
HETATM    1  C5  UNL     1      40.104  37.135  53.686  1.00  0.00     0.054 C 
HETATM    2  O3  UNL     1      40.021  37.784  52.473  1.00  0.00    -0.351 OA
HETATM    3  C6  UNL     1      40.868  38.924  52.352  1.00  0.00     0.202 C 
HETATM    4  C7  UNL     1      40.734  39.871  53.472  1.00  0.00    -0.004 C 
HETATM    5  C8  UNL     1      41.418  40.662  54.208  1.00  0.00    -0.029 C 
HETATM    6  C9  UNL     1      41.222  41.604  55.340  1.00  0.00     0.027 C 
HETATM    7  C10 UNL     1      41.134  40.884  56.699  1.00  0.00     0.004 C 
HETATM    8  C11 UNL     1      39.768  40.364  56.986  1.00  0.00     0.000 C 
HETATM    9  C12 UNL     1      39.755  38.899  57.456  1.00  0.00     0.000 C 
HETATM   10  C13 UNL     1      38.532  38.241  56.927  1.00  0.00     0.007 C 
HETATM   11  C14 UNL     1      38.567  36.774  56.634  1.00  0.00     0.018 C 
HETATM   12  C18 UNL     1      38.193  36.449  55.272  1.00  0.00     0.132 C 
HETATM   13  C19 UNL     1      39.038  36.236  54.098  1.00  0.00     0.067 C 
HETATM   14  C20 UNL     1      37.992  36.290  52.939  1.00  0.00     0.020 C 
ENDROOT
BRANCH   1  15
HETATM   15  C4  UNL     1      41.505  36.719  53.901  1.00  0.00     0.052 C 
BRANCH  15  16
HETATM   16  C3  UNL     1      42.185  35.587  53.301  1.00  0.00     0.119 C 
BRANCH  16  17
HETATM   17  N1  UNL     1      43.374  35.639  52.575  1.00  0.00    -0.267 N 
HETATM   18  O2  UNL     1      44.477  35.255  53.253  1.00  0.00    -0.243 OA
HETATM   19  C2  UNL     1      45.538  35.037  52.379  1.00  0.00     0.317 C 
HETATM   20  C23 UNL     1      46.027  36.343  51.842  1.00  0.00     0.191 C 
HETATM   21  C22 UNL     1      44.982  37.385  52.041  1.00  0.00     0.060 C 
HETATM   22  C21 UNL     1      43.648  36.701  51.677  1.00  0.00     0.158 C 
BRANCH  19  23
HETATM   23  O1  UNL     1      46.579  34.451  53.077  1.00  0.00    -0.361 OA
HETATM   24  C1  UNL     1      46.448  34.650  54.435  1.00  0.00     0.205 C 
ENDBRANCH  19  23
BRANCH  20  25
HETATM   25  O5  UNL     1      47.304  36.702  52.292  1.00  0.00    -0.311 OA
BRANCH  25  26
HETATM   26  C24 UNL     1      48.445  36.793  51.551  1.00  0.00     0.255 C 
HETATM   27  C25 UNL     1      49.672  36.045  51.882  1.00  0.00     0.126 C 
HETATM   28  O6  UNL     1      48.431  37.550  50.551  1.00  0.00    -0.266 OA
ENDBRANCH  25  26
ENDBRANCH  20  25
ENDBRANCH  16  17
ENDBRANCH  15  16
ENDBRANCH   1  15
BRANCH  12  29
HETATM   29  O4  UNL     1      37.236  37.447  54.893  1.00  0.00    -0.394 OA
ATOM     30  H4  UNL     1      37.093  37.318  53.963  1.00  0.00     0.210 HD
ENDBRANCH  12  29
BRANCH  11  31
HETATM   31  C15 UNL     1      39.654  36.033  57.345  1.00  0.00    -0.016 C 
HETATM   32  C16 UNL     1      39.135  35.482  58.671  1.00  0.00     0.010 C 
HETATM   33  C17 UNL     1      40.150  34.871  56.553  1.00  0.00     0.010 C 
ENDBRANCH  11  31
TORSDOF 8
ENDMDL
MODEL 4
REMARK VINA RESULT: -7.992247859      3.439      7.025
REMARK  8 active torsions:
REMARK  status: ('A' for Active; 'I' for Inactive)
REMARK    1  A    between atoms: O1_2  and  C2_3 
REMARK    2  A    between atoms: N1_5  and  C3_6 
REMARK    3  A    between atoms: C3_6  and  C4_7 
REMARK    4  A    between atoms: C4_7  and  C5_8 
REMARK    5  A    between atoms: C14_18  and  C15_19 
REMARK    6  A    between atoms: C18_22  and  O4_23 
REMARK    7  A    between atoms: C23_29  and  O5_30 
REMARK    8  A    between atoms: O5_30  and  C24_31 
ROOT
HETATM    1  C5  UNL     1      40.834  37.745  53.063  1.00  0.00     0.054 C 
HETATM    2  O3  UNL     1      41.075  37.445  51.739  1.00  0.00    -0.351 OA
HETATM    3  C6  UNL     1      42.431  37.120  51.442  1.00  0.00     0.202 C 
HETATM    4  C7  UNL     1      43.392  38.115  51.945  1.00  0.00    -0.004 C 
HETATM    5  C8  UNL     1      44.558  38.216  52.463  1.00  0.00    -0.029 C 
HETATM    6  C9  UNL     1      45.486  39.265  52.957  1.00  0.00     0.027 C 
HETATM    7  C10 UNL     1      45.132  39.747  54.376  1.00  0.00     0.004 C 
HETATM    8  C11 UNL     1      44.066  40.788  54.380  1.00  0.00     0.000 C 
HETATM    9  C12 UNL     1      42.937  40.507  55.386  1.00  0.00     0.000 C 
HETATM   10  C13 UNL     1      41.654  40.983  54.808  1.00  0.00     0.007 C 
HETATM   11  C14 UNL     1      40.384  40.288  55.188  1.00  0.00     0.018 C 
HETATM   12  C18 UNL     1      39.632  39.798  54.051  1.00  0.00     0.132 C 
HETATM   13  C19 UNL     1      39.632  38.474  53.431  1.00  0.00     0.067 C 
HETATM   14  C20 UNL     1      38.897  38.753  52.081  1.00  0.00     0.020 C 
ENDROOT
BRANCH   1  15
HETATM   15  C4  UNL     1      41.245  36.590  53.888  1.00  0.00     0.052 C 
BRANCH  15  16
HETATM   16  C3  UNL     1      40.419  35.472  54.301  1.00  0.00     0.119 C 
BRANCH  16  17
HETATM   17  N1  UNL     1      39.404  34.882  53.547  1.00  0.00    -0.267 N 
HETATM   18  O2  UNL     1      39.779  34.437  52.328  1.00  0.00    -0.243 OA
HETATM   19  C2  UNL     1      38.807  33.598  51.792  1.00  0.00     0.317 C 
HETATM   20  C23 UNL     1      37.610  34.401  51.399  1.00  0.00     0.191 C 
HETATM   21  C22 UNL     1      37.643  35.718  52.092  1.00  0.00     0.060 C 
HETATM   22  C21 UNL     1      38.089  35.410  53.537  1.00  0.00     0.158 C 
BRANCH  19  23
HETATM   23  O1  UNL     1      39.310  33.003  50.650  1.00  0.00    -0.361 OA
HETATM   24  C1  UNL     1      38.922  31.683  50.558  1.00  0.00     0.205 C 
ENDBRANCH  19  23
BRANCH  20  25
HETATM   25  O5  UNL     1      37.401  34.474  50.016  1.00  0.00    -0.311 OA
BRANCH  25  26
HETATM   26  C24 UNL     1      36.242  34.791  49.370  1.00  0.00     0.255 C 
HETATM   27  C25 UNL     1      36.006  36.112  48.758  1.00  0.00     0.126 C 
HETATM   28  O6  UNL     1      35.352  33.910  49.306  1.00  0.00    -0.266 OA
ENDBRANCH  25  26
ENDBRANCH  20  25
ENDBRANCH  16  17
ENDBRANCH  15  16
ENDBRANCH   1  15
BRANCH  12  29
HETATM   29  O4  UNL     1      39.898  40.728  52.991  1.00  0.00    -0.394 OA
ATOM     30  H4  UNL     1      39.921  41.582  53.406  1.00  0.00     0.210 HD
ENDBRANCH  12  29
BRANCH  11  31
HETATM   31  C15 UNL     1      40.470  39.510  56.462  1.00  0.00    -0.016 C 
HETATM   32  C16 UNL     1      40.277  40.439  57.659  1.00  0.00     0.010 C 
HETATM   33  C17 UNL     1      39.415  38.460  56.549  1.00  0.00     0.010 C 
ENDBRANCH  11  31
TORSDOF 8
ENDMDL
MODEL 5
REMARK VINA RESULT: -7.893565209      4.603      9.900
REMARK  8 active torsions:
REMARK  status: ('A' for Active; 'I' for Inactive)
REMARK    1  A    between atoms: O1_2  and  C2_3 
REMARK    2  A    between atoms: N1_5  and  C3_6 
REMARK    3  A    between atoms: C3_6  and  C4_7 
REMARK    4  A    between atoms: C4_7  and  C5_8 
REMARK    5  A    between atoms: C14_18  and  C15_19 
REMARK    6  A    between atoms: C18_22  and  O4_23 
REMARK    7  A    between atoms: C23_29  and  O5_30 
REMARK    8  A    between atoms: O5_30  and  C24_31 
ROOT
HETATM    1  C5  UNL     1      38.957  38.854  55.349  1.00  0.00     0.054 C 
HETATM    2  O3  UNL     1      37.684  38.370  55.136  1.00  0.00    -0.351 OA
HETATM    3  C6  UNL     1      37.585  36.948  55.117  1.00  0.00     0.202 C 
HETATM    4  C7  UNL     1      38.555  36.309  54.212  1.00  0.00    -0.004 C 
HETATM    5  C8  UNL     1      39.306  35.279  54.106  1.00  0.00    -0.029 C 
HETATM    6  C9  UNL     1      40.278  34.683  53.153  1.00  0.00     0.027 C 
HETATM    7  C10 UNL     1      41.671  35.330  53.249  1.00  0.00     0.004 C 
HETATM    8  C11 UNL     1      41.776  36.589  52.459  1.00  0.00     0.000 C 
HETATM    9  C12 UNL     1      42.394  37.758  53.245  1.00  0.00     0.000 C 
HETATM   10  C13 UNL     1      41.740  39.020  52.814  1.00  0.00     0.007 C 
HETATM   11  C14 UNL     1      41.620  40.146  53.793  1.00  0.00     0.018 C 
HETATM   12  C18 UNL     1      40.258  40.605  53.980  1.00  0.00     0.132 C 
HETATM   13  C19 UNL     1      39.276  40.227  54.995  1.00  0.00     0.067 C 
HETATM   14  C20 UNL     1      37.956  40.808  54.395  1.00  0.00     0.020 C 
ENDROOT
BRANCH   1  15
HETATM   15  C4  UNL     1      39.453  38.319  56.634  1.00  0.00     0.052 C 
BRANCH  15  16
HETATM   16  C3  UNL     1      39.312  38.920  57.946  1.00  0.00     0.119 C 
BRANCH  16  17
HETATM   17  N1  UNL     1      38.132  39.425  58.492  1.00  0.00    -0.267 N 
HETATM   18  O2  UNL     1      37.649  40.533  57.888  1.00  0.00    -0.243 OA
HETATM   19  C2  UNL     1      36.336  40.773  58.282  1.00  0.00     0.317 C 
HETATM   20  C23 UNL     1      36.313  41.242  59.700  1.00  0.00     0.191 C 
HETATM   21  C22 UNL     1      37.596  40.883  60.365  1.00  0.00     0.060 C 
HETATM   22  C21 UNL     1      37.915  39.449  59.892  1.00  0.00     0.158 C 
BRANCH  19  23
HETATM   23  O1  UNL     1      35.811  41.782  57.495  1.00  0.00    -0.361 OA
HETATM   24  C1  UNL     1      34.843  41.300  56.639  1.00  0.00     0.205 C 
ENDBRANCH  19  23
BRANCH  20  25
HETATM   25  O5  UNL     1      35.931  42.581  59.853  1.00  0.00    -0.311 OA
BRANCH  25  26
HETATM   26  C24 UNL     1      34.841  43.058  60.519  1.00  0.00     0.255 C 
HETATM   27  C25 UNL     1      34.606  42.799  61.952  1.00  0.00     0.126 C 
HETATM   28  O6  UNL     1      34.016  43.743  59.869  1.00  0.00    -0.266 OA
ENDBRANCH  25  26
ENDBRANCH  20  25
ENDBRANCH  16  17
ENDBRANCH  15  16
ENDBRANCH   1  15
BRANCH  12  29
HETATM   29  O4  UNL     1      39.613  40.405  52.715  1.00  0.00    -0.394 OA
ATOM     30  H4  UNL     1      39.214  41.239  52.501  1.00  0.00     0.210 HD
ENDBRANCH  12  29
BRANCH  11  31
HETATM   31  C15 UNL     1      42.583  40.070  54.934  1.00  0.00    -0.016 C 
HETATM   32  C16 UNL     1      43.949  40.601  54.506  1.00  0.00     0.010 C 
HETATM   33  C17 UNL     1      42.140  40.893  56.096  1.00  0.00     0.010 C 
ENDBRANCH  11  31
TORSDOF 8
ENDMDL
