MODEL 1
REMARK VINA RESULT: -7.628700731      0.000      0.000
REMARK  6 active torsions:
REMARK  status: ('A' for Active; 'I' for Inactive)
REMARK    1  A    between atoms: C2_2  and  O1_3 
REMARK    2  A    between atoms: O1_3  and  C3_4 
REMARK    3  A    between atoms: C3_4  and  C4_6 
REMARK    4  A    between atoms: C4_6  and  C5_7 
REMARK    5  A    between atoms: C13_17  and  N1_18 
REMARK    6  A    between atoms: N1_18  and  C14_20 
ROOT
HETATM    1  C5  UNL     1      38.501  34.500  51.670  1.00  0.00     0.162 C 
HETATM    2  S1  UNL     1      40.152  35.090  51.942  1.00  0.00    -0.105 SA
HETATM    3  C6  UNL     1      40.074  36.435  53.090  1.00  0.00     0.021 C 
HETATM    4  C7  UNL     1      38.964  36.809  53.717  1.00  0.00     0.069 C 
HETATM    5  C8  UNL     1      39.060  37.936  54.633  1.00  0.00     0.165 C 
HETATM    6  O3  UNL     1      38.304  37.947  55.635  1.00  0.00    -0.292 OA
HETATM    7  C9  UNL     1      40.015  39.082  54.434  1.00  0.00     0.095 C 
HETATM    8  C10 UNL     1      40.948  38.716  53.293  1.00  0.00    -0.016 C 
HETATM    9  C11 UNL     1      42.253  39.439  53.537  1.00  0.00     0.018 C 
HETATM   10  C12 UNL     1      40.431  39.084  51.947  1.00  0.00     0.018 C 
HETATM   11  C13 UNL     1      41.286  37.207  53.392  1.00  0.00     0.126 C 
HETATM   12  C19 UNL     1      37.691  36.098  53.479  1.00  0.00     0.119 C 
HETATM   13  N2  UNL     1      36.682  36.544  54.137  1.00  0.00    -0.354 N 
ATOM     14  H2  UNL     1      36.860  37.339  54.752  1.00  0.00     0.166 HD
HETATM   15  C20 UNL     1      35.360  36.064  54.107  1.00  0.00     0.073 C 
HETATM   16  C21 UNL     1      35.085  35.114  52.993  1.00  0.00     0.001 C 
HETATM   17  C22 UNL     1      33.957  34.178  53.452  1.00  0.00     0.022 C 
HETATM   18  C23 UNL     1      34.548  35.841  51.785  1.00  0.00     0.022 C 
HETATM   19  C24 UNL     1      36.267  34.275  52.622  1.00  0.00     0.140 C 
HETATM   20  N3  UNL     1      37.530  35.016  52.617  1.00  0.00    -0.351 N 
ENDROOT
BRANCH  11  21
HETATM   21  N1  UNL     1      42.432  36.976  52.653  1.00  0.00    -0.408 N 
ATOM     22  H1  UNL     1      42.383  37.132  51.646  1.00  0.00     0.154 HD
BRANCH  21  23
HETATM   23  C14 UNL     1      43.643  36.549  53.177  1.00  0.00     0.077 C 
HETATM   24  C15 UNL     1      44.878  36.984  52.416  1.00  0.00     0.024 C 
HETATM   25  C16 UNL     1      45.837  35.860  52.783  1.00  0.00     0.002 C 
HETATM   26  C17 UNL     1      44.969  34.678  52.332  1.00  0.00     0.002 C 
HETATM   27  C18 UNL     1      43.673  35.008  53.025  1.00  0.00     0.024 C 
ENDBRANCH  21  23
ENDBRANCH  11  21
BRANCH   1  28
HETATM   28  C4  UNL     1      38.523  32.972  51.730  1.00  0.00     0.147 C 
BRANCH  28  29
HETATM   29  C3  UNL     1      38.742  32.364  50.405  1.00  0.00     0.261 C 
HETATM   30  O2  UNL     1      39.534  31.355  50.365  1.00  0.00    -0.265 OA
BRANCH  29  31
HETATM   31  O1  UNL     1      38.152  32.812  49.215  1.00  0.00    -0.322 OA
BRANCH  31  32
HETATM   32  C2  UNL     1      36.748  32.738  49.061  1.00  0.00     0.174 C 
HETATM   33  C1  UNL     1      36.256  34.110  48.592  1.00  0.00     0.034 C 
ENDBRANCH  31  32
ENDBRANCH  29  31
ENDBRANCH  28  29
ENDBRANCH   1  28
TORSDOF 6
ENDMDL
MODEL 2
REMARK VINA RESULT: -7.535234688      2.444      3.262
REMARK  6 active torsions:
REMARK  status: ('A' for Active; 'I' for Inactive)
REMARK    1  A    between atoms: C2_2  and  O1_3 
REMARK    2  A    between atoms: O1_3  and  C3_4 
REMARK    3  A    between atoms: C3_4  and  C4_6 
REMARK    4  A    between atoms: C4_6  and  C5_7 
REMARK    5  A    between atoms: C13_17  and  N1_18 
REMARK    6  A    between atoms: N1_18  and  C14_20 
ROOT
HETATM    1  C5  UNL     1      38.568  36.971  53.651  1.00  0.00     0.162 C 
HETATM    2  S1  UNL     1      40.208  37.612  53.434  1.00  0.00    -0.105 SA
HETATM    3  C6  UNL     1      40.568  38.680  54.799  1.00  0.00     0.021 C 
HETATM    4  C7  UNL     1      39.769  38.831  55.850  1.00  0.00     0.069 C 
HETATM    5  C8  UNL     1      40.203  39.747  56.894  1.00  0.00     0.165 C 
HETATM    6  O3  UNL     1      39.869  39.493  58.078  1.00  0.00    -0.292 OA
HETATM    7  C9  UNL     1      41.026  40.977  56.624  1.00  0.00     0.095 C 
HETATM    8  C10 UNL     1      41.472  40.927  55.173  1.00  0.00    -0.016 C 
HETATM    9  C11 UNL     1      42.781  41.679  55.083  1.00  0.00     0.018 C 
HETATM   10  C12 UNL     1      40.499  41.528  54.220  1.00  0.00     0.018 C 
HETATM   11  C13 UNL     1      41.811  39.460  54.807  1.00  0.00     0.126 C 
HETATM   12  C19 UNL     1      38.492  38.093  55.936  1.00  0.00     0.119 C 
HETATM   13  N2  UNL     1      37.800  38.316  56.994  1.00  0.00    -0.354 N 
ATOM     14  H2  UNL     1      38.197  38.976  57.663  1.00  0.00     0.166 HD
HETATM   15  C20 UNL     1      36.555  37.755  57.337  1.00  0.00     0.073 C 
HETATM   16  C21 UNL     1      35.883  37.040  56.217  1.00  0.00     0.001 C 
HETATM   17  C22 UNL     1      34.996  35.948  56.832  1.00  0.00     0.022 C 
HETATM   18  C23 UNL     1      34.945  37.960  55.476  1.00  0.00     0.022 C 
HETATM   19  C24 UNL     1      36.839  36.387  55.270  1.00  0.00     0.140 C 
HETATM   20  N3  UNL     1      38.017  37.205  54.974  1.00  0.00    -0.351 N 
ENDROOT
BRANCH  11  21
HETATM   21  N1  UNL     1      42.603  39.474  53.674  1.00  0.00    -0.408 N 
ATOM     22  H1  UNL     1      42.334  40.104  52.918  1.00  0.00     0.154 HD
BRANCH  21  23
HETATM   23  C14 UNL     1      43.736  38.696  53.486  1.00  0.00     0.077 C 
HETATM   24  C15 UNL     1      45.044  39.454  53.386  1.00  0.00     0.024 C 
HETATM   25  C16 UNL     1      45.858  38.486  52.539  1.00  0.00     0.002 C 
HETATM   26  C17 UNL     1      44.888  38.365  51.356  1.00  0.00     0.002 C 
HETATM   27  C18 UNL     1      43.606  38.054  52.083  1.00  0.00     0.024 C 
ENDBRANCH  21  23
ENDBRANCH  11  21
BRANCH   1  28
HETATM   28  C4  UNL     1      38.600  35.470  53.361  1.00  0.00     0.147 C 
BRANCH  28  29
HETATM   29  C3  UNL     1      38.621  35.181  51.915  1.00  0.00     0.261 C 
HETATM   30  O2  UNL     1      38.001  36.012  51.159  1.00  0.00    -0.265 OA
BRANCH  29  31
HETATM   31  O1  UNL     1      39.260  34.078  51.332  1.00  0.00    -0.322 OA
BRANCH  31  32
HETATM   32  C2  UNL     1      38.585  32.838  51.261  1.00  0.00     0.174 C 
HETATM   33  C1  UNL     1      38.601  32.379  49.799  1.00  0.00     0.034 C 
ENDBRANCH  31  32
ENDBRANCH  29  31
ENDBRANCH  28  29
ENDBRANCH   1  28
TORSDOF 6
ENDMDL
MODEL 3
REMARK VINA RESULT: -7.504405621      3.126      6.982
REMARK  6 active torsions:
REMARK  status: ('A' for Active; 'I' for Inactive)
REMARK    1  A    between atoms: C2_2  and  O1_3 
REMARK    2  A    between atoms: O1_3  and  C3_4 
REMARK    3  A    between atoms: C3_4  and  C4_6 
REMARK    4  A    between atoms: C4_6  and  C5_7 
REMARK    5  A    between atoms: C13_17  and  N1_18 
REMARK    6  A    between atoms: N1_18  and  C14_20 
ROOT
HETATM    1  C5  UNL     1      41.731  36.761  53.029  1.00  0.00     0.162 C 
HETATM    2  S1  UNL     1      40.810  38.245  53.340  1.00  0.00    -0.105 SA
HETATM    3  C6  UNL     1      41.960  39.543  53.692  1.00  0.00     0.021 C 
HETATM    4  C7  UNL     1      43.278  39.411  53.591  1.00  0.00     0.069 C 
HETATM    5  C8  UNL     1      44.094  40.572  53.915  1.00  0.00     0.165 C 
HETATM    6  O3  UNL     1      45.178  40.722  53.300  1.00  0.00    -0.292 OA
HETATM    7  C9  UNL     1      43.702  41.593  54.949  1.00  0.00     0.095 C 
HETATM    8  C10 UNL     1      42.273  41.301  55.372  1.00  0.00    -0.016 C 
HETATM    9  C11 UNL     1      41.659  42.614  55.803  1.00  0.00     0.018 C 
HETATM   10  C12 UNL     1      42.160  40.321  56.487  1.00  0.00     0.018 C 
HETATM   11  C13 UNL     1      41.467  40.856  54.126  1.00  0.00     0.126 C 
HETATM   12  C19 UNL     1      43.875  38.129  53.166  1.00  0.00     0.119 C 
HETATM   13  N2  UNL     1      45.157  38.114  53.103  1.00  0.00    -0.354 N 
ATOM     14  H2  UNL     1      45.632  38.982  53.352  1.00  0.00     0.166 HD
HETATM   15  C20 UNL     1      45.984  37.037  52.731  1.00  0.00     0.073 C 
HETATM   16  C21 UNL     1      45.280  35.727  52.666  1.00  0.00     0.001 C 
HETATM   17  C22 UNL     1      46.017  34.858  51.637  1.00  0.00     0.022 C 
HETATM   18  C23 UNL     1      45.391  34.990  53.978  1.00  0.00     0.022 C 
HETATM   19  C24 UNL     1      43.850  35.841  52.244  1.00  0.00     0.140 C 
HETATM   20  N3  UNL     1      43.154  36.981  52.843  1.00  0.00    -0.351 N 
ENDROOT
BRANCH  11  21
HETATM   21  N1  UNL     1      40.122  41.010  54.409  1.00  0.00    -0.408 N 
ATOM     22  H1  UNL     1      39.789  40.669  55.311  1.00  0.00     0.154 HD
BRANCH  21  23
HETATM   23  C14 UNL     1      39.192  41.591  53.560  1.00  0.00     0.077 C 
HETATM   24  C15 UNL     1      39.229  43.103  53.481  1.00  0.00     0.024 C 
HETATM   25  C16 UNL     1      37.782  43.393  53.104  1.00  0.00     0.002 C 
HETATM   26  C17 UNL     1      37.103  42.649  54.261  1.00  0.00     0.002 C 
HETATM   27  C18 UNL     1      37.797  41.315  54.174  1.00  0.00     0.024 C 
ENDBRANCH  21  23
ENDBRANCH  11  21
BRANCH   1  28
HETATM   28  C4  UNL     1      41.145  36.086  51.788  1.00  0.00     0.147 C 
BRANCH  28  29
HETATM   29  C3  UNL     1      39.996  35.221  52.113  1.00  0.00     0.261 C 
HETATM   30  O2  UNL     1      40.207  34.292  52.972  1.00  0.00    -0.265 OA
BRANCH  29  31
HETATM   31  O1  UNL     1      38.718  35.348  51.550  1.00  0.00    -0.322 OA
BRANCH  31  32
HETATM   32  C2  UNL     1      38.184  36.637  51.320  1.00  0.00     0.174 C 
HETATM   33  C1  UNL     1      37.231  36.542  50.124  1.00  0.00     0.034 C 
ENDBRANCH  31  32
ENDBRANCH  29  31
ENDBRANCH  28  29
ENDBRANCH   1  28
TORSDOF 6
ENDMDL
MODEL 4
REMARK VINA RESULT: -7.442635360      2.532      3.247
REMARK  6 active torsions:
REMARK  status: ('A' for Active; 'I' for Inactive)
REMARK    1  A    between atoms: C2_2  and  O1_3 
REMARK    2  A    between atoms: O1_3  and  C3_4 
REMARK    3  A    between atoms: C3_4  and  C4_6 
REMARK    4  A    between atoms: C4_6  and  C5_7 
REMARK    5  A    between atoms: C13_17  and  N1_18 
REMARK    6  A    between atoms: N1_18  and  C14_20 
ROOT
HETATM    1  C5  UNL     1      38.525  37.072  53.653  1.00  0.00     0.162 C 
HETATM    2  S1  UNL     1      40.175  37.689  53.438  1.00  0.00    -0.105 SA
HETATM    3  C6  UNL     1      40.560  38.724  54.821  1.00  0.00     0.021 C 
HETATM    4  C7  UNL     1      39.770  38.869  55.879  1.00  0.00     0.069 C 
HETATM    5  C8  UNL     1      40.226  39.757  56.938  1.00  0.00     0.165 C 
HETATM    6  O3  UNL     1      39.895  39.487  58.118  1.00  0.00    -0.292 OA
HETATM    7  C9  UNL     1      41.069  40.978  56.685  1.00  0.00     0.095 C 
HETATM    8  C10 UNL     1      41.506  40.948  55.231  1.00  0.00    -0.016 C 
HETATM    9  C11 UNL     1      42.827  41.679  55.148  1.00  0.00     0.018 C 
HETATM   10  C12 UNL     1      40.537  41.583  54.295  1.00  0.00     0.018 C 
HETATM   11  C13 UNL     1      41.817  39.483  54.836  1.00  0.00     0.126 C 
HETATM   12  C19 UNL     1      38.482  38.151  55.959  1.00  0.00     0.119 C 
HETATM   13  N2  UNL     1      37.799  38.366  57.026  1.00  0.00    -0.354 N 
ATOM     14  H2  UNL     1      38.211  39.007  57.704  1.00  0.00     0.166 HD
HETATM   15  C20 UNL     1      36.547  37.820  57.365  1.00  0.00     0.073 C 
HETATM   16  C21 UNL     1      35.856  37.138  56.236  1.00  0.00     0.001 C 
HETATM   17  C22 UNL     1      34.954  36.050  56.836  1.00  0.00     0.022 C 
HETATM   18  C23 UNL     1      34.930  38.089  55.518  1.00  0.00     0.022 C 
HETATM   19  C24 UNL     1      36.796  36.487  55.271  1.00  0.00     0.140 C 
HETATM   20  N3  UNL     1      37.986  37.290  54.983  1.00  0.00    -0.351 N 
ENDROOT
BRANCH  11  21
HETATM   21  N1  UNL     1      42.603  39.504  53.698  1.00  0.00    -0.408 N 
ATOM     22  H1  UNL     1      42.336  40.148  52.953  1.00  0.00     0.154 HD
BRANCH  21  23
HETATM   23  C14 UNL     1      43.726  38.717  53.493  1.00  0.00     0.077 C 
HETATM   24  C15 UNL     1      45.039  39.465  53.373  1.00  0.00     0.024 C 
HETATM   25  C16 UNL     1      45.832  38.490  52.513  1.00  0.00     0.002 C 
HETATM   26  C17 UNL     1      44.843  38.377  51.345  1.00  0.00     0.002 C 
HETATM   27  C18 UNL     1      43.570  38.077  52.092  1.00  0.00     0.024 C 
ENDBRANCH  21  23
ENDBRANCH  11  21
BRANCH   1  28
HETATM   28  C4  UNL     1      38.529  35.576  53.335  1.00  0.00     0.147 C 
BRANCH  28  29
HETATM   29  C3  UNL     1      38.638  35.314  51.887  1.00  0.00     0.261 C 
HETATM   30  O2  UNL     1      39.414  34.353  51.539  1.00  0.00    -0.265 OA
BRANCH  29  31
HETATM   31  O1  UNL     1      37.961  36.035  50.894  1.00  0.00    -0.322 OA
BRANCH  31  32
HETATM   32  C2  UNL     1      36.845  35.455  50.248  1.00  0.00     0.174 C 
HETATM   33  C1  UNL     1      36.419  36.394  49.115  1.00  0.00     0.034 C 
ENDBRANCH  31  32
ENDBRANCH  29  31
ENDBRANCH  28  29
ENDBRANCH   1  28
TORSDOF 6
ENDMDL
MODEL 5
REMARK VINA RESULT: -7.392558867      2.585      7.037
REMARK  6 active torsions:
REMARK  status: ('A' for Active; 'I' for Inactive)
REMARK    1  A    between atoms: C2_2  and  O1_3 
REMARK    2  A    between atoms: O1_3  and  C3_4 
REMARK    3  A    between atoms: C3_4  and  C4_6 
REMARK    4  A    between atoms: C4_6  and  C5_7 
REMARK    5  A    between atoms: C13_17  and  N1_18 
REMARK    6  A    between atoms: N1_18  and  C14_20 
ROOT
HETATM    1  C5  UNL     1      41.724  37.772  53.250  1.00  0.00     0.162 C 
HETATM    2  S1  UNL     1      40.423  36.704  52.689  1.00  0.00    -0.105 SA
HETATM    3  C6  UNL     1      38.877  37.429  53.153  1.00  0.00     0.021 C 
HETATM    4  C7  UNL     1      38.760  38.633  53.700  1.00  0.00     0.069 C 
HETATM    5  C8  UNL     1      37.418  39.093  54.027  1.00  0.00     0.165 C 
HETATM    6  O3  UNL     1      37.181  40.323  53.955  1.00  0.00    -0.292 OA
HETATM    7  C9  UNL     1      36.308  38.166  54.446  1.00  0.00     0.095 C 
HETATM    8  C10 UNL     1      36.789  36.741  54.237  1.00  0.00    -0.016 C 
HETATM    9  C11 UNL     1      35.566  35.894  53.965  1.00  0.00     0.018 C 
HETATM   10  C12 UNL     1      37.525  36.174  55.401  1.00  0.00     0.018 C 
HETATM   11  C13 UNL     1      37.630  36.686  52.937  1.00  0.00     0.126 C 
HETATM   12  C19 UNL     1      39.955  39.460  53.962  1.00  0.00     0.119 C 
HETATM   13  N2  UNL     1      39.725  40.606  54.494  1.00  0.00    -0.354 N 
ATOM     14  H2  UNL     1      38.747  40.828  54.682  1.00  0.00     0.166 HD
HETATM   15  C20 UNL     1      40.667  41.590  54.848  1.00  0.00     0.073 C 
HETATM   16  C21 UNL     1      42.077  41.113  54.834  1.00  0.00     0.001 C 
HETATM   17  C22 UNL     1      42.971  42.324  54.533  1.00  0.00     0.022 C 
HETATM   18  C23 UNL     1      42.495  40.625  56.200  1.00  0.00     0.022 C 
HETATM   19  C24 UNL     1      42.341  40.068  53.797  1.00  0.00     0.140 C 
HETATM   20  N3  UNL     1      41.265  39.082  53.676  1.00  0.00    -0.351 N 
ENDROOT
BRANCH  11  21
HETATM   21  N1  UNL     1      37.695  35.367  52.525  1.00  0.00    -0.408 N 
ATOM     22  H1  UNL     1      37.630  34.646  53.244  1.00  0.00     0.154 HD
BRANCH  21  23
HETATM   23  C14 UNL     1      37.842  34.950  51.211  1.00  0.00     0.077 C 
HETATM   24  C15 UNL     1      36.562  34.572  50.494  1.00  0.00     0.024 C 
HETATM   25  C16 UNL     1      37.103  33.579  49.474  1.00  0.00     0.002 C 
HETATM   26  C17 UNL     1      37.808  32.628  50.450  1.00  0.00     0.002 C 
HETATM   27  C18 UNL     1      38.618  33.610  51.254  1.00  0.00     0.024 C 
ENDBRANCH  21  23
ENDBRANCH  11  21
BRANCH   1  28
HETATM   28  C4  UNL     1      42.740  37.923  52.117  1.00  0.00     0.147 C 
BRANCH  28  29
HETATM   29  C3  UNL     1      43.830  36.932  52.208  1.00  0.00     0.261 C 
HETATM   30  O2  UNL     1      43.572  35.759  51.756  1.00  0.00    -0.265 OA
BRANCH  29  31
HETATM   31  O1  UNL     1      45.098  37.190  52.747  1.00  0.00    -0.322 OA
BRANCH  31  32
HETATM   32  C2  UNL     1      45.867  38.262  52.237  1.00  0.00     0.174 C 
HETATM   33  C1  UNL     1      47.240  37.707  51.845  1.00  0.00     0.034 C 
ENDBRANCH  31  32
ENDBRANCH  29  31
ENDBRANCH  28  29
ENDBRANCH   1  28
TORSDOF 6
ENDMDL
