MODEL 1
REMARK VINA RESULT: -5.642379323      0.000      0.000
REMARK  8 active torsions:
REMARK  status: ('A' for Active; 'I' for Inactive)
REMARK       I    between atoms: N1_1  and  C1_5 
REMARK       I    between atoms: C1_5  and  N2_6 
REMARK       I    between atoms: C1_5  and  N3_10 
REMARK    1  A    between atoms: N3_10  and  C2_12 
REMARK    2  A    between atoms: C2_12  and  C3_13 
REMARK    3  A    between atoms: C3_13  and  S1_14 
REMARK    4  A    between atoms: S1_14  and  S2_15 
REMARK    5  A    between atoms: S2_15  and  C4_16 
REMARK    6  A    between atoms: C9_21  and  N4_22 
REMARK    7  A    between atoms: C9_21  and  N5_26 
REMARK    8  A    between atoms: N5_26  and  O1_27 
ROOT
HETATM    1  S1  UNL     1      48.536  28.057  14.311  1.00  0.00    -0.096 SA
ENDROOT
BRANCH   1   2
HETATM    2  C3  UNL     1      48.607  29.071  12.769  1.00  0.00     0.105 C 
BRANCH   2   3
HETATM    3  C2  UNL     1      48.073  28.192  11.687  1.00  0.00     0.128 C 
BRANCH   3   4
HETATM    4  N3  UNL     1      48.180  28.642  10.350  1.00  0.00    -0.373 N 
HETATM    5  C1  UNL     1      47.336  29.713   9.954  1.00  0.00     0.476 C 
HETATM    6  N1  UNL     1      47.765  30.091   8.580  1.00  0.00    -0.033 N 
HETATM    7  N2  UNL     1      45.940  29.387   9.942  1.00  0.00    -0.033 N 
ATOM      8  H13 UNL     1      47.542  29.370   7.894  1.00  0.00     0.278 HD
ATOM      9  H12 UNL     1      47.195  30.842   8.190  1.00  0.00     0.278 HD
ATOM     10  H11 UNL     1      48.758  30.323   8.589  1.00  0.00     0.278 HD
ATOM     11  H23 UNL     1      45.370  30.138   9.552  1.00  0.00     0.278 HD
ATOM     12  H22 UNL     1      45.717  28.666   9.256  1.00  0.00     0.278 HD
ATOM     13  H21 UNL     1      45.645  29.128  10.884  1.00  0.00     0.278 HD
ATOM     14  H3  UNL     1      48.837  28.215   9.697  1.00  0.00     0.156 HD
ENDBRANCH   3   4
ENDBRANCH   2   3
ENDBRANCH   1   2
BRANCH   1  15
HETATM   15  S2  UNL     1      50.542  27.525  14.768  1.00  0.00    -0.089 SA
BRANCH  15  16
HETATM   16  C4  UNL     1      50.525  25.840  15.455  1.00  0.00     0.113 C 
HETATM   17  C5  UNL     1      49.299  25.076  15.099  1.00  0.00     0.020 C 
HETATM   18  C6  UNL     1      49.480  23.622  14.898  1.00  0.00     0.001 C 
HETATM   19  C7  UNL     1      50.638  23.010  15.618  1.00  0.00     0.004 C 
HETATM   20  C8  UNL     1      51.886  23.822  15.611  1.00  0.00     0.060 C 
HETATM   21  C9  UNL     1      51.779  25.152  14.955  1.00  0.00     0.231 C 
BRANCH  21  22
HETATM   22  N4  UNL     1      51.862  25.138  13.530  1.00  0.00    -0.053 N 
ATOM     23  H43 UNL     1      50.951  25.314  13.107  1.00  0.00     0.277 HD
ATOM     24  H42 UNL     1      52.364  25.955  13.183  1.00  0.00     0.277 HD
ATOM     25  H41 UNL     1      52.274  24.276  13.172  1.00  0.00     0.277 HD
ENDBRANCH  21  22
BRANCH  21  26
HETATM   26  N5  UNL     1      52.894  25.980  15.454  1.00  0.00    -0.062 NA
BRANCH  26  27
HETATM   27  O1  UNL     1      53.848  25.154  15.948  1.00  0.00    -0.294 OA
ATOM     28  H1  UNL     1      54.487  25.682  16.412  1.00  0.00     0.238 HD
ENDBRANCH  26  27
ENDBRANCH  21  26
ENDBRANCH  15  16
ENDBRANCH   1  15
TORSDOF 8
ENDMDL
MODEL 2
REMARK VINA RESULT: -5.407916684      0.836      1.032
REMARK  8 active torsions:
REMARK  status: ('A' for Active; 'I' for Inactive)
REMARK       I    between atoms: N1_1  and  C1_5 
REMARK       I    between atoms: C1_5  and  N2_6 
REMARK       I    between atoms: C1_5  and  N3_10 
REMARK    1  A    between atoms: N3_10  and  C2_12 
REMARK    2  A    between atoms: C2_12  and  C3_13 
REMARK    3  A    between atoms: C3_13  and  S1_14 
REMARK    4  A    between atoms: S1_14  and  S2_15 
REMARK    5  A    between atoms: S2_15  and  C4_16 
REMARK    6  A    between atoms: C9_21  and  N4_22 
REMARK    7  A    between atoms: C9_21  and  N5_26 
REMARK    8  A    between atoms: N5_26  and  O1_27 
ROOT
HETATM    1  S1  UNL     1      48.701  28.250  14.508  1.00  0.00    -0.096 SA
ENDROOT
BRANCH   1   2
HETATM    2  C3  UNL     1      48.766  29.217  12.935  1.00  0.00     0.105 C 
BRANCH   2   3
HETATM    3  C2  UNL     1      48.590  28.215  11.842  1.00  0.00     0.128 C 
BRANCH   3   4
HETATM    4  N3  UNL     1      47.632  28.486  10.837  1.00  0.00    -0.373 N 
HETATM    5  C1  UNL     1      46.355  28.940  11.261  1.00  0.00     0.476 C 
HETATM    6  N1  UNL     1      45.614  29.304  10.023  1.00  0.00    -0.033 N 
HETATM    7  N2  UNL     1      45.600  27.968  11.996  1.00  0.00    -0.033 N 
ATOM      8  H13 UNL     1      45.381  28.489   9.458  1.00  0.00     0.278 HD
ATOM      9  H12 UNL     1      44.664  29.620  10.220  1.00  0.00     0.278 HD
ATOM     10  H11 UNL     1      46.151  29.996   9.500  1.00  0.00     0.278 HD
ATOM     11  H23 UNL     1      44.650  28.283  12.193  1.00  0.00     0.278 HD
ATOM     12  H22 UNL     1      45.366  27.152  11.431  1.00  0.00     0.278 HD
ATOM     13  H21 UNL     1      46.107  27.718  12.845  1.00  0.00     0.278 HD
ATOM     14  H3  UNL     1      47.849  28.361   9.849  1.00  0.00     0.156 HD
ENDBRANCH   3   4
ENDBRANCH   2   3
ENDBRANCH   1   2
BRANCH   1  15
HETATM   15  S2  UNL     1      50.685  27.590  14.885  1.00  0.00    -0.089 SA
BRANCH  15  16
HETATM   16  C4  UNL     1      50.593  25.877  15.491  1.00  0.00     0.113 C 
HETATM   17  C5  UNL     1      49.341  25.181  15.087  1.00  0.00     0.020 C 
HETATM   18  C6  UNL     1      49.465  23.732  14.819  1.00  0.00     0.001 C 
HETATM   19  C7  UNL     1      50.590  23.040  15.521  1.00  0.00     0.004 C 
HETATM   20  C8  UNL     1      51.869  23.800  15.565  1.00  0.00     0.060 C 
HETATM   21  C9  UNL     1      51.823  25.163  14.972  1.00  0.00     0.231 C 
BRANCH  21  22
HETATM   22  N4  UNL     1      51.923  25.212  13.548  1.00  0.00    -0.053 N 
ATOM     23  H43 UNL     1      51.004  25.125  13.113  1.00  0.00     0.277 HD
ATOM     24  H42 UNL     1      52.167  26.150  13.230  1.00  0.00     0.277 HD
ATOM     25  H41 UNL     1      52.573  24.518  13.179  1.00  0.00     0.277 HD
ENDBRANCH  21  22
BRANCH  21  26
HETATM   26  N5  UNL     1      52.964  25.921  15.520  1.00  0.00    -0.062 NA
BRANCH  26  27
HETATM   27  O1  UNL     1      53.852  25.036  16.036  1.00  0.00    -0.294 OA
ATOM     28  H1  UNL     1      53.961  25.228  16.960  1.00  0.00     0.238 HD
ENDBRANCH  26  27
ENDBRANCH  21  26
ENDBRANCH  15  16
ENDBRANCH   1  15
TORSDOF 8
ENDMDL
MODEL 3
REMARK VINA RESULT: -5.260903165      2.222      2.990
REMARK  8 active torsions:
REMARK  status: ('A' for Active; 'I' for Inactive)
REMARK       I    between atoms: N1_1  and  C1_5 
REMARK       I    between atoms: C1_5  and  N2_6 
REMARK       I    between atoms: C1_5  and  N3_10 
REMARK    1  A    between atoms: N3_10  and  C2_12 
REMARK    2  A    between atoms: C2_12  and  C3_13 
REMARK    3  A    between atoms: C3_13  and  S1_14 
REMARK    4  A    between atoms: S1_14  and  S2_15 
REMARK    5  A    between atoms: S2_15  and  C4_16 
REMARK    6  A    between atoms: C9_21  and  N4_22 
REMARK    7  A    between atoms: C9_21  and  N5_26 
REMARK    8  A    between atoms: N5_26  and  O1_27 
ROOT
HETATM    1  S1  UNL     1      47.482  28.046  12.216  1.00  0.00    -0.096 SA
ENDROOT
BRANCH   1   2
HETATM    2  C3  UNL     1      48.551  29.283  11.357  1.00  0.00     0.105 C 
BRANCH   2   3
HETATM    3  C2  UNL     1      48.510  28.911   9.911  1.00  0.00     0.128 C 
BRANCH   3   4
HETATM    4  N3  UNL     1      47.981  29.851   8.996  1.00  0.00    -0.373 N 
HETATM    5  C1  UNL     1      46.787  30.522   9.370  1.00  0.00     0.476 C 
HETATM    6  N1  UNL     1      46.549  31.554   8.325  1.00  0.00    -0.033 N 
HETATM    7  N2  UNL     1      45.638  29.669   9.464  1.00  0.00    -0.033 N 
ATOM      8  H13 UNL     1      46.298  31.144   7.426  1.00  0.00     0.278 HD
ATOM      9  H12 UNL     1      45.690  32.079   8.488  1.00  0.00     0.278 HD
ATOM     10  H11 UNL     1      47.367  32.161   8.258  1.00  0.00     0.278 HD
ATOM     11  H23 UNL     1      44.779  30.194   9.627  1.00  0.00     0.278 HD
ATOM     12  H22 UNL     1      45.387  29.259   8.565  1.00  0.00     0.278 HD
ATOM     13  H21 UNL     1      45.801  28.961  10.180  1.00  0.00     0.278 HD
ATOM     14  H3  UNL     1      48.438  30.038   8.104  1.00  0.00     0.156 HD
ENDBRANCH   3   4
ENDBRANCH   2   3
ENDBRANCH   1   2
BRANCH   1  15
HETATM   15  S2  UNL     1      48.102  28.030  14.248  1.00  0.00    -0.089 SA
BRANCH  15  16
HETATM   16  C4  UNL     1      49.845  27.511  14.291  1.00  0.00     0.113 C 
HETATM   17  C5  UNL     1      50.732  28.496  14.968  1.00  0.00     0.020 C 
HETATM   18  C6  UNL     1      51.868  27.928  15.725  1.00  0.00     0.001 C 
HETATM   19  C7  UNL     1      52.345  26.587  15.265  1.00  0.00     0.004 C 
HETATM   20  C8  UNL     1      51.268  25.626  14.901  1.00  0.00     0.060 C 
HETATM   21  C9  UNL     1      49.882  26.160  14.976  1.00  0.00     0.231 C 
BRANCH  21  22
HETATM   22  N4  UNL     1      49.313  26.196  16.284  1.00  0.00    -0.053 N 
ATOM     23  H43 UNL     1      49.838  26.820  16.897  1.00  0.00     0.277 HD
ATOM     24  H42 UNL     1      48.418  26.685  16.281  1.00  0.00     0.277 HD
ATOM     25  H41 UNL     1      49.222  25.267  16.696  1.00  0.00     0.277 HD
ENDBRANCH  21  22
BRANCH  21  26
HETATM   26  N5  UNL     1      49.029  25.288  14.146  1.00  0.00    -0.062 NA
BRANCH  26  27
HETATM   27  O1  UNL     1      49.151  24.017  14.602  1.00  0.00    -0.294 OA
ATOM     28  H1  UNL     1      48.380  23.531  14.335  1.00  0.00     0.238 HD
ENDBRANCH  26  27
ENDBRANCH  21  26
ENDBRANCH  15  16
ENDBRANCH   1  15
TORSDOF 8
ENDMDL
MODEL 4
REMARK VINA RESULT: -4.937133387      3.019      7.182
REMARK  8 active torsions:
REMARK  status: ('A' for Active; 'I' for Inactive)
REMARK       I    between atoms: N1_1  and  C1_5 
REMARK       I    between atoms: C1_5  and  N2_6 
REMARK       I    between atoms: C1_5  and  N3_10 
REMARK    1  A    between atoms: N3_10  and  C2_12 
REMARK    2  A    between atoms: C2_12  and  C3_13 
REMARK    3  A    between atoms: C3_13  and  S1_14 
REMARK    4  A    between atoms: S1_14  and  S2_15 
REMARK    5  A    between atoms: S2_15  and  C4_16 
REMARK    6  A    between atoms: C9_21  and  N4_22 
REMARK    7  A    between atoms: C9_21  and  N5_26 
REMARK    8  A    between atoms: N5_26  and  O1_27 
ROOT
HETATM    1  S1  UNL     1      50.002  27.910  14.876  1.00  0.00    -0.096 SA
ENDROOT
BRANCH   1   2
HETATM    2  C3  UNL     1      50.083  26.065  14.922  1.00  0.00     0.105 C 
BRANCH   2   3
HETATM    3  C2  UNL     1      51.529  25.733  15.087  1.00  0.00     0.128 C 
BRANCH   3   4
HETATM    4  N3  UNL     1      51.991  24.496  14.578  1.00  0.00    -0.373 N 
HETATM    5  C1  UNL     1      51.131  23.374  14.715  1.00  0.00     0.476 C 
HETATM    6  N1  UNL     1      51.776  22.266  13.960  1.00  0.00    -0.033 N 
HETATM    7  N2  UNL     1      50.915  22.961  16.071  1.00  0.00    -0.033 N 
ATOM      8  H13 UNL     1      52.633  21.941  14.406  1.00  0.00     0.278 HD
ATOM      9  H12 UNL     1      51.245  21.397  14.020  1.00  0.00     0.278 HD
ATOM     10  H11 UNL     1      51.929  22.559  12.995  1.00  0.00     0.278 HD
ATOM     11  H23 UNL     1      50.384  22.093  16.131  1.00  0.00     0.278 HD
ATOM     12  H22 UNL     1      51.773  22.637  16.517  1.00  0.00     0.278 HD
ATOM     13  H21 UNL     1      50.473  23.721  16.589  1.00  0.00     0.278 HD
ATOM     14  H3  UNL     1      52.904  24.414  14.131  1.00  0.00     0.156 HD
ENDBRANCH   3   4
ENDBRANCH   2   3
ENDBRANCH   1   2
BRANCH   1  15
HETATM   15  S2  UNL     1      47.983  28.407  14.439  1.00  0.00    -0.089 SA
BRANCH  15  16
HETATM   16  C4  UNL     1      47.952  29.219  12.811  1.00  0.00     0.113 C 
HETATM   17  C5  UNL     1      49.286  29.721  12.384  1.00  0.00     0.020 C 
HETATM   18  C6  UNL     1      49.562  29.663  10.932  1.00  0.00     0.001 C 
HETATM   19  C7  UNL     1      48.360  29.695  10.044  1.00  0.00     0.004 C 
HETATM   20  C8  UNL     1      47.207  28.878  10.514  1.00  0.00     0.060 C 
HETATM   21  C9  UNL     1      47.392  28.210  11.830  1.00  0.00     0.231 C 
BRANCH  21  22
HETATM   22  N4  UNL     1      48.149  27.000  11.800  1.00  0.00    -0.053 N 
ATOM     23  H43 UNL     1      47.595  26.230  11.424  1.00  0.00     0.277 HD
ATOM     24  H42 UNL     1      48.877  27.041  11.087  1.00  0.00     0.277 HD
ATOM     25  H41 UNL     1      48.541  26.762  12.711  1.00  0.00     0.277 HD
ENDBRANCH  21  22
BRANCH  21  26
HETATM   26  N5  UNL     1      46.050  27.879  12.348  1.00  0.00    -0.062 NA
BRANCH  26  27
HETATM   27  O1  UNL     1      45.143  28.149  11.378  1.00  0.00    -0.294 OA
ATOM     28  H1  UNL     1      44.670  27.349  11.182  1.00  0.00     0.238 HD
ENDBRANCH  26  27
ENDBRANCH  21  26
ENDBRANCH  15  16
ENDBRANCH   1  15
TORSDOF 8
ENDMDL
MODEL 5
REMARK VINA RESULT: -4.744319655      3.276      7.128
REMARK  8 active torsions:
REMARK  status: ('A' for Active; 'I' for Inactive)
REMARK       I    between atoms: N1_1  and  C1_5 
REMARK       I    between atoms: C1_5  and  N2_6 
REMARK       I    between atoms: C1_5  and  N3_10 
REMARK    1  A    between atoms: N3_10  and  C2_12 
REMARK    2  A    between atoms: C2_12  and  C3_13 
REMARK    3  A    between atoms: C3_13  and  S1_14 
REMARK    4  A    between atoms: S1_14  and  S2_15 
REMARK    5  A    between atoms: S2_15  and  C4_16 
REMARK    6  A    between atoms: C9_21  and  N4_22 
REMARK    7  A    between atoms: C9_21  and  N5_26 
REMARK    8  A    between atoms: N5_26  and  O1_27 
ROOT
HETATM    1  S1  UNL     1      49.238  27.169  14.619  1.00  0.00    -0.096 SA
ENDROOT
BRANCH   1   2
HETATM    2  C3  UNL     1      50.551  28.223  15.379  1.00  0.00     0.105 C 
BRANCH   2   3
HETATM    3  C2  UNL     1      51.787  27.384  15.380  1.00  0.00     0.128 C 
BRANCH   3   4
HETATM    4  N3  UNL     1      51.761  26.159  14.673  1.00  0.00    -0.373 N 
HETATM    5  C1  UNL     1      52.291  25.017  15.330  1.00  0.00     0.476 C 
HETATM    6  N1  UNL     1      51.991  23.857  14.449  1.00  0.00    -0.033 N 
HETATM    7  N2  UNL     1      53.704  25.080  15.567  1.00  0.00    -0.033 N 
ATOM      8  H13 UNL     1      52.527  23.880  13.582  1.00  0.00     0.278 HD
ATOM      9  H12 UNL     1      52.359  22.982  14.823  1.00  0.00     0.278 HD
ATOM     10  H11 UNL     1      50.986  23.813  14.281  1.00  0.00     0.278 HD
ATOM     11  H23 UNL     1      54.073  24.205  15.940  1.00  0.00     0.278 HD
ATOM     12  H22 UNL     1      54.241  25.103  14.700  1.00  0.00     0.278 HD
ATOM     13  H21 UNL     1      53.911  25.875  16.171  1.00  0.00     0.278 HD
ATOM     14  H3  UNL     1      51.377  26.098  13.730  1.00  0.00     0.156 HD
ENDBRANCH   3   4
ENDBRANCH   2   3
ENDBRANCH   1   2
BRANCH   1  15
HETATM   15  S2  UNL     1      47.560  28.434  14.314  1.00  0.00    -0.089 SA
BRANCH  15  16
HETATM   16  C4  UNL     1      47.753  29.229  12.689  1.00  0.00     0.113 C 
HETATM   17  C5  UNL     1      49.137  29.716  12.438  1.00  0.00     0.020 C 
HETATM   18  C6  UNL     1      49.603  29.641  11.037  1.00  0.00     0.001 C 
HETATM   19  C7  UNL     1      48.529  29.673   9.996  1.00  0.00     0.004 C 
HETATM   20  C8  UNL     1      47.317  28.870  10.317  1.00  0.00     0.060 C 
HETATM   21  C9  UNL     1      47.318  28.215  11.652  1.00  0.00     0.231 C 
BRANCH  21  22
HETATM   22  N4  UNL     1      48.062  26.999  11.733  1.00  0.00    -0.053 N 
ATOM     23  H43 UNL     1      49.006  27.168  12.080  1.00  0.00     0.277 HD
ATOM     24  H42 UNL     1      47.714  26.406  12.487  1.00  0.00     0.277 HD
ATOM     25  H41 UNL     1      48.080  26.493  10.847  1.00  0.00     0.277 HD
ENDBRANCH  21  22
BRANCH  21  26
HETATM   26  N5  UNL     1      45.917  27.900  11.989  1.00  0.00    -0.062 NA
BRANCH  26  27
HETATM   27  O1  UNL     1      45.123  28.388  11.005  1.00  0.00    -0.294 OA
ATOM     28  H1  UNL     1      44.529  29.022  11.390  1.00  0.00     0.238 HD
ENDBRANCH  26  27
ENDBRANCH  21  26
ENDBRANCH  15  16
ENDBRANCH   1  15
TORSDOF 8
ENDMDL
