MODEL 1
REMARK VINA RESULT: -7.591004261      0.000      0.000
REMARK  9 active torsions:
REMARK  status: ('A' for Active; 'I' for Inactive)
REMARK    1  A    between atoms: N2_3  and  O1_4 
REMARK    2  A    between atoms: N2_3  and  N3_6 
REMARK    3  A    between atoms: N3_6  and  C2_7 
REMARK    4  A    between atoms: C2_7  and  C3_8 
REMARK    5  A    between atoms: C3_8  and  C4_9 
REMARK    6  A    between atoms: C4_9  and  C5_10 
REMARK    7  A    between atoms: C5_10  and  N4_11 
REMARK    8  A    between atoms: C6_12  and  N5_13 
REMARK    9  A    between atoms: C8_21  and  N8_22 
ROOT
HETATM    1  N1  UNL     1      48.937  29.618   9.565  1.00  0.00    -0.168 NA
HETATM    2  C1  UNL     1      47.894  29.399  10.019  1.00  0.00     0.224 C 
HETATM    3  N2  UNL     1      46.632  29.144  10.562  1.00  0.00    -0.096 N 
ENDROOT
BRANCH   3   4
HETATM    4  O1  UNL     1      45.533  29.153   9.742  1.00  0.00    -0.262 OA
ATOM      5  H1  UNL     1      44.923  28.426   9.774  1.00  0.00     0.247 HD
ENDBRANCH   3   4
BRANCH   3   6
HETATM    6  N3  UNL     1      46.414  28.874  11.912  1.00  0.00    -0.102 NA
BRANCH   6   7
HETATM    7  C2  UNL     1      47.543  28.153  12.497  1.00  0.00     0.138 C 
BRANCH   7   8
HETATM    8  C3  UNL     1      48.016  28.930  13.727  1.00  0.00     0.019 C 
BRANCH   8   9
HETATM    9  C4  UNL     1      49.441  28.665  14.039  1.00  0.00     0.022 C 
BRANCH   9  10
HETATM   10  C5  UNL     1      49.727  28.071  15.396  1.00  0.00     0.148 C 
BRANCH  10  11
HETATM   11  N4  UNL     1      50.819  27.156  15.372  1.00  0.00    -0.176 N 
HETATM   12  C6  UNL     1      52.099  27.604  15.502  1.00  0.00     0.680 A 
HETATM   13  N6  UNL     1      52.897  26.552  15.409  1.00  0.00    -0.174 N 
HETATM   14  C7  UNL     1      52.144  25.437  15.219  1.00  0.00     0.167 A 
ATOM     15  H6  UNL     1      53.915  26.575  15.469  1.00  0.00     0.186 HD
HETATM   16  N7  UNL     1      52.455  24.153  15.051  1.00  0.00    -0.174 N 
HETATM   17  C10 UNL     1      50.795  25.823  15.195  1.00  0.00     0.140 A 
HETATM   18  C8  UNL     1      51.529  23.222  14.858  1.00  0.00     0.679 A 
ATOM     19  H7  UNL     1      53.436  23.876  15.070  1.00  0.00     0.186 HD
HETATM   20  N9  UNL     1      50.248  23.576  14.832  1.00  0.00    -0.175 N 
HETATM   21  C9  UNL     1      49.810  24.874  14.994  1.00  0.00     0.146 A 
ATOM     22  H9  UNL     1      49.550  22.847  14.683  1.00  0.00     0.186 HD
HETATM   23  N10 UNL     1      48.597  25.129  14.933  1.00  0.00    -0.383 N 
ATOM     24 2H10 UNL     1      47.870  24.429  14.785  1.00  0.00     0.157 HD
ATOM     25 1H10 UNL     1      48.273  26.089  15.054  1.00  0.00     0.157 HD
BRANCH  12  26
HETATM   26  N5  UNL     1      52.499  28.812  15.679  1.00  0.00    -0.234 N 
ATOM     27  H52 UNL     1      52.090  29.630  15.229  1.00  0.00     0.174 HD
ATOM     28  H51 UNL     1      53.258  29.140  16.276  1.00  0.00     0.174 HD
ENDBRANCH  12  26
BRANCH  18  29
HETATM   29  N8  UNL     1      51.824  21.956  14.692  1.00  0.00    -0.234 N 
ATOM     30  H82 UNL     1      52.804  21.681  14.738  1.00  0.00     0.174 HD
ATOM     31  H81 UNL     1      51.114  21.245  14.521  1.00  0.00     0.174 HD
ENDBRANCH  18  29
ENDBRANCH  10  11
ENDBRANCH   9  10
ENDBRANCH   8   9
ENDBRANCH   7   8
ENDBRANCH   6   7
ENDBRANCH   3   6
TORSDOF 9
ENDMDL
MODEL 2
REMARK VINA RESULT: -7.299033644      1.045      1.250
REMARK  9 active torsions:
REMARK  status: ('A' for Active; 'I' for Inactive)
REMARK    1  A    between atoms: N2_3  and  O1_4 
REMARK    2  A    between atoms: N2_3  and  N3_6 
REMARK    3  A    between atoms: N3_6  and  C2_7 
REMARK    4  A    between atoms: C2_7  and  C3_8 
REMARK    5  A    between atoms: C3_8  and  C4_9 
REMARK    6  A    between atoms: C4_9  and  C5_10 
REMARK    7  A    between atoms: C5_10  and  N4_11 
REMARK    8  A    between atoms: C6_12  and  N5_13 
REMARK    9  A    between atoms: C8_21  and  N8_22 
ROOT
HETATM    1  N1  UNL     1      45.631  29.599   9.387  1.00  0.00    -0.168 NA
HETATM    2  C1  UNL     1      46.737  29.563   9.730  1.00  0.00     0.224 C 
HETATM    3  N2  UNL     1      48.072  29.512  10.138  1.00  0.00    -0.096 N 
ENDROOT
BRANCH   3   4
HETATM    4  O1  UNL     1      49.064  29.503   9.191  1.00  0.00    -0.262 OA
ATOM      5  H1  UNL     1      49.676  28.777   9.166  1.00  0.00     0.247 HD
ENDBRANCH   3   4
BRANCH   3   6
HETATM    6  N3  UNL     1      48.469  29.469  11.473  1.00  0.00    -0.102 NA
BRANCH   6   7
HETATM    7  C2  UNL     1      47.658  28.522  12.237  1.00  0.00     0.138 C 
BRANCH   7   8
HETATM    8  C3  UNL     1      47.951  28.739  13.723  1.00  0.00     0.019 C 
BRANCH   8   9
HETATM    9  C4  UNL     1      49.388  28.559  14.040  1.00  0.00     0.022 C 
BRANCH   9  10
HETATM   10  C5  UNL     1      49.705  27.994  15.401  1.00  0.00     0.148 C 
BRANCH  10  11
HETATM   11  N4  UNL     1      50.816  27.102  15.378  1.00  0.00    -0.176 N 
HETATM   12  C6  UNL     1      52.086  27.576  15.500  1.00  0.00     0.680 A 
HETATM   13  N6  UNL     1      52.906  26.541  15.408  1.00  0.00    -0.174 N 
HETATM   14  C7  UNL     1      52.176  25.410  15.228  1.00  0.00     0.167 A 
ATOM     15  H6  UNL     1      53.923  26.585  15.464  1.00  0.00     0.186 HD
HETATM   16  N7  UNL     1      52.512  24.132  15.064  1.00  0.00    -0.174 N 
HETATM   17  C10 UNL     1      50.819  25.768  15.207  1.00  0.00     0.140 A 
HETATM   18  C8  UNL     1      51.604  23.181  14.880  1.00  0.00     0.679 A 
ATOM     19  H7  UNL     1      53.498  23.875  15.080  1.00  0.00     0.186 HD
HETATM   20  N9  UNL     1      50.316  23.508  14.857  1.00  0.00    -0.175 N 
HETATM   21  C9  UNL     1      49.853  24.797  15.015  1.00  0.00     0.146 A 
ATOM     22  H9  UNL     1      49.633  22.764  14.714  1.00  0.00     0.186 HD
HETATM   23  N10 UNL     1      48.634  25.027  14.958  1.00  0.00    -0.383 N 
ATOM     24 2H10 UNL     1      47.921  24.312  14.817  1.00  0.00     0.157 HD
ATOM     25 1H10 UNL     1      48.291  25.981  15.076  1.00  0.00     0.157 HD
BRANCH  12  26
HETATM   26  N5  UNL     1      52.462  28.793  15.670  1.00  0.00    -0.234 N 
ATOM     27  H52 UNL     1      52.051  29.439  16.343  1.00  0.00     0.174 HD
ATOM     28  H51 UNL     1      53.205  29.294  15.182  1.00  0.00     0.174 HD
ENDBRANCH  12  26
BRANCH  18  29
HETATM   29  N8  UNL     1      51.925  21.921  14.719  1.00  0.00    -0.234 N 
ATOM     30  H82 UNL     1      52.778  21.703  14.206  1.00  0.00     0.174 HD
ATOM     31  H81 UNL     1      51.356  21.158  15.085  1.00  0.00     0.174 HD
ENDBRANCH  18  29
ENDBRANCH  10  11
ENDBRANCH   9  10
ENDBRANCH   8   9
ENDBRANCH   7   8
ENDBRANCH   6   7
ENDBRANCH   3   6
TORSDOF 9
ENDMDL
MODEL 3
REMARK VINA RESULT: -7.046551726      1.053      2.329
REMARK  9 active torsions:
REMARK  status: ('A' for Active; 'I' for Inactive)
REMARK    1  A    between atoms: N2_3  and  O1_4 
REMARK    2  A    between atoms: N2_3  and  N3_6 
REMARK    3  A    between atoms: N3_6  and  C2_7 
REMARK    4  A    between atoms: C2_7  and  C3_8 
REMARK    5  A    between atoms: C3_8  and  C4_9 
REMARK    6  A    between atoms: C4_9  and  C5_10 
REMARK    7  A    between atoms: C5_10  and  N4_11 
REMARK    8  A    between atoms: C6_12  and  N5_13 
REMARK    9  A    between atoms: C8_21  and  N8_22 
ROOT
HETATM    1  N1  UNL     1      48.535  29.459   8.957  1.00  0.00    -0.168 NA
HETATM    2  C1  UNL     1      47.866  29.252   9.880  1.00  0.00     0.224 C 
HETATM    3  N2  UNL     1      47.054  29.010  10.991  1.00  0.00    -0.096 N 
ENDROOT
BRANCH   3   4
HETATM    4  O1  UNL     1      45.699  28.886  10.818  1.00  0.00    -0.262 OA
ATOM      5  H1  UNL     1      45.112  29.233  11.479  1.00  0.00     0.247 HD
ENDBRANCH   3   4
BRANCH   3   6
HETATM    6  N3  UNL     1      47.541  28.886  12.291  1.00  0.00    -0.102 NA
BRANCH   6   7
HETATM    7  C2  UNL     1      48.958  29.238  12.361  1.00  0.00     0.138 C 
BRANCH   7   8
HETATM    8  C3  UNL     1      49.329  29.417  13.835  1.00  0.00     0.019 C 
BRANCH   8   9
HETATM    9  C4  UNL     1      50.618  28.763  14.167  1.00  0.00     0.022 C 
BRANCH   9  10
HETATM   10  C5  UNL     1      50.632  27.913  15.413  1.00  0.00     0.148 C 
BRANCH  10  11
HETATM   11  N4  UNL     1      50.216  26.573  15.165  1.00  0.00    -0.176 N 
HETATM   12  C6  UNL     1      48.895  26.273  15.027  1.00  0.00     0.680 A 
HETATM   13  N6  UNL     1      48.803  24.965  14.844  1.00  0.00    -0.174 N 
HETATM   14  C7  UNL     1      50.048  24.424  14.864  1.00  0.00     0.167 A 
ATOM     15  H6  UNL     1      47.935  24.447  14.709  1.00  0.00     0.186 HD
HETATM   16  N7  UNL     1      50.495  23.175  14.746  1.00  0.00    -0.174 N 
HETATM   17  C10 UNL     1      50.970  25.462  15.073  1.00  0.00     0.140 A 
HETATM   18  C8  UNL     1      51.786  22.876  14.821  1.00  0.00     0.679 A 
ATOM     19  H7  UNL     1      49.823  22.423  14.595  1.00  0.00     0.186 HD
HETATM   20  N9  UNL     1      52.667  23.852  15.019  1.00  0.00    -0.175 N 
HETATM   21  C9  UNL     1      52.320  25.179  15.156  1.00  0.00     0.146 A 
ATOM     22  H9  UNL     1      53.656  23.604  15.074  1.00  0.00     0.186 HD
HETATM   23  N10 UNL     1      53.201  26.030  15.363  1.00  0.00    -0.383 N 
ATOM     24 2H10 UNL     1      54.197  25.821  15.424  1.00  0.00     0.157 HD
ATOM     25 1H10 UNL     1      52.943  27.012  15.464  1.00  0.00     0.157 HD
BRANCH  12  26
HETATM   26  N5  UNL     1      47.894  27.078  15.065  1.00  0.00    -0.234 N 
ATOM     27  H52 UNL     1      47.968  28.094  15.127  1.00  0.00     0.174 HD
ATOM     28  H51 UNL     1      46.902  26.847  15.038  1.00  0.00     0.174 HD
ENDBRANCH  12  26
BRANCH  18  29
HETATM   29  N8  UNL     1      52.235  21.651  14.705  1.00  0.00    -0.234 N 
ATOM     30  H82 UNL     1      51.933  20.962  15.393  1.00  0.00     0.174 HD
ATOM     31  H81 UNL     1      52.869  21.367  13.959  1.00  0.00     0.174 HD
ENDBRANCH  18  29
ENDBRANCH  10  11
ENDBRANCH   9  10
ENDBRANCH   8   9
ENDBRANCH   7   8
ENDBRANCH   6   7
ENDBRANCH   3   6
TORSDOF 9
ENDMDL
MODEL 4
REMARK VINA RESULT: -7.012216138      1.065      1.139
REMARK  9 active torsions:
REMARK  status: ('A' for Active; 'I' for Inactive)
REMARK    1  A    between atoms: N2_3  and  O1_4 
REMARK    2  A    between atoms: N2_3  and  N3_6 
REMARK    3  A    between atoms: N3_6  and  C2_7 
REMARK    4  A    between atoms: C2_7  and  C3_8 
REMARK    5  A    between atoms: C3_8  and  C4_9 
REMARK    6  A    between atoms: C4_9  and  C5_10 
REMARK    7  A    between atoms: C5_10  and  N4_11 
REMARK    8  A    between atoms: C6_12  and  N5_13 
REMARK    9  A    between atoms: C8_21  and  N8_22 
ROOT
HETATM    1  N1  UNL     1      46.134  30.071   9.287  1.00  0.00    -0.168 NA
HETATM    2  C1  UNL     1      46.390  29.360  10.164  1.00  0.00     0.224 C 
HETATM    3  N2  UNL     1      46.693  28.508  11.229  1.00  0.00    -0.096 N 
ENDROOT
BRANCH   3   4
HETATM    4  O1  UNL     1      45.673  27.976  11.976  1.00  0.00    -0.262 OA
ATOM      5  H1  UNL     1      45.010  27.448  11.548  1.00  0.00     0.247 HD
ENDBRANCH   3   4
BRANCH   3   6
HETATM    6  N3  UNL     1      47.993  28.156  11.590  1.00  0.00    -0.102 NA
BRANCH   6   7
HETATM    7  C2  UNL     1      48.773  29.331  11.973  1.00  0.00     0.138 C 
BRANCH   7   8
HETATM    8  C3  UNL     1      48.946  29.310  13.493  1.00  0.00     0.019 C 
BRANCH   8   9
HETATM    9  C4  UNL     1      48.839  27.939  14.047  1.00  0.00     0.022 C 
BRANCH   9  10
HETATM   10  C5  UNL     1      49.471  27.714  15.397  1.00  0.00     0.148 C 
BRANCH  10  11
HETATM   11  N4  UNL     1      50.635  26.895  15.327  1.00  0.00    -0.176 N 
HETATM   12  C6  UNL     1      51.876  27.455  15.360  1.00  0.00     0.680 A 
HETATM   13  N6  UNL     1      52.756  26.473  15.243  1.00  0.00    -0.174 N 
HETATM   14  C7  UNL     1      52.093  25.293  15.132  1.00  0.00     0.167 A 
ATOM     15  H6  UNL     1      53.770  26.584  15.236  1.00  0.00     0.186 HD
HETATM   16  N7  UNL     1      52.504  24.035  14.977  1.00  0.00    -0.174 N 
HETATM   17  C10 UNL     1      50.716  25.560  15.186  1.00  0.00     0.140 A 
HETATM   18  C8  UNL     1      51.652  23.022  14.870  1.00  0.00     0.679 A 
ATOM     19  H7  UNL     1      53.504  23.843  14.939  1.00  0.00     0.186 HD
HETATM   20  N9  UNL     1      50.346  23.265  14.918  1.00  0.00    -0.175 N 
HETATM   21  C9  UNL     1      49.808  24.524  15.075  1.00  0.00     0.146 A 
ATOM     22  H9  UNL     1      49.706  22.474  14.834  1.00  0.00     0.186 HD
HETATM   23  N10 UNL     1      48.575  24.673  15.087  1.00  0.00    -0.383 N 
ATOM     24 2H10 UNL     1      47.904  23.909  15.005  1.00  0.00     0.157 HD
ATOM     25 1H10 UNL     1      48.177  25.605  15.203  1.00  0.00     0.157 HD
BRANCH  12  26
HETATM   26  N5  UNL     1      52.180  28.698  15.480  1.00  0.00    -0.234 N 
ATOM     27  H52 UNL     1      51.826  29.314  16.211  1.00  0.00     0.174 HD
ATOM     28  H51 UNL     1      52.800  29.251  14.889  1.00  0.00     0.174 HD
ENDBRANCH  12  26
BRANCH  18  29
HETATM   29  N8  UNL     1      52.046  21.782  14.718  1.00  0.00    -0.234 N 
ATOM     30  H82 UNL     1      51.986  21.369  13.788  1.00  0.00     0.174 HD
ATOM     31  H81 UNL     1      52.406  21.222  15.490  1.00  0.00     0.174 HD
ENDBRANCH  18  29
ENDBRANCH  10  11
ENDBRANCH   9  10
ENDBRANCH   8   9
ENDBRANCH   7   8
ENDBRANCH   6   7
ENDBRANCH   3   6
TORSDOF 9
ENDMDL
MODEL 5
REMARK VINA RESULT: -6.876135396      1.352      2.617
REMARK  9 active torsions:
REMARK  status: ('A' for Active; 'I' for Inactive)
REMARK    1  A    between atoms: N2_3  and  O1_4 
REMARK    2  A    between atoms: N2_3  and  N3_6 
REMARK    3  A    between atoms: N3_6  and  C2_7 
REMARK    4  A    between atoms: C2_7  and  C3_8 
REMARK    5  A    between atoms: C3_8  and  C4_9 
REMARK    6  A    between atoms: C4_9  and  C5_10 
REMARK    7  A    between atoms: C5_10  and  N4_11 
REMARK    8  A    between atoms: C6_12  and  N5_13 
REMARK    9  A    between atoms: C8_21  and  N8_22 
ROOT
HETATM    1  N1  UNL     1      45.611  29.241   9.732  1.00  0.00    -0.168 NA
HETATM    2  C1  UNL     1      46.747  29.416   9.880  1.00  0.00     0.224 C 
HETATM    3  N2  UNL     1      48.118  29.618  10.055  1.00  0.00    -0.096 N 
ENDROOT
BRANCH   3   4
HETATM    4  O1  UNL     1      48.959  29.495   8.978  1.00  0.00    -0.262 OA
ATOM      5  H1  UNL     1      49.750  30.019   8.943  1.00  0.00     0.247 HD
ENDBRANCH   3   4
BRANCH   3   6
HETATM    6  N3  UNL     1      48.700  29.943  11.279  1.00  0.00    -0.102 NA
BRANCH   6   7
HETATM    7  C2  UNL     1      48.530  28.863  12.250  1.00  0.00     0.138 C 
BRANCH   7   8
HETATM    8  C3  UNL     1      49.048  29.355  13.603  1.00  0.00     0.019 C 
BRANCH   8   9
HETATM    9  C4  UNL     1      50.357  28.753  13.951  1.00  0.00     0.022 C 
BRANCH   9  10
HETATM   10  C5  UNL     1      50.419  28.000  15.256  1.00  0.00     0.148 C 
BRANCH  10  11
HETATM   11  N4  UNL     1      50.057  26.629  15.114  1.00  0.00    -0.176 N 
HETATM   12  C6  UNL     1      48.747  26.264  15.053  1.00  0.00     0.680 A 
HETATM   13  N6  UNL     1      48.708  24.944  14.960  1.00  0.00    -0.174 N 
HETATM   14  C7  UNL     1      49.977  24.461  14.961  1.00  0.00     0.167 A 
ATOM     15  H6  UNL     1      47.861  24.380  14.896  1.00  0.00     0.186 HD
HETATM   16  N7  UNL     1      50.476  23.227  14.905  1.00  0.00    -0.174 N 
HETATM   17  C10 UNL     1      50.857  25.550  15.061  1.00  0.00     0.140 A 
HETATM   18  C8  UNL     1      51.782  22.991  14.943  1.00  0.00     0.679 A 
ATOM     19  H7  UNL     1      49.835  22.438  14.832  1.00  0.00     0.186 HD
HETATM   20  N9  UNL     1      52.624  24.015  15.039  1.00  0.00    -0.175 N 
HETATM   21  C9  UNL     1      52.221  25.332  15.104  1.00  0.00     0.146 A 
ATOM     22  H9  UNL     1      53.624  23.814  15.066  1.00  0.00     0.186 HD
HETATM   23  N10 UNL     1      53.069  26.232  15.216  1.00  0.00    -0.383 N 
ATOM     24 2H10 UNL     1      54.076  26.072  15.248  1.00  0.00     0.157 HD
ATOM     25 1H10 UNL     1      52.770  27.207  15.264  1.00  0.00     0.157 HD
BRANCH  12  26
HETATM   26  N5  UNL     1      47.712  27.025  15.082  1.00  0.00    -0.234 N 
ATOM     27  H52 UNL     1      46.924  26.959  14.438  1.00  0.00     0.174 HD
ATOM     28  H51 UNL     1      47.513  27.789  15.728  1.00  0.00     0.174 HD
ENDBRANCH  12  26
BRANCH  18  29
HETATM   29  N8  UNL     1      52.282  21.782  14.888  1.00  0.00    -0.234 N 
ATOM     30  H82 UNL     1      51.650  21.008  14.682  1.00  0.00     0.174 HD
ATOM     31  H81 UNL     1      53.271  21.589  15.042  1.00  0.00     0.174 HD
ENDBRANCH  18  29
ENDBRANCH  10  11
ENDBRANCH   9  10
ENDBRANCH   8   9
ENDBRANCH   7   8
ENDBRANCH   6   7
ENDBRANCH   3   6
TORSDOF 9
ENDMDL
