MODEL 1
REMARK VINA RESULT: -4.733452475      0.000      0.000
REMARK  7 active torsions:
REMARK  status: ('A' for Active; 'I' for Inactive)
REMARK    1  A    between atoms: C2_2  and  C3_3 
REMARK    2  A    between atoms: C3_3  and  C4_4 
REMARK    3  A    between atoms: C4_4  and  C5_5 
REMARK    4  A    between atoms: C5_5  and  C6_6 
REMARK    5  A    between atoms: C6_6  and  N1_7 
REMARK    6  A    between atoms: C8_13  and  N4_14 
REMARK    7  A    between atoms: C9_19  and  N6_20 
REMARK       I    between atoms: N7_24  and  C11_25 
ROOT
HETATM    1  N1  UNL     1      48.988  27.041  14.951  1.00  0.00    -0.129 NA
HETATM    2  N2  UNL     1      48.635  25.831  15.609  1.00  0.00    -0.284 N 
ATOM      3  H2  UNL     1      47.803  25.636  16.166  1.00  0.00     0.184 HD
HETATM    4  C7  UNL     1      49.729  24.947  15.304  1.00  0.00     0.165 A 
HETATM    5  N3  UNL     1      49.795  23.609  15.263  1.00  0.00    -0.173 N 
ATOM      6  H3  UNL     1      48.978  23.034  15.472  1.00  0.00     0.186 HD
HETATM    7  C8  UNL     1      50.982  23.044  14.937  1.00  0.00     0.679 A 
HETATM    8  N5  UNL     1      52.052  23.816  14.665  1.00  0.00    -0.175 N 
ATOM      9  H5  UNL     1      52.934  23.365  14.420  1.00  0.00     0.186 HD
HETATM   10  C9  UNL     1      52.000  25.178  14.703  1.00  0.00     0.147 A 
HETATM   11  C10 UNL     1      50.809  25.756  15.031  1.00  0.00     0.145 A 
HETATM   12  N7  UNL     1      50.400  27.110  15.164  1.00  0.00    -0.224 N 
HETATM   13  C11 UNL     1      51.165  28.300  15.429  1.00  0.00     0.220 C 
HETATM   14  N8  UNL     1      51.256  29.208  14.301  1.00  0.00    -0.065 NA
HETATM   15  N9  UNL     1      52.321  28.178  16.229  1.00  0.00    -0.065 NA
ENDROOT
BRANCH   1  16
HETATM   16  C6  UNL     1      48.706  26.820  13.548  1.00  0.00     0.139 C 
BRANCH  16  17
HETATM   17  C5  UNL     1      48.019  28.075  12.996  1.00  0.00     0.018 C 
BRANCH  17  18
HETATM   18  C4  UNL     1      48.000  28.027  11.499  1.00  0.00     0.001 C 
BRANCH  18  19
HETATM   19  C3  UNL     1      48.569  29.256  10.865  1.00  0.00    -0.000 C 
BRANCH  19  20
HETATM   20  C2  UNL     1      47.845  29.623   9.591  1.00  0.00    -0.005 C 
HETATM   21  C1  UNL     1      46.342  29.553   9.796  1.00  0.00     0.005 C 
ENDBRANCH  19  20
ENDBRANCH  18  19
ENDBRANCH  17  18
ENDBRANCH  16  17
ENDBRANCH   1  16
BRANCH  10  22
HETATM   22  N6  UNL     1      53.012  25.904  14.432  1.00  0.00    -0.383 N 
ATOM     23  H62 UNL     1      53.275  26.077  13.461  1.00  0.00     0.157 HD
ATOM     24  H61 UNL     1      53.591  26.322  15.160  1.00  0.00     0.157 HD
ENDBRANCH  10  22
BRANCH   7  25
HETATM   25  N4  UNL     1      51.042  21.750  14.898  1.00  0.00    -0.234 N 
ATOM     26  H42 UNL     1      50.387  21.196  14.346  1.00  0.00     0.174 HD
ATOM     27  H41 UNL     1      51.773  21.294  15.443  1.00  0.00     0.174 HD
ENDBRANCH   7  25
TORSDOF 7
ENDMDL
MODEL 2
REMARK VINA RESULT: -2.395715933      2.483      5.656
REMARK  7 active torsions:
REMARK  status: ('A' for Active; 'I' for Inactive)
REMARK    1  A    between atoms: C2_2  and  C3_3 
REMARK    2  A    between atoms: C3_3  and  C4_4 
REMARK    3  A    between atoms: C4_4  and  C5_5 
REMARK    4  A    between atoms: C5_5  and  C6_6 
REMARK    5  A    between atoms: C6_6  and  N1_7 
REMARK    6  A    between atoms: C8_13  and  N4_14 
REMARK    7  A    between atoms: C9_19  and  N6_20 
REMARK       I    between atoms: N7_24  and  C11_25 
ROOT
HETATM    1  N1  UNL     1      51.764  27.491  14.662  1.00  0.00    -0.129 NA
HETATM    2  N2  UNL     1      52.430  26.267  14.380  1.00  0.00    -0.284 N 
ATOM      3  H2  UNL     1      53.317  26.130  13.894  1.00  0.00     0.184 HD
HETATM    4  C7  UNL     1      51.559  25.269  14.939  1.00  0.00     0.165 A 
HETATM    5  N3  UNL     1      51.806  24.023  15.366  1.00  0.00    -0.173 N 
ATOM      6  H3  UNL     1      52.746  23.628  15.325  1.00  0.00     0.186 HD
HETATM    7  C8  UNL     1      50.767  23.304  15.855  1.00  0.00     0.679 A 
HETATM    8  N5  UNL     1      49.531  23.838  15.903  1.00  0.00    -0.175 N 
ATOM      9  H5  UNL     1      48.767  23.276  16.277  1.00  0.00     0.186 HD
HETATM   10  C9  UNL     1      49.264  25.104  15.471  1.00  0.00     0.147 A 
HETATM   11  C10 UNL     1      50.304  25.835  14.977  1.00  0.00     0.145 A 
HETATM   12  N7  UNL     1      50.391  27.153  14.453  1.00  0.00    -0.224 N 
HETATM   13  C11 UNL     1      49.386  27.997  13.863  1.00  0.00     0.220 C 
HETATM   14  N8  UNL     1      49.016  29.137  14.681  1.00  0.00    -0.065 NA
HETATM   15  N9  UNL     1      48.341  27.377  13.145  1.00  0.00    -0.065 NA
ENDROOT
BRANCH   1  16
HETATM   16  C6  UNL     1      52.005  27.752  16.066  1.00  0.00     0.139 C 
BRANCH  16  17
HETATM   17  C5  UNL     1      52.845  29.032  16.176  1.00  0.00     0.018 C 
BRANCH  17  18
HETATM   18  C4  UNL     1      53.949  28.831  17.167  1.00  0.00     0.001 C 
BRANCH  18  19
HETATM   19  C3  UNL     1      54.581  30.112  17.609  1.00  0.00    -0.000 C 
BRANCH  19  20
HETATM   20  C2  UNL     1      54.986  30.072  19.064  1.00  0.00    -0.005 C 
HETATM   21  C1  UNL     1      55.853  28.856  19.340  1.00  0.00     0.005 C 
ENDBRANCH  19  20
ENDBRANCH  18  19
ENDBRANCH  17  18
ENDBRANCH  16  17
ENDBRANCH   1  16
BRANCH  10  22
HETATM   22  N6  UNL     1      48.096  25.609  15.531  1.00  0.00    -0.383 N 
ATOM     23  H62 UNL     1      47.463  25.351  16.288  1.00  0.00     0.157 HD
ATOM     24  H61 UNL     1      47.753  26.268  14.832  1.00  0.00     0.157 HD
ENDBRANCH  10  22
BRANCH   7  25
HETATM   25  N4  UNL     1      51.011  22.100  16.268  1.00  0.00    -0.234 N 
ATOM     26  H42 UNL     1      51.954  21.712  16.274  1.00  0.00     0.174 HD
ATOM     27  H41 UNL     1      50.221  21.542  16.591  1.00  0.00     0.174 HD
ENDBRANCH   7  25
TORSDOF 7
ENDMDL
MODEL 3
REMARK VINA RESULT: -2.188761708      2.525      5.336
REMARK  7 active torsions:
REMARK  status: ('A' for Active; 'I' for Inactive)
REMARK    1  A    between atoms: C2_2  and  C3_3 
REMARK    2  A    between atoms: C3_3  and  C4_4 
REMARK    3  A    between atoms: C4_4  and  C5_5 
REMARK    4  A    between atoms: C5_5  and  C6_6 
REMARK    5  A    between atoms: C6_6  and  N1_7 
REMARK    6  A    between atoms: C8_13  and  N4_14 
REMARK    7  A    between atoms: C9_19  and  N6_20 
REMARK       I    between atoms: N7_24  and  C11_25 
ROOT
HETATM    1  N1  UNL     1      48.429  26.159  14.869  1.00  0.00    -0.129 NA
HETATM    2  N2  UNL     1      49.120  26.417  16.084  1.00  0.00    -0.284 N 
ATOM      3  H2  UNL     1      48.941  26.021  17.007  1.00  0.00     0.184 HD
HETATM    4  C7  UNL     1      50.132  27.367  15.704  1.00  0.00     0.165 A 
HETATM    5  N3  UNL     1      51.316  27.663  16.259  1.00  0.00    -0.173 N 
ATOM      6  H3  UNL     1      51.638  27.183  17.100  1.00  0.00     0.186 HD
HETATM    7  C8  UNL     1      52.070  28.620  15.668  1.00  0.00     0.679 A 
HETATM    8  N5  UNL     1      51.630  29.245  14.558  1.00  0.00    -0.175 N 
ATOM      9  H5  UNL     1      52.218  29.962  14.132  1.00  0.00     0.186 HD
HETATM   10  C9  UNL     1      50.428  28.956  13.983  1.00  0.00     0.147 A 
HETATM   11  C10 UNL     1      49.662  27.994  14.572  1.00  0.00     0.145 A 
HETATM   12  N7  UNL     1      48.388  27.449  14.255  1.00  0.00    -0.224 N 
HETATM   13  C11 UNL     1      47.295  27.998  13.497  1.00  0.00     0.220 C 
HETATM   14  N8  UNL     1      47.074  27.345  12.219  1.00  0.00    -0.065 NA
HETATM   15  N9  UNL     1      47.108  29.396  13.525  1.00  0.00    -0.065 NA
ENDROOT
BRANCH   1  16
HETATM   16  C6  UNL     1      49.288  25.273  14.111  1.00  0.00     0.139 C 
BRANCH  16  17
HETATM   17  C5  UNL     1      49.410  23.952  14.882  1.00  0.00     0.018 C 
BRANCH  17  18
HETATM   18  C4  UNL     1      50.841  23.710  15.253  1.00  0.00     0.001 C 
BRANCH  18  19
HETATM   19  C3  UNL     1      51.789  23.951  14.122  1.00  0.00    -0.000 C 
BRANCH  19  20
HETATM   20  C2  UNL     1      52.716  25.111  14.397  1.00  0.00    -0.005 C 
HETATM   21  C1  UNL     1      53.341  24.975  15.775  1.00  0.00     0.005 C 
ENDBRANCH  19  20
ENDBRANCH  18  19
ENDBRANCH  17  18
ENDBRANCH  16  17
ENDBRANCH   1  16
BRANCH  10  22
HETATM   22  N6  UNL     1      50.023  29.541  12.926  1.00  0.00    -0.383 N 
ATOM     23  H62 UNL     1      49.225  29.171  12.408  1.00  0.00     0.157 HD
ATOM     24  H61 UNL     1      50.477  30.377  12.560  1.00  0.00     0.157 HD
ENDBRANCH  10  22
BRANCH   7  25
HETATM   25  N4  UNL     1      53.214  28.903  16.207  1.00  0.00    -0.234 N 
ATOM     26  H42 UNL     1      53.289  29.501  17.030  1.00  0.00     0.174 HD
ATOM     27  H41 UNL     1      54.050  28.505  15.780  1.00  0.00     0.174 HD
ENDBRANCH   7  25
TORSDOF 7
ENDMDL
MODEL 4
REMARK VINA RESULT: -1.987619473      2.512      5.638
REMARK  7 active torsions:
REMARK  status: ('A' for Active; 'I' for Inactive)
REMARK    1  A    between atoms: C2_2  and  C3_3 
REMARK    2  A    between atoms: C3_3  and  C4_4 
REMARK    3  A    between atoms: C4_4  and  C5_5 
REMARK    4  A    between atoms: C5_5  and  C6_6 
REMARK    5  A    between atoms: C6_6  and  N1_7 
REMARK    6  A    between atoms: C8_13  and  N4_14 
REMARK    7  A    between atoms: C9_19  and  N6_20 
REMARK       I    between atoms: N7_24  and  C11_25 
ROOT
HETATM    1  N1  UNL     1      48.578  26.086  14.803  1.00  0.00    -0.129 NA
HETATM    2  N2  UNL     1      49.288  26.292  16.017  1.00  0.00    -0.284 N 
ATOM      3  H2  UNL     1      49.140  25.837  16.918  1.00  0.00     0.184 HD
HETATM    4  C7  UNL     1      50.262  27.294  15.676  1.00  0.00     0.165 A 
HETATM    5  N3  UNL     1      51.448  27.593  16.223  1.00  0.00    -0.173 N 
ATOM      6  H3  UNL     1      51.803  27.074  17.027  1.00  0.00     0.186 HD
HETATM    7  C8  UNL     1      52.161  28.606  15.676  1.00  0.00     0.679 A 
HETATM    8  N5  UNL     1      51.678  29.283  14.615  1.00  0.00    -0.175 N 
ATOM      9  H5  UNL     1      52.235  30.042  14.221  1.00  0.00     0.186 HD
HETATM   10  C9  UNL     1      50.473  28.992  14.048  1.00  0.00     0.147 A 
HETATM   11  C10 UNL     1      49.749  27.973  14.593  1.00  0.00     0.145 A 
HETATM   12  N7  UNL     1      48.485  27.409  14.269  1.00  0.00    -0.224 N 
HETATM   13  C11 UNL     1      47.360  27.967  13.567  1.00  0.00     0.220 C 
HETATM   14  N8  UNL     1      47.131  27.385  12.257  1.00  0.00    -0.065 NA
HETATM   15  N9  UNL     1      47.132  29.355  13.683  1.00  0.00    -0.065 NA
ENDROOT
BRANCH   1  16
HETATM   16  C6  UNL     1      49.446  25.274  13.976  1.00  0.00     0.139 C 
BRANCH  16  17
HETATM   17  C5  UNL     1      49.823  24.017  14.771  1.00  0.00     0.018 C 
BRANCH  17  18
HETATM   18  C4  UNL     1      51.312  23.855  14.790  1.00  0.00     0.001 C 
BRANCH  18  19
HETATM   19  C3  UNL     1      51.747  22.425  14.765  1.00  0.00    -0.000 C 
BRANCH  19  20
HETATM   20  C2  UNL     1      51.614  21.816  13.388  1.00  0.00    -0.005 C 
HETATM   21  C1  UNL     1      52.339  20.483  13.326  1.00  0.00     0.005 C 
ENDBRANCH  19  20
ENDBRANCH  18  19
ENDBRANCH  17  18
ENDBRANCH  16  17
ENDBRANCH   1  16
BRANCH  10  22
HETATM   22  N6  UNL     1      50.027  29.626  13.036  1.00  0.00    -0.383 N 
ATOM     23  H62 UNL     1      49.148  30.139  13.099  1.00  0.00     0.157 HD
ATOM     24  H61 UNL     1      50.517  29.635  12.142  1.00  0.00     0.157 HD
ENDBRANCH  10  22
BRANCH   7  25
HETATM   25  N4  UNL     1      53.307  28.892  16.208  1.00  0.00    -0.234 N 
ATOM     26  H42 UNL     1      53.453  28.872  17.217  1.00  0.00     0.174 HD
ATOM     27  H41 UNL     1      54.071  29.141  15.580  1.00  0.00     0.174 HD
ENDBRANCH   7  25
TORSDOF 7
ENDMDL
MODEL 5
REMARK VINA RESULT: -1.933610650      2.904      6.421
REMARK  7 active torsions:
REMARK  status: ('A' for Active; 'I' for Inactive)
REMARK    1  A    between atoms: C2_2  and  C3_3 
REMARK    2  A    between atoms: C3_3  and  C4_4 
REMARK    3  A    between atoms: C4_4  and  C5_5 
REMARK    4  A    between atoms: C5_5  and  C6_6 
REMARK    5  A    between atoms: C6_6  and  N1_7 
REMARK    6  A    between atoms: C8_13  and  N4_14 
REMARK    7  A    between atoms: C9_19  and  N6_20 
REMARK       I    between atoms: N7_24  and  C11_25 
ROOT
HETATM    1  N1  UNL     1      51.871  23.770  14.977  1.00  0.00    -0.129 NA
HETATM    2  N2  UNL     1      52.744  24.655  15.667  1.00  0.00    -0.284 N 
ATOM      3  H2  UNL     1      53.597  24.427  16.177  1.00  0.00     0.184 HD
HETATM    4  C7  UNL     1      52.140  25.946  15.475  1.00  0.00     0.165 A 
HETATM    5  N3  UNL     1      52.667  27.178  15.502  1.00  0.00    -0.173 N 
ATOM      6  H3  UNL     1      53.660  27.323  15.683  1.00  0.00     0.186 HD
HETATM    7  C8  UNL     1      51.838  28.226  15.279  1.00  0.00     0.679 A 
HETATM    8  N5  UNL     1      50.528  28.019  15.040  1.00  0.00    -0.175 N 
ATOM      9  H5  UNL     1      49.925  28.826  14.875  1.00  0.00     0.186 HD
HETATM   10  C9  UNL     1      49.977  26.773  15.012  1.00  0.00     0.147 A 
HETATM   11  C10 UNL     1      50.805  25.712  15.235  1.00  0.00     0.145 A 
HETATM   12  N7  UNL     1      50.581  24.309  15.278  1.00  0.00    -0.224 N 
HETATM   13  C11 UNL     1      49.382  23.556  15.535  1.00  0.00     0.220 C 
HETATM   14  N8  UNL     1      48.859  22.861  14.374  1.00  0.00    -0.065 NA
HETATM   15  N9  UNL     1      48.428  24.114  16.413  1.00  0.00    -0.065 NA
ENDROOT
BRANCH   1  16
HETATM   16  C6  UNL     1      52.169  23.944  13.571  1.00  0.00     0.139 C 
BRANCH  16  17
HETATM   17  C5  UNL     1      52.266  22.554  12.928  1.00  0.00     0.018 C 
BRANCH  17  18
HETATM   18  C4  UNL     1      52.167  21.498  13.985  1.00  0.00     0.001 C 
BRANCH  18  19
HETATM   19  C3  UNL     1      52.427  20.121  13.464  1.00  0.00    -0.000 C 
BRANCH  19  20
HETATM   20  C2  UNL     1      51.557  19.792  12.274  1.00  0.00    -0.005 C 
HETATM   21  C1  UNL     1      51.219  18.311  12.257  1.00  0.00     0.005 C 
ENDBRANCH  19  20
ENDBRANCH  18  19
ENDBRANCH  17  18
ENDBRANCH  16  17
ENDBRANCH   1  16
BRANCH  10  22
HETATM   22  N6  UNL     1      48.740  26.582  14.773  1.00  0.00    -0.383 N 
ATOM     23  H62 UNL     1      48.092  27.370  14.759  1.00  0.00     0.157 HD
ATOM     24  H61 UNL     1      48.357  25.653  14.600  1.00  0.00     0.157 HD
ENDBRANCH  10  22
BRANCH   7  25
HETATM   25  N4  UNL     1      52.351  29.415  15.305  1.00  0.00    -0.234 N 
ATOM     26  H42 UNL     1      53.118  29.659  15.933  1.00  0.00     0.174 HD
ATOM     27  H41 UNL     1      51.962  30.113  14.671  1.00  0.00     0.174 HD
ENDBRANCH   7  25
TORSDOF 7
ENDMDL
