MODEL 1
REMARK VINA RESULT: -7.163620641      0.000      0.000
REMARK  12 active torsions:
REMARK  status: ('A' for Active; 'I' for Inactive)
REMARK    1  A    between atoms: O1_2  and  C2_3 
REMARK    2  A    between atoms: C2_3  and  C3_4 
REMARK    3  A    between atoms: C3_4  and  O3_6 
REMARK    4  A    between atoms: O3_6  and  C4_7 
REMARK    5  A    between atoms: C6_9  and  N1_10 
REMARK    6  A    between atoms: N1_10  and  N2_12 
REMARK    7  A    between atoms: N2_12  and  N3_13 
REMARK    8  A    between atoms: C7_16  and  O4_17 
REMARK    9  A    between atoms: C8_19  and  O5_20 
REMARK   10  A    between atoms: C9_22  and  O6_23 
REMARK   11  A    between atoms: C11_26  and  O7_27 
REMARK   12  A    between atoms: C13_30  and  O8_31 
ROOT
HETATM    1  C4  UNL     1      16.098  19.927  30.182  1.00  0.00     0.165 C 
HETATM    2  C5  UNL     1      15.333  20.033  28.878  1.00  0.00     0.065 C 
HETATM    3  C6  UNL     1      14.915  21.427  28.548  1.00  0.00     0.148 C 
HETATM    4  C7  UNL     1      15.563  22.476  29.398  1.00  0.00     0.174 C 
HETATM    5  C8  UNL     1      15.561  22.204  30.851  1.00  0.00     0.180 C 
HETATM    6  C9  UNL     1      15.406  20.735  31.206  1.00  0.00     0.179 C 
ENDROOT
BRANCH   1   7
HETATM    7  O3  UNL     1      16.303  18.586  30.439  1.00  0.00    -0.311 OA
BRANCH   7   8
HETATM    8  C3  UNL     1      17.424  17.977  30.912  1.00  0.00     0.297 C 
HETATM    9  O2  UNL     1      18.375  17.937  30.085  1.00  0.00    -0.262 OA
BRANCH   8  10
HETATM   10  C2  UNL     1      17.648  17.382  32.234  1.00  0.00     0.175 C 
HETATM   11  C10 UNL     1      18.345  16.008  32.023  1.00  0.00     0.083 C 
HETATM   12  C11 UNL     1      18.203  15.428  33.412  1.00  0.00     0.124 C 
HETATM   13  C12 UNL     1      16.814  15.804  33.826  1.00  0.00     0.067 C 
HETATM   14  C13 UNL     1      16.385  16.950  32.922  1.00  0.00     0.165 C 
BRANCH  10  15
HETATM   15  O1  UNL     1      18.452  18.093  33.066  1.00  0.00    -0.372 OA
HETATM   16  C1  UNL     1      18.069  19.361  33.383  1.00  0.00     0.203 C 
ENDBRANCH  10  15
BRANCH  12  17
HETATM   17  O7  UNL     1      19.139  16.080  34.217  1.00  0.00    -0.395 OA
ATOM     18  H7  UNL     1      19.531  15.417  34.773  1.00  0.00     0.210 HD
ENDBRANCH  12  17
BRANCH  14  19
HETATM   19  O8  UNL     1      15.408  16.522  32.030  1.00  0.00    -0.392 OA
ATOM     20  H8  UNL     1      14.637  16.180  32.467  1.00  0.00     0.210 HD
ENDBRANCH  14  19
ENDBRANCH   8  10
ENDBRANCH   7   8
ENDBRANCH   1   7
BRANCH   6  21
HETATM   21  O6  UNL     1      14.057  20.488  31.341  1.00  0.00    -0.390 OA
ATOM     22  H6  UNL     1      13.655  20.841  32.126  1.00  0.00     0.210 HD
ENDBRANCH   6  21
BRANCH   3  23
HETATM   23  N1  UNL     1      13.474  21.491  28.551  1.00  0.00    -0.245 N 
ATOM     24  H1  UNL     1      13.042  22.370  28.269  1.00  0.00     0.197 HD
BRANCH  23  25
HETATM   25  N2  UNL     1      12.740  20.585  28.863  1.00  0.00    -0.248 NA
BRANCH  25  26
HETATM   26  N3  UNL     1      11.968  19.739  29.268  1.00  0.00    -0.261 N 
ATOM     27  H32 UNL     1      11.481  20.570  29.607  1.00  0.00     0.193 HD
ATOM     28  H31 UNL     1      11.379  18.961  29.569  1.00  0.00     0.193 HD
ENDBRANCH  25  26
ENDBRANCH  23  25
ENDBRANCH   3  23
BRANCH   5  29
HETATM   29  O5  UNL     1      16.758  22.709  31.386  1.00  0.00    -0.390 OA
ATOM     30  H5  UNL     1      16.603  23.610  31.648  1.00  0.00     0.210 HD
ENDBRANCH   5  29
BRANCH   4  31
HETATM   31  O4  UNL     1      14.905  23.695  29.172  1.00  0.00    -0.391 OA
ATOM     32  H4  UNL     1      15.454  24.396  29.503  1.00  0.00     0.210 HD
ENDBRANCH   4  31
TORSDOF 12
ENDMDL
MODEL 2
REMARK VINA RESULT: -7.086787115      2.290      3.192
REMARK  12 active torsions:
REMARK  status: ('A' for Active; 'I' for Inactive)
REMARK    1  A    between atoms: O1_2  and  C2_3 
REMARK    2  A    between atoms: C2_3  and  C3_4 
REMARK    3  A    between atoms: C3_4  and  O3_6 
REMARK    4  A    between atoms: O3_6  and  C4_7 
REMARK    5  A    between atoms: C6_9  and  N1_10 
REMARK    6  A    between atoms: N1_10  and  N2_12 
REMARK    7  A    between atoms: N2_12  and  N3_13 
REMARK    8  A    between atoms: C7_16  and  O4_17 
REMARK    9  A    between atoms: C8_19  and  O5_20 
REMARK   10  A    between atoms: C9_22  and  O6_23 
REMARK   11  A    between atoms: C11_26  and  O7_27 
REMARK   12  A    between atoms: C13_30  and  O8_31 
ROOT
HETATM    1  C4  UNL     1      13.986  18.820  30.217  1.00  0.00     0.165 C 
HETATM    2  C5  UNL     1      13.482  19.731  31.319  1.00  0.00     0.065 C 
HETATM    3  C6  UNL     1      12.850  20.983  30.809  1.00  0.00     0.148 C 
HETATM    4  C7  UNL     1      12.578  20.974  29.337  1.00  0.00     0.174 C 
HETATM    5  C8  UNL     1      13.695  20.507  28.489  1.00  0.00     0.180 C 
HETATM    6  C9  UNL     1      14.704  19.635  29.218  1.00  0.00     0.179 C 
ENDROOT
BRANCH   1   7
HETATM    7  O3  UNL     1      14.663  17.776  30.816  1.00  0.00    -0.311 OA
BRANCH   7   8
HETATM    8  C3  UNL     1      15.641  16.990  30.289  1.00  0.00     0.297 C 
HETATM    9  O2  UNL     1      15.221  16.123  29.475  1.00  0.00    -0.262 OA
BRANCH   8  10
HETATM   10  C2  UNL     1      17.084  17.032  30.551  1.00  0.00     0.175 C 
HETATM   11  C10 UNL     1      17.813  16.521  29.275  1.00  0.00     0.083 C 
HETATM   12  C11 UNL     1      19.207  16.338  29.828  1.00  0.00     0.124 C 
HETATM   13  C12 UNL     1      18.989  15.730  31.179  1.00  0.00     0.067 C 
HETATM   14  C13 UNL     1      17.544  16.019  31.558  1.00  0.00     0.165 C 
BRANCH  10  15
HETATM   15  O1  UNL     1      17.593  18.264  30.813  1.00  0.00    -0.372 OA
HETATM   16  C1  UNL     1      17.440  18.755  32.074  1.00  0.00     0.203 C 
ENDBRANCH  10  15
BRANCH  12  17
HETATM   17  O7  UNL     1      19.760  17.614  29.957  1.00  0.00    -0.395 OA
ATOM     18  H7  UNL     1      20.657  17.495  30.246  1.00  0.00     0.210 HD
ENDBRANCH  12  17
BRANCH  14  19
HETATM   19  O8  UNL     1      16.793  14.849  31.523  1.00  0.00    -0.392 OA
ATOM     20  H8  UNL     1      15.869  15.002  31.685  1.00  0.00     0.210 HD
ENDBRANCH  14  19
ENDBRANCH   8  10
ENDBRANCH   7   8
ENDBRANCH   1   7
BRANCH   6  21
HETATM   21  O6  UNL     1      15.675  20.471  29.725  1.00  0.00    -0.390 OA
ATOM     22  H6  UNL     1      15.547  21.396  29.551  1.00  0.00     0.210 HD
ENDBRANCH   6  21
BRANCH   3  23
HETATM   23  N1  UNL     1      13.640  22.109  31.243  1.00  0.00    -0.245 N 
ATOM     24  H1  UNL     1      13.690  22.290  32.246  1.00  0.00     0.197 HD
BRANCH  23  25
HETATM   25  N2  UNL     1      14.248  22.854  30.513  1.00  0.00    -0.248 NA
BRANCH  25  26
HETATM   26  N3  UNL     1      14.956  23.548  29.812  1.00  0.00    -0.261 N 
ATOM     27  H32 UNL     1      15.485  23.613  30.683  1.00  0.00     0.193 HD
ATOM     28  H31 UNL     1      15.488  24.114  29.150  1.00  0.00     0.193 HD
ENDBRANCH  25  26
ENDBRANCH  23  25
ENDBRANCH   3  23
BRANCH   5  29
HETATM   29  O5  UNL     1      13.149  19.810  27.399  1.00  0.00    -0.390 OA
ATOM     30  H5  UNL     1      13.867  19.441  26.898  1.00  0.00     0.210 HD
ENDBRANCH   5  29
BRANCH   4  31
HETATM   31  O4  UNL     1      12.234  22.277  28.944  1.00  0.00    -0.391 OA
ATOM     32  H4  UNL     1      13.034  22.746  28.735  1.00  0.00     0.210 HD
ENDBRANCH   4  31
TORSDOF 12
ENDMDL
MODEL 3
REMARK VINA RESULT: -7.080964202      1.378      1.737
REMARK  12 active torsions:
REMARK  status: ('A' for Active; 'I' for Inactive)
REMARK    1  A    between atoms: O1_2  and  C2_3 
REMARK    2  A    between atoms: C2_3  and  C3_4 
REMARK    3  A    between atoms: C3_4  and  O3_6 
REMARK    4  A    between atoms: O3_6  and  C4_7 
REMARK    5  A    between atoms: C6_9  and  N1_10 
REMARK    6  A    between atoms: N1_10  and  N2_12 
REMARK    7  A    between atoms: N2_12  and  N3_13 
REMARK    8  A    between atoms: C7_16  and  O4_17 
REMARK    9  A    between atoms: C8_19  and  O5_20 
REMARK   10  A    between atoms: C9_22  and  O6_23 
REMARK   11  A    between atoms: C11_26  and  O7_27 
REMARK   12  A    between atoms: C13_30  and  O8_31 
ROOT
HETATM    1  C4  UNL     1      16.223  19.907  30.650  1.00  0.00     0.165 C 
HETATM    2  C5  UNL     1      15.696  19.625  29.256  1.00  0.00     0.065 C 
HETATM    3  C6  UNL     1      15.025  20.800  28.628  1.00  0.00     0.148 C 
HETATM    4  C7  UNL     1      15.245  22.090  29.355  1.00  0.00     0.174 C 
HETATM    5  C8  UNL     1      15.053  22.034  30.819  1.00  0.00     0.180 C 
HETATM    6  C9  UNL     1      15.190  20.640  31.409  1.00  0.00     0.179 C 
ENDROOT
BRANCH   1   7
HETATM    7  O3  UNL     1      16.692  18.717  31.168  1.00  0.00    -0.311 OA
BRANCH   7   8
HETATM    8  C3  UNL     1      17.981  18.332  31.371  1.00  0.00     0.297 C 
HETATM    9  O2  UNL     1      18.800  19.289  31.426  1.00  0.00    -0.262 OA
BRANCH   8  10
HETATM   10  C2  UNL     1      18.513  16.973  31.528  1.00  0.00     0.175 C 
HETATM   11  C10 UNL     1      19.534  16.728  30.382  1.00  0.00     0.083 C 
HETATM   12  C11 UNL     1      19.720  15.235  30.514  1.00  0.00     0.124 C 
HETATM   13  C12 UNL     1      18.339  14.714  30.765  1.00  0.00     0.067 C 
HETATM   14  C13 UNL     1      17.508  15.896  31.240  1.00  0.00     0.165 C 
BRANCH  10  15
HETATM   15  O1  UNL     1      19.178  16.738  32.688  1.00  0.00    -0.372 OA
HETATM   16  C1  UNL     1      18.439  16.598  33.823  1.00  0.00     0.203 C 
ENDBRANCH  10  15
BRANCH  12  17
HETATM   17  O7  UNL     1      20.525  15.027  31.636  1.00  0.00    -0.395 OA
ATOM     18  H7  UNL     1      20.798  14.117  31.612  1.00  0.00     0.210 HD
ENDBRANCH  12  17
BRANCH  14  19
HETATM   19  O8  UNL     1      16.591  16.266  30.261  1.00  0.00    -0.392 OA
ATOM     20  H8  UNL     1      17.007  16.503  29.440  1.00  0.00     0.210 HD
ENDBRANCH  14  19
ENDBRANCH   8  10
ENDBRANCH   7   8
ENDBRANCH   1   7
BRANCH   6  21
HETATM   21  O6  UNL     1      13.936  20.069  31.403  1.00  0.00    -0.390 OA
ATOM     22  H6  UNL     1      13.545  19.954  30.545  1.00  0.00     0.210 HD
ENDBRANCH   6  21
BRANCH   3  23
HETATM   23  N1  UNL     1      13.633  20.483  28.425  1.00  0.00    -0.245 N 
ATOM     24  H1  UNL     1      13.409  19.768  27.733  1.00  0.00     0.197 HD
BRANCH  23  25
HETATM   25  N2  UNL     1      12.711  20.997  29.011  1.00  0.00    -0.248 NA
BRANCH  25  26
HETATM   26  N3  UNL     1      11.725  21.413  29.587  1.00  0.00    -0.261 N 
ATOM     27  H32 UNL     1      11.720  22.048  28.788  1.00  0.00     0.193 HD
ATOM     28  H31 UNL     1      10.915  21.694  30.140  1.00  0.00     0.193 HD
ENDBRANCH  25  26
ENDBRANCH  23  25
ENDBRANCH   3  23
BRANCH   5  29
HETATM   29  O5  UNL     1      15.982  22.905  31.411  1.00  0.00    -0.390 OA
ATOM     30  H5  UNL     1      15.621  23.197  32.241  1.00  0.00     0.210 HD
ENDBRANCH   5  29
BRANCH   4  31
HETATM   31  O4  UNL     1      14.368  23.050  28.826  1.00  0.00    -0.391 OA
ATOM     32  H4  UNL     1      13.534  22.970  29.275  1.00  0.00     0.210 HD
ENDBRANCH   4  31
TORSDOF 12
ENDMDL
MODEL 4
REMARK VINA RESULT: -7.075818330      1.850      2.093
REMARK  12 active torsions:
REMARK  status: ('A' for Active; 'I' for Inactive)
REMARK    1  A    between atoms: O1_2  and  C2_3 
REMARK    2  A    between atoms: C2_3  and  C3_4 
REMARK    3  A    between atoms: C3_4  and  O3_6 
REMARK    4  A    between atoms: O3_6  and  C4_7 
REMARK    5  A    between atoms: C6_9  and  N1_10 
REMARK    6  A    between atoms: N1_10  and  N2_12 
REMARK    7  A    between atoms: N2_12  and  N3_13 
REMARK    8  A    between atoms: C7_16  and  O4_17 
REMARK    9  A    between atoms: C8_19  and  O5_20 
REMARK   10  A    between atoms: C9_22  and  O6_23 
REMARK   11  A    between atoms: C11_26  and  O7_27 
REMARK   12  A    between atoms: C13_30  and  O8_31 
ROOT
HETATM    1  C4  UNL     1      16.534  19.025  30.561  1.00  0.00     0.165 C 
HETATM    2  C5  UNL     1      15.348  19.766  29.977  1.00  0.00     0.065 C 
HETATM    3  C6  UNL     1      15.318  21.214  30.338  1.00  0.00     0.148 C 
HETATM    4  C7  UNL     1      16.588  21.716  30.954  1.00  0.00     0.174 C 
HETATM    5  C8  UNL     1      17.151  20.867  32.025  1.00  0.00     0.180 C 
HETATM    6  C9  UNL     1      16.693  19.419  31.975  1.00  0.00     0.179 C 
ENDROOT
BRANCH   1   7
HETATM    7  O3  UNL     1      16.372  17.684  30.273  1.00  0.00    -0.311 OA
BRANCH   7   8
HETATM    8  C3  UNL     1      17.311  16.699  30.275  1.00  0.00     0.297 C 
HETATM    9  O2  UNL     1      17.818  16.470  29.143  1.00  0.00    -0.262 OA
BRANCH   8  10
HETATM   10  C2  UNL     1      17.787  15.897  31.408  1.00  0.00     0.175 C 
HETATM   11  C10 UNL     1      17.656  14.398  31.016  1.00  0.00     0.083 C 
HETATM   12  C11 UNL     1      17.877  13.756  32.366  1.00  0.00     0.124 C 
HETATM   13  C12 UNL     1      17.107  14.623  33.314  1.00  0.00     0.067 C 
HETATM   14  C13 UNL     1      16.884  15.951  32.606  1.00  0.00     0.165 C 
BRANCH  10  15
HETATM   15  O1  UNL     1      19.087  16.089  31.753  1.00  0.00    -0.372 OA
HETATM   16  C1  UNL     1      19.530  17.373  31.854  1.00  0.00     0.203 C 
ENDBRANCH  10  15
BRANCH  12  17
HETATM   17  O7  UNL     1      19.244  13.842  32.634  1.00  0.00    -0.395 OA
ATOM     18  H7  UNL     1      19.692  13.421  31.909  1.00  0.00     0.210 HD
ENDBRANCH  12  17
BRANCH  14  19
HETATM   19  O8  UNL     1      15.544  16.094  32.261  1.00  0.00    -0.392 OA
ATOM     20  H8  UNL     1      15.017  15.346  32.518  1.00  0.00     0.210 HD
ENDBRANCH  14  19
ENDBRANCH   8  10
ENDBRANCH   7   8
ENDBRANCH   1   7
BRANCH   6  21
HETATM   21  O6  UNL     1      15.555  19.325  32.746  1.00  0.00    -0.390 OA
ATOM     22  H6  UNL     1      15.164  20.152  32.999  1.00  0.00     0.210 HD
ENDBRANCH   6  21
BRANCH   3  23
HETATM   23  N1  UNL     1      14.149  21.465  31.144  1.00  0.00    -0.245 N 
ATOM     24  H1  UNL     1      13.955  22.433  31.402  1.00  0.00     0.197 HD
BRANCH  23  25
HETATM   25  N2  UNL     1      13.381  20.621  31.536  1.00  0.00    -0.248 NA
BRANCH  25  26
HETATM   26  N3  UNL     1      12.602  19.831  32.032  1.00  0.00    -0.261 N 
ATOM     27  H32 UNL     1      13.475  19.353  32.257  1.00  0.00     0.193 HD
ATOM     28  H31 UNL     1      11.875  19.227  32.418  1.00  0.00     0.193 HD
ENDBRANCH  25  26
ENDBRANCH  23  25
ENDBRANCH   3  23
BRANCH   5  29
HETATM   29  O5  UNL     1      18.552  20.936  31.940  1.00  0.00    -0.390 OA
ATOM     30  H5  UNL     1      18.845  20.239  31.365  1.00  0.00     0.210 HD
ENDBRANCH   5  29
BRANCH   4  31
HETATM   31  O4  UNL     1      16.348  22.996  31.478  1.00  0.00    -0.391 OA
ATOM     32  H4  UNL     1      16.725  23.636  30.886  1.00  0.00     0.210 HD
ENDBRANCH   4  31
TORSDOF 12
ENDMDL
MODEL 5
REMARK VINA RESULT: -7.057491671      1.653      2.499
REMARK  12 active torsions:
REMARK  status: ('A' for Active; 'I' for Inactive)
REMARK    1  A    between atoms: O1_2  and  C2_3 
REMARK    2  A    between atoms: C2_3  and  C3_4 
REMARK    3  A    between atoms: C3_4  and  O3_6 
REMARK    4  A    between atoms: O3_6  and  C4_7 
REMARK    5  A    between atoms: C6_9  and  N1_10 
REMARK    6  A    between atoms: N1_10  and  N2_12 
REMARK    7  A    between atoms: N2_12  and  N3_13 
REMARK    8  A    between atoms: C7_16  and  O4_17 
REMARK    9  A    between atoms: C8_19  and  O5_20 
REMARK   10  A    between atoms: C9_22  and  O6_23 
REMARK   11  A    between atoms: C11_26  and  O7_27 
REMARK   12  A    between atoms: C13_30  and  O8_31 
ROOT
HETATM    1  C4  UNL     1      15.456  19.922  30.810  1.00  0.00     0.165 C 
HETATM    2  C5  UNL     1      15.232  21.413  30.966  1.00  0.00     0.065 C 
HETATM    3  C6  UNL     1      13.792  21.804  30.912  1.00  0.00     0.148 C 
HETATM    4  C7  UNL     1      12.842  20.650  31.004  1.00  0.00     0.174 C 
HETATM    5  C8  UNL     1      13.158  19.499  30.133  1.00  0.00     0.180 C 
HETATM    6  C9  UNL     1      14.614  19.427  29.704  1.00  0.00     0.179 C 
ENDROOT
BRANCH   1   7
HETATM    7  O3  UNL     1      16.818  19.709  30.739  1.00  0.00    -0.311 OA
BRANCH   7   8
HETATM    8  C3  UNL     1      17.507  18.557  30.959  1.00  0.00     0.297 C 
HETATM    9  O2  UNL     1      18.023  18.061  29.920  1.00  0.00    -0.262 OA
BRANCH   8  10
HETATM   10  C2  UNL     1      17.713  17.846  32.226  1.00  0.00     0.175 C 
HETATM   11  C10 UNL     1      18.537  16.563  31.920  1.00  0.00     0.083 C 
HETATM   12  C11 UNL     1      18.375  15.831  33.233  1.00  0.00     0.124 C 
HETATM   13  C12 UNL     1      16.939  16.046  33.597  1.00  0.00     0.067 C 
HETATM   14  C13 UNL     1      16.459  17.243  32.789  1.00  0.00     0.165 C 
BRANCH  10  15
HETATM   15  O1  UNL     1      18.408  18.529  33.172  1.00  0.00    -0.372 OA
HETATM   16  C1  UNL     1      17.870  19.691  33.634  1.00  0.00     0.203 C 
ENDBRANCH  10  15
BRANCH  12  17
HETATM   17  O7  UNL     1      19.208  16.469  34.155  1.00  0.00    -0.395 OA
ATOM     18  H7  UNL     1      20.098  16.209  33.945  1.00  0.00     0.210 HD
ENDBRANCH  12  17
BRANCH  14  19
HETATM   19  O8  UNL     1      15.570  16.833  31.800  1.00  0.00    -0.392 OA
ATOM     20  H8  UNL     1      14.784  16.434  32.157  1.00  0.00     0.210 HD
ENDBRANCH  14  19
ENDBRANCH   8  10
ENDBRANCH   7   8
ENDBRANCH   1   7
BRANCH   6  21
HETATM   21  O6  UNL     1      14.725  20.123  28.520  1.00  0.00    -0.390 OA
ATOM     22  H6  UNL     1      14.420  21.021  28.545  1.00  0.00     0.210 HD
ENDBRANCH   6  21
BRANCH   3  23
HETATM   23  N1  UNL     1      13.582  22.633  29.752  1.00  0.00    -0.245 N 
ATOM     24  H1  UNL     1      12.626  22.930  29.553  1.00  0.00     0.197 HD
BRANCH  23  25
HETATM   25  N2  UNL     1      14.447  23.004  28.997  1.00  0.00    -0.248 NA
BRANCH  25  26
HETATM   26  N3  UNL     1      15.263  23.317  28.153  1.00  0.00    -0.261 N 
ATOM     27  H32 UNL     1      15.735  22.495  28.530  1.00  0.00     0.193 HD
ATOM     28  H31 UNL     1      15.889  23.656  27.421  1.00  0.00     0.193 HD
ENDBRANCH  25  26
ENDBRANCH  23  25
ENDBRANCH   3  23
BRANCH   5  29
HETATM   29  O5  UNL     1      12.795  18.327  30.816  1.00  0.00    -0.390 OA
ATOM     30  H5  UNL     1      12.599  18.561  31.716  1.00  0.00     0.210 HD
ENDBRANCH   5  29
BRANCH   4  31
HETATM   31  O4  UNL     1      11.555  21.112  30.685  1.00  0.00    -0.391 OA
ATOM     32  H4  UNL     1      11.028  21.095  31.475  1.00  0.00     0.210 HD
ENDBRANCH   4  31
TORSDOF 12
ENDMDL
