MODEL 1
REMARK VINA RESULT: -7.238475824      0.000      0.000
REMARK  9 active torsions:
REMARK  status: ('A' for Active; 'I' for Inactive)
REMARK    1  A    between atoms: C3_3  and  O1_4 
REMARK    2  A    between atoms: C4_6  and  O2_7 
REMARK    3  A    between atoms: C7_12  and  O4_13 
REMARK    4  A    between atoms: C9_15  and  O5_16 
REMARK    5  A    between atoms: C11_18  and  C12_19 
REMARK    6  A    between atoms: C12_19  and  O6_21 
REMARK    7  A    between atoms: C14_23  and  O7_24 
REMARK    8  A    between atoms: C15_26  and  O8_27 
REMARK    9  A    between atoms: O8_27  and  O9_28 
ROOT
HETATM    1  C1  UNL     1      18.158  15.130  32.934  1.00  0.00     0.020 C 
HETATM    2  C2  UNL     1      17.963  16.179  32.154  1.00  0.00    -0.018 C 
HETATM    3  C3  UNL     1      19.221  16.705  31.538  1.00  0.00     0.204 C 
HETATM    4  C4  UNL     1      19.318  18.143  32.079  1.00  0.00     0.291 C 
HETATM    5  O3  UNL     1      18.344  18.818  31.403  1.00  0.00    -0.342 OA
HETATM    6  C5  UNL     1      17.207  19.114  32.101  1.00  0.00     0.130 C 
HETATM    7  C6  UNL     1      17.522  20.226  33.091  1.00  0.00     0.052 C 
HETATM    8  C7  UNL     1      16.145  19.591  31.140  1.00  0.00     0.197 C 
HETATM    9  C9  UNL     1      15.397  18.247  31.430  1.00  0.00     0.139 C 
HETATM   10  C11 UNL     1      16.099  17.131  30.700  1.00  0.00     0.097 C 
HETATM   11  C14 UNL     1      16.584  16.651  32.014  1.00  0.00     0.132 C 
HETATM   12  C15 UNL     1      16.332  18.042  32.554  1.00  0.00     0.198 C 
ENDROOT
BRANCH  10  13
HETATM   13  C12 UNL     1      15.153  16.215  29.975  1.00  0.00     0.124 C 
HETATM   14  C13 UNL     1      15.930  15.120  29.232  1.00  0.00     0.040 C 
BRANCH  13  15
HETATM   15  O6  UNL     1      14.480  16.898  28.951  1.00  0.00    -0.395 OA
ATOM     16  H6  UNL     1      13.784  16.364  28.586  1.00  0.00     0.210 HD
ENDBRANCH  13  15
ENDBRANCH  10  13
BRANCH   9  17
HETATM   17  O5  UNL     1      14.154  18.473  31.486  1.00  0.00    -0.378 OA
HETATM   18  C10 UNL     1      13.017  17.939  31.708  1.00  0.00     0.202 C 
ENDBRANCH   9  17
BRANCH  11  19
HETATM   19  O7  UNL     1      15.678  15.748  32.573  1.00  0.00    -0.381 OA
ATOM     20  H7  UNL     1      16.081  14.900  32.721  1.00  0.00     0.211 HD
ENDBRANCH  11  19
BRANCH   8  21
HETATM   21  O4  UNL     1      15.427  20.693  31.486  1.00  0.00    -0.384 OA
HETATM   22  C8  UNL     1      15.412  21.584  30.416  1.00  0.00     0.202 C 
ENDBRANCH   8  21
BRANCH  12  23
HETATM   23  O8  UNL     1      15.937  17.948  33.836  1.00  0.00    -0.222 OA
BRANCH  23  24
HETATM   24  O9  UNL     1      14.810  18.366  34.225  1.00  0.00    -0.249 OA
ATOM     25  H9  UNL     1      14.702  19.208  34.653  1.00  0.00     0.253 HD
ENDBRANCH  23  24
ENDBRANCH  12  23
BRANCH   3  26
HETATM   26  O1  UNL     1      20.326  15.968  31.878  1.00  0.00    -0.386 OA
ATOM     27  H1  UNL     1      21.139  16.381  31.610  1.00  0.00     0.210 HD
ENDBRANCH   3  26
BRANCH   4  28
HETATM   28  O2  UNL     1      20.599  18.650  31.865  1.00  0.00    -0.368 OA
ATOM     29  H2  UNL     1      20.551  19.464  31.378  1.00  0.00     0.212 HD
ENDBRANCH   4  28
TORSDOF 9
ENDMDL
MODEL 2
REMARK VINA RESULT: -6.811337925      1.616      4.396
REMARK  9 active torsions:
REMARK  status: ('A' for Active; 'I' for Inactive)
REMARK    1  A    between atoms: C3_3  and  O1_4 
REMARK    2  A    between atoms: C4_6  and  O2_7 
REMARK    3  A    between atoms: C7_12  and  O4_13 
REMARK    4  A    between atoms: C9_15  and  O5_16 
REMARK    5  A    between atoms: C11_18  and  C12_19 
REMARK    6  A    between atoms: C12_19  and  O6_21 
REMARK    7  A    between atoms: C14_23  and  O7_24 
REMARK    8  A    between atoms: C15_26  and  O8_27 
REMARK    9  A    between atoms: O8_27  and  O9_28 
ROOT
HETATM    1  C1  UNL     1      15.827  21.151  29.474  1.00  0.00     0.020 C 
HETATM    2  C2  UNL     1      16.042  20.417  30.553  1.00  0.00    -0.018 C 
HETATM    3  C3  UNL     1      16.612  21.195  31.697  1.00  0.00     0.204 C 
HETATM    4  C4  UNL     1      17.971  20.519  31.956  1.00  0.00     0.291 C 
HETATM    5  O3  UNL     1      17.643  19.327  32.532  1.00  0.00    -0.342 OA
HETATM    6  C5  UNL     1      17.750  18.215  31.744  1.00  0.00     0.130 C 
HETATM    7  C6  UNL     1      19.226  17.902  31.546  1.00  0.00     0.052 C 
HETATM    8  C7  UNL     1      17.084  17.051  32.437  1.00  0.00     0.197 C 
HETATM    9  C9  UNL     1      15.976  17.136  31.335  1.00  0.00     0.139 C 
HETATM   10  C11 UNL     1      15.085  18.315  31.630  1.00  0.00     0.097 C 
HETATM   11  C14 UNL     1      15.696  18.998  30.466  1.00  0.00     0.132 C 
HETATM   12  C15 UNL     1      16.870  18.051  30.597  1.00  0.00     0.198 C 
ENDROOT
BRANCH  10  13
HETATM   13  C12 UNL     1      13.622  17.994  31.509  1.00  0.00     0.124 C 
HETATM   14  C13 UNL     1      12.771  19.220  31.861  1.00  0.00     0.040 C 
BRANCH  13  15
HETATM   15  O6  UNL     1      13.238  17.037  32.460  1.00  0.00    -0.395 OA
ATOM     16  H6  UNL     1      12.560  16.468  32.116  1.00  0.00     0.210 HD
ENDBRANCH  13  15
ENDBRANCH  10  13
BRANCH   9  17
HETATM   17  O5  UNL     1      15.626  15.965  31.013  1.00  0.00    -0.378 OA
HETATM   18  C10 UNL     1      15.036  15.273  30.118  1.00  0.00     0.202 C 
ENDBRANCH   9  17
BRANCH  11  19
HETATM   19  O7  UNL     1      14.981  18.719  29.301  1.00  0.00    -0.381 OA
ATOM     20  H7  UNL     1      15.445  18.099  28.749  1.00  0.00     0.211 HD
ENDBRANCH  11  19
BRANCH   8  21
HETATM   21  O4  UNL     1      17.742  15.861  32.448  1.00  0.00    -0.384 OA
HETATM   22  C8  UNL     1      17.787  15.374  33.753  1.00  0.00     0.202 C 
ENDBRANCH   8  21
BRANCH  12  23
HETATM   23  O8  UNL     1      17.352  17.782  29.371  1.00  0.00    -0.222 OA
BRANCH  23  24
HETATM   24  O9  UNL     1      17.833  16.653  29.069  1.00  0.00    -0.249 OA
ATOM     25  H9  UNL     1      18.731  16.416  29.267  1.00  0.00     0.253 HD
ENDBRANCH  23  24
ENDBRANCH  12  23
BRANCH   3  26
HETATM   26  O1  UNL     1      16.765  22.527  31.409  1.00  0.00    -0.386 OA
ATOM     27  H1  UNL     1      17.472  22.692  30.795  1.00  0.00     0.210 HD
ENDBRANCH   3  26
BRANCH   4  28
HETATM   28  O2  UNL     1      18.764  21.330  32.765  1.00  0.00    -0.368 OA
ATOM     29  H2  UNL     1      19.107  20.829  33.495  1.00  0.00     0.212 HD
ENDBRANCH   4  28
TORSDOF 9
ENDMDL
MODEL 3
REMARK VINA RESULT: -6.630838459      1.911      3.250
REMARK  9 active torsions:
REMARK  status: ('A' for Active; 'I' for Inactive)
REMARK    1  A    between atoms: C3_3  and  O1_4 
REMARK    2  A    between atoms: C4_6  and  O2_7 
REMARK    3  A    between atoms: C7_12  and  O4_13 
REMARK    4  A    between atoms: C9_15  and  O5_16 
REMARK    5  A    between atoms: C11_18  and  C12_19 
REMARK    6  A    between atoms: C12_19  and  O6_21 
REMARK    7  A    between atoms: C14_23  and  O7_24 
REMARK    8  A    between atoms: C15_26  and  O8_27 
REMARK    9  A    between atoms: O8_27  and  O9_28 
ROOT
HETATM    1  C1  UNL     1      17.958  19.191  33.744  1.00  0.00     0.020 C 
HETATM    2  C2  UNL     1      17.545  19.370  32.501  1.00  0.00    -0.018 C 
HETATM    3  C3  UNL     1      18.005  20.660  31.901  1.00  0.00     0.204 C 
HETATM    4  C4  UNL     1      16.695  21.404  31.585  1.00  0.00     0.291 C 
HETATM    5  O3  UNL     1      16.185  20.734  30.512  1.00  0.00    -0.342 OA
HETATM    6  C5  UNL     1      15.126  19.904  30.754  1.00  0.00     0.130 C 
HETATM    7  C6  UNL     1      13.893  20.755  31.018  1.00  0.00     0.052 C 
HETATM    8  C7  UNL     1      14.883  19.043  29.537  1.00  0.00     0.197 C 
HETATM    9  C9  UNL     1      15.405  17.838  30.390  1.00  0.00     0.139 C 
HETATM   10  C11 UNL     1      16.906  17.930  30.498  1.00  0.00     0.097 C 
HETATM   11  C14 UNL     1      16.725  18.306  31.919  1.00  0.00     0.132 C 
HETATM   12  C15 UNL     1      15.309  18.715  31.574  1.00  0.00     0.198 C 
ENDROOT
BRANCH  10  13
HETATM   13  C12 UNL     1      17.597  16.620  30.248  1.00  0.00     0.124 C 
HETATM   14  C13 UNL     1      19.120  16.803  30.265  1.00  0.00     0.040 C 
BRANCH  13  15
HETATM   15  O6  UNL     1      17.332  16.152  28.952  1.00  0.00    -0.395 OA
ATOM     16  H6  UNL     1      18.127  15.845  28.532  1.00  0.00     0.210 HD
ENDBRANCH  13  15
ENDBRANCH  10  13
BRANCH   9  17
HETATM   17  O5  UNL     1      14.711  16.816  30.122  1.00  0.00    -0.378 OA
HETATM   18  C10 UNL     1      14.508  15.595  30.436  1.00  0.00     0.202 C 
ENDBRANCH   9  17
BRANCH  11  19
HETATM   19  O7  UNL     1      16.712  17.171  32.730  1.00  0.00    -0.381 OA
ATOM     20  H7  UNL     1      15.971  17.177  33.324  1.00  0.00     0.211 HD
ENDBRANCH  11  19
BRANCH   8  21
HETATM   21  O4  UNL     1      13.599  18.889  29.117  1.00  0.00    -0.384 OA
HETATM   22  C8  UNL     1      13.449  19.498  27.873  1.00  0.00     0.202 C 
ENDBRANCH   8  21
BRANCH  12  23
HETATM   23  O8  UNL     1      14.511  18.453  32.623  1.00  0.00    -0.222 OA
BRANCH  23  24
HETATM   24  O9  UNL     1      13.495  17.706  32.528  1.00  0.00    -0.249 OA
ATOM     25  H9  UNL     1      13.516  16.789  32.777  1.00  0.00     0.253 HD
ENDBRANCH  23  24
ENDBRANCH  12  23
BRANCH   3  26
HETATM   26  O1  UNL     1      18.798  21.387  32.751  1.00  0.00    -0.386 OA
ATOM     27  H1  UNL     1      18.617  21.208  33.667  1.00  0.00     0.210 HD
ENDBRANCH   3  26
BRANCH   4  28
HETATM   28  O2  UNL     1      16.955  22.749  31.331  1.00  0.00    -0.368 OA
ATOM     29  H2  UNL     1      16.980  22.906  30.395  1.00  0.00     0.212 HD
ENDBRANCH   4  28
TORSDOF 9
ENDMDL
MODEL 4
REMARK VINA RESULT: -6.615237991      1.630      4.559
REMARK  9 active torsions:
REMARK  status: ('A' for Active; 'I' for Inactive)
REMARK    1  A    between atoms: C3_3  and  O1_4 
REMARK    2  A    between atoms: C4_6  and  O2_7 
REMARK    3  A    between atoms: C7_12  and  O4_13 
REMARK    4  A    between atoms: C9_15  and  O5_16 
REMARK    5  A    between atoms: C11_18  and  C12_19 
REMARK    6  A    between atoms: C12_19  and  O6_21 
REMARK    7  A    between atoms: C14_23  and  O7_24 
REMARK    8  A    between atoms: C15_26  and  O8_27 
REMARK    9  A    between atoms: O8_27  and  O9_28 
ROOT
HETATM    1  C1  UNL     1      14.850  15.802  30.313  1.00  0.00     0.020 C 
HETATM    2  C2  UNL     1      15.166  16.532  31.369  1.00  0.00    -0.018 C 
HETATM    3  C3  UNL     1      13.990  16.879  32.226  1.00  0.00     0.204 C 
HETATM    4  C4  UNL     1      13.949  18.417  32.184  1.00  0.00     0.291 C 
HETATM    5  O3  UNL     1      15.009  18.798  32.955  1.00  0.00    -0.342 OA
HETATM    6  C5  UNL     1      16.113  19.259  32.293  1.00  0.00     0.130 C 
HETATM    7  C6  UNL     1      15.803  20.644  31.743  1.00  0.00     0.052 C 
HETATM    8  C7  UNL     1      17.266  19.357  33.262  1.00  0.00     0.197 C 
HETATM    9  C9  UNL     1      17.904  18.151  32.494  1.00  0.00     0.139 C 
HETATM   10  C11 UNL     1      17.183  16.887  32.886  1.00  0.00     0.097 C 
HETATM   11  C14 UNL     1      16.579  16.878  31.534  1.00  0.00     0.132 C 
HETATM   12  C15 UNL     1      16.883  18.358  31.448  1.00  0.00     0.198 C 
ENDROOT
BRANCH  10  13
HETATM   13  C12 UNL     1      18.114  15.749  33.197  1.00  0.00     0.124 C 
HETATM   14  C13 UNL     1      17.341  14.575  33.811  1.00  0.00     0.040 C 
BRANCH  13  15
HETATM   15  O6  UNL     1      19.027  16.107  34.200  1.00  0.00    -0.395 OA
ATOM     16  H6  UNL     1      19.033  15.465  34.900  1.00  0.00     0.210 HD
ENDBRANCH  13  15
ENDBRANCH  10  13
BRANCH   9  17
HETATM   17  O5  UNL     1      19.152  18.333  32.408  1.00  0.00    -0.378 OA
HETATM   18  C10 UNL     1      20.140  18.346  31.600  1.00  0.00     0.202 C 
ENDBRANCH   9  17
BRANCH  11  19
HETATM   19  O7  UNL     1      17.384  16.170  30.640  1.00  0.00    -0.381 OA
ATOM     20  H7  UNL     1      16.867  15.590  30.093  1.00  0.00     0.211 HD
ENDBRANCH  11  19
BRANCH   8  21
HETATM   21  O4  UNL     1      18.029  20.482  33.227  1.00  0.00    -0.384 OA
HETATM   22  C8  UNL     1      18.711  20.611  34.435  1.00  0.00     0.202 C 
ENDBRANCH   8  21
BRANCH  12  23
HETATM   23  O8  UNL     1      17.183  18.670  30.175  1.00  0.00    -0.222 OA
BRANCH  23  24
HETATM   24  O9  UNL     1      16.295  18.783  29.282  1.00  0.00    -0.249 OA
ATOM     25  H9  UNL     1      16.491  19.114  28.413  1.00  0.00     0.253 HD
ENDBRANCH  23  24
ENDBRANCH  12  23
BRANCH   3  26
HETATM   26  O1  UNL     1      12.818  16.337  31.763  1.00  0.00    -0.386 OA
ATOM     27  H1  UNL     1      12.538  15.582  32.268  1.00  0.00     0.210 HD
ENDBRANCH   3  26
BRANCH   4  28
HETATM   28  O2  UNL     1      12.722  18.879  32.657  1.00  0.00    -0.368 OA
ATOM     29  H2  UNL     1      12.578  19.773  32.374  1.00  0.00     0.212 HD
ENDBRANCH   4  28
TORSDOF 9
ENDMDL
MODEL 5
REMARK VINA RESULT: -6.471283809      1.818      4.338
REMARK  9 active torsions:
REMARK  status: ('A' for Active; 'I' for Inactive)
REMARK    1  A    between atoms: C3_3  and  O1_4 
REMARK    2  A    between atoms: C4_6  and  O2_7 
REMARK    3  A    between atoms: C7_12  and  O4_13 
REMARK    4  A    between atoms: C9_15  and  O5_16 
REMARK    5  A    between atoms: C11_18  and  C12_19 
REMARK    6  A    between atoms: C12_19  and  O6_21 
REMARK    7  A    between atoms: C14_23  and  O7_24 
REMARK    8  A    between atoms: C15_26  and  O8_27 
REMARK    9  A    between atoms: O8_27  and  O9_28 
ROOT
HETATM    1  C1  UNL     1      18.126  17.355  29.167  1.00  0.00     0.020 C 
HETATM    2  C2  UNL     1      18.168  17.068  30.457  1.00  0.00    -0.018 C 
HETATM    3  C3  UNL     1      19.553  16.827  30.967  1.00  0.00     0.204 C 
HETATM    4  C4  UNL     1      19.506  15.373  31.473  1.00  0.00     0.291 C 
HETATM    5  O3  UNL     1      18.769  15.445  32.618  1.00  0.00    -0.342 OA
HETATM    6  C5  UNL     1      17.483  14.985  32.549  1.00  0.00     0.130 C 
HETATM    7  C6  UNL     1      17.516  13.466  32.468  1.00  0.00     0.052 C 
HETATM    8  C7  UNL     1      16.741  15.400  33.796  1.00  0.00     0.197 C 
HETATM    9  C9  UNL     1      15.929  16.381  32.885  1.00  0.00     0.139 C 
HETATM   10  C11 UNL     1      16.799  17.565  32.548  1.00  0.00     0.097 C 
HETATM   11  C14 UNL     1      16.889  17.035  31.168  1.00  0.00     0.132 C 
HETATM   12  C15 UNL     1      16.507  15.679  31.721  1.00  0.00     0.198 C 
ENDROOT
BRANCH  10  13
HETATM   13  C12 UNL     1      16.089  18.880  32.701  1.00  0.00     0.124 C 
HETATM   14  C13 UNL     1      17.071  20.045  32.519  1.00  0.00     0.040 C 
BRANCH  13  15
HETATM   15  O6  UNL     1      15.616  19.046  34.011  1.00  0.00    -0.395 OA
ATOM     16  H6  UNL     1      15.221  18.244  34.334  1.00  0.00     0.210 HD
ENDBRANCH  13  15
ENDBRANCH  10  13
BRANCH   9  17
HETATM   17  O5  UNL     1      14.724  16.391  33.265  1.00  0.00    -0.378 OA
HETATM   18  C10 UNL     1      13.533  16.688  32.914  1.00  0.00     0.202 C 
ENDBRANCH   9  17
BRANCH  11  19
HETATM   19  O7  UNL     1      15.854  17.540  30.378  1.00  0.00    -0.381 OA
ATOM     20  H7  UNL     1      15.745  17.031  29.584  1.00  0.00     0.211 HD
ENDBRANCH  11  19
BRANCH   8  21
HETATM   21  O4  UNL     1      15.964  14.467  34.409  1.00  0.00    -0.384 OA
HETATM   22  C8  UNL     1      16.105  14.591  35.789  1.00  0.00     0.202 C 
ENDBRANCH   8  21
BRANCH  12  23
HETATM   23  O8  UNL     1      15.766  15.028  30.809  1.00  0.00    -0.222 OA
BRANCH  23  24
HETATM   24  O9  UNL     1      16.263  14.560  29.745  1.00  0.00    -0.249 OA
ATOM     25  H9  UNL     1      16.260  15.046  28.929  1.00  0.00     0.253 HD
ENDBRANCH  23  24
ENDBRANCH  12  23
BRANCH   3  26
HETATM   26  O1  UNL     1      20.511  16.987  29.999  1.00  0.00    -0.386 OA
ATOM     27  H1  UNL     1      21.385  16.778  30.308  1.00  0.00     0.210 HD
ENDBRANCH   3  26
BRANCH   4  28
HETATM   28  O2  UNL     1      20.799  14.892  31.671  1.00  0.00    -0.368 OA
ATOM     29  H2  UNL     1      21.230  14.758  30.836  1.00  0.00     0.212 HD
ENDBRANCH   4  28
TORSDOF 9
ENDMDL
