MODEL 1
REMARK VINA RESULT: -8.091025987      0.000      0.000
REMARK  9 active torsions:
REMARK  status: ('A' for Active; 'I' for Inactive)
REMARK    1  A    between atoms: O1_2  and  C2_3 
REMARK    2  A    between atoms: C5_6  and  O2_7 
REMARK    3  A    between atoms: C8_11  and  O3_12 
REMARK    4  A    between atoms: C9_14  and  O4_15 
REMARK    5  A    between atoms: C10_17  and  O5_18 
REMARK    6  A    between atoms: C10_17  and  C11_20 
REMARK    7  A    between atoms: C11_20  and  C12_21 
REMARK    8  A    between atoms: C13_24  and  O8_25 
REMARK    9  A    between atoms: O8_25  and  C14_26 
ROOT
HETATM    1  C2  UNL     1      14.880  21.206  31.009  1.00  0.00     0.111 A 
HETATM    2  C3  UNL     1      14.285  20.005  30.874  1.00  0.00     0.008 A 
HETATM    3  C4  UNL     1      12.827  19.966  30.488  1.00  0.00     0.054 C 
HETATM    4  C5  UNL     1      14.991  18.812  31.082  1.00  0.00     0.088 A 
HETATM    5  C6  UNL     1      16.345  18.854  31.440  1.00  0.00     0.047 A 
HETATM    6  C7  UNL     1      16.980  20.093  31.585  1.00  0.00     0.048 A 
HETATM    7  C8  UNL     1      16.228  21.234  31.364  1.00  0.00     0.113 A 
HETATM    8  C9  UNL     1      18.227  19.926  31.939  1.00  0.00     0.099 C 
HETATM    9  C10 UNL     1      18.493  18.471  32.049  1.00  0.00     0.166 C 
HETATM   10  C13 UNL     1      17.165  17.883  31.792  1.00  0.00     0.112 C 
ENDROOT
BRANCH   9  11
HETATM   11  O5  UNL     1      19.024  18.110  33.263  1.00  0.00    -0.375 OA
ATOM     12  H5  UNL     1      18.756  17.243  33.544  1.00  0.00     0.211 HD
ENDBRANCH   9  11
BRANCH   9  13
HETATM   13  C11 UNL     1      19.395  18.094  30.886  1.00  0.00     0.165 C 
BRANCH  13  14
HETATM   14  C12 UNL     1      19.789  16.707  30.776  1.00  0.00     0.176 C 
HETATM   15  O6  UNL     1      20.204  16.042  31.730  1.00  0.00    -0.648 OA
HETATM   16  O7  UNL     1      19.695  16.099  29.532  1.00  0.00    -0.648 OA
ENDBRANCH  13  14
ENDBRANCH   9  13
BRANCH   8  17
HETATM   17  O4  UNL     1      19.171  20.948  32.177  1.00  0.00    -0.360 OA
ATOM     18  H4  UNL     1      19.298  21.417  32.993  1.00  0.00     0.217 HD
ENDBRANCH   8  17
BRANCH  10  19
HETATM   19  O8  UNL     1      16.802  16.530  31.905  1.00  0.00    -0.279 OA
BRANCH  19  20
HETATM   20  C14 UNL     1      16.593  16.058  33.212  1.00  0.00     0.259 C 
HETATM   21  C15 UNL     1      15.273  16.184  33.848  1.00  0.00     0.126 C 
HETATM   22  O9  UNL     1      17.559  15.534  33.808  1.00  0.00    -0.265 OA
ENDBRANCH  19  20
ENDBRANCH  10  19
BRANCH   7  23
HETATM   23  O3  UNL     1      16.803  22.462  31.492  1.00  0.00    -0.357 OA
ATOM     24  H3  UNL     1      17.082  22.715  32.363  1.00  0.00     0.217 HD
ENDBRANCH   7  23
BRANCH   4  25
HETATM   25  O2  UNL     1      14.250  17.679  30.900  1.00  0.00    -0.359 OA
ATOM     26  H2  UNL     1      14.430  17.220  30.088  1.00  0.00     0.217 HD
ENDBRANCH   4  25
BRANCH   1  27
HETATM   27  O1  UNL     1      14.167  22.383  30.799  1.00  0.00    -0.352 OA
HETATM   28  C1  UNL     1      14.340  22.976  29.504  1.00  0.00     0.210 C 
ENDBRANCH   1  27
TORSDOF 9
ENDMDL
MODEL 2
REMARK VINA RESULT: -7.745666462      0.989      1.320
REMARK  9 active torsions:
REMARK  status: ('A' for Active; 'I' for Inactive)
REMARK    1  A    between atoms: O1_2  and  C2_3 
REMARK    2  A    between atoms: C5_6  and  O2_7 
REMARK    3  A    between atoms: C8_11  and  O3_12 
REMARK    4  A    between atoms: C9_14  and  O4_15 
REMARK    5  A    between atoms: C10_17  and  O5_18 
REMARK    6  A    between atoms: C10_17  and  C11_20 
REMARK    7  A    between atoms: C11_20  and  C12_21 
REMARK    8  A    between atoms: C13_24  and  O8_25 
REMARK    9  A    between atoms: O8_25  and  C14_26 
ROOT
HETATM    1  C2  UNL     1      14.820  21.447  31.078  1.00  0.00     0.111 A 
HETATM    2  C3  UNL     1      14.140  20.289  30.970  1.00  0.00     0.008 A 
HETATM    3  C4  UNL     1      12.671  20.349  30.632  1.00  0.00     0.054 C 
HETATM    4  C5  UNL     1      14.769  19.052  31.162  1.00  0.00     0.088 A 
HETATM    5  C6  UNL     1      16.133  19.001  31.476  1.00  0.00     0.047 A 
HETATM    6  C7  UNL     1      16.857  20.194  31.592  1.00  0.00     0.048 A 
HETATM    7  C8  UNL     1      16.178  21.384  31.390  1.00  0.00     0.113 A 
HETATM    8  C9  UNL     1      18.100  19.943  31.907  1.00  0.00     0.099 C 
HETATM    9  C10 UNL     1      18.270  18.474  32.017  1.00  0.00     0.166 C 
HETATM   10  C13 UNL     1      16.896  17.978  31.807  1.00  0.00     0.112 C 
ENDROOT
BRANCH   9  11
HETATM   11  O5  UNL     1      18.813  18.082  33.216  1.00  0.00    -0.375 OA
ATOM     12  H5  UNL     1      19.175  17.204  33.192  1.00  0.00     0.211 HD
ENDBRANCH   9  11
BRANCH   9  13
HETATM   13  C11 UNL     1      19.104  18.031  30.829  1.00  0.00     0.165 C 
BRANCH  13  14
HETATM   14  C12 UNL     1      19.723  16.726  30.902  1.00  0.00     0.176 C 
HETATM   15  O6  UNL     1      19.979  16.156  31.967  1.00  0.00    -0.648 OA
HETATM   16  O7  UNL     1      20.043  16.088  29.712  1.00  0.00    -0.648 OA
ENDBRANCH  13  14
ENDBRANCH   9  13
BRANCH   8  17
HETATM   17  O4  UNL     1      19.119  20.899  32.108  1.00  0.00    -0.360 OA
ATOM     18  H4  UNL     1      19.815  20.851  32.753  1.00  0.00     0.217 HD
ENDBRANCH   8  17
BRANCH  10  19
HETATM   19  O8  UNL     1      16.445  16.654  31.940  1.00  0.00    -0.279 OA
BRANCH  19  20
HETATM   20  C14 UNL     1      16.514  15.864  30.780  1.00  0.00     0.259 C 
HETATM   21  C15 UNL     1      16.921  14.453  30.860  1.00  0.00     0.126 C 
HETATM   22  O9  UNL     1      16.220  16.398  29.687  1.00  0.00    -0.265 OA
ENDBRANCH  19  20
ENDBRANCH  10  19
BRANCH   7  23
HETATM   23  O3  UNL     1      16.840  22.570  31.491  1.00  0.00    -0.357 OA
ATOM     24  H3  UNL     1      17.707  22.544  31.877  1.00  0.00     0.217 HD
ENDBRANCH   7  23
BRANCH   4  25
HETATM   25  O2  UNL     1      13.946  17.971  31.011  1.00  0.00    -0.359 OA
ATOM     26  H2  UNL     1      14.239  17.344  30.361  1.00  0.00     0.217 HD
ENDBRANCH   4  25
BRANCH   1  27
HETATM   27  O1  UNL     1      14.183  22.670  30.885  1.00  0.00    -0.352 OA
HETATM   28  C1  UNL     1      14.361  23.248  29.583  1.00  0.00     0.210 C 
ENDBRANCH   1  27
TORSDOF 9
ENDMDL
MODEL 3
REMARK VINA RESULT: -7.676843825      1.263      1.367
REMARK  9 active torsions:
REMARK  status: ('A' for Active; 'I' for Inactive)
REMARK    1  A    between atoms: O1_2  and  C2_3 
REMARK    2  A    between atoms: C5_6  and  O2_7 
REMARK    3  A    between atoms: C8_11  and  O3_12 
REMARK    4  A    between atoms: C9_14  and  O4_15 
REMARK    5  A    between atoms: C10_17  and  O5_18 
REMARK    6  A    between atoms: C10_17  and  C11_20 
REMARK    7  A    between atoms: C11_20  and  C12_21 
REMARK    8  A    between atoms: C13_24  and  O8_25 
REMARK    9  A    between atoms: O8_25  and  C14_26 
ROOT
HETATM    1  C2  UNL     1      15.561  20.680  31.440  1.00  0.00     0.111 A 
HETATM    2  C3  UNL     1      14.733  19.617  31.393  1.00  0.00     0.008 A 
HETATM    3  C4  UNL     1      13.282  19.854  31.056  1.00  0.00     0.054 C 
HETATM    4  C5  UNL     1      15.196  18.320  31.649  1.00  0.00     0.088 A 
HETATM    5  C6  UNL     1      16.545  18.105  31.962  1.00  0.00     0.047 A 
HETATM    6  C7  UNL     1      17.420  19.197  32.015  1.00  0.00     0.048 A 
HETATM    7  C8  UNL     1      16.902  20.454  31.752  1.00  0.00     0.113 A 
HETATM    8  C9  UNL     1      18.622  18.801  32.339  1.00  0.00     0.099 C 
HETATM    9  C10 UNL     1      18.598  17.329  32.525  1.00  0.00     0.166 C 
HETATM   10  C13 UNL     1      17.169  17.009  32.344  1.00  0.00     0.112 C 
ENDROOT
BRANCH   9  11
HETATM   11  O5  UNL     1      19.096  16.931  33.741  1.00  0.00    -0.375 OA
ATOM     12  H5  UNL     1      19.762  16.257  33.668  1.00  0.00     0.211 HD
ENDBRANCH   9  11
BRANCH   9  13
HETATM   13  C11 UNL     1      19.356  16.720  31.359  1.00  0.00     0.165 C 
BRANCH  13  14
HETATM   14  C12 UNL     1      19.780  15.344  31.491  1.00  0.00     0.176 C 
HETATM   15  O6  UNL     1      20.832  15.008  32.043  1.00  0.00    -0.648 OA
HETATM   16  O7  UNL     1      18.959  14.356  30.966  1.00  0.00    -0.648 OA
ENDBRANCH  13  14
ENDBRANCH   9  13
BRANCH   8  17
HETATM   17  O4  UNL     1      19.760  19.622  32.488  1.00  0.00    -0.360 OA
ATOM     18  H4  UNL     1      20.562  19.393  32.941  1.00  0.00     0.217 HD
ENDBRANCH   8  17
BRANCH  10  19
HETATM   19  O8  UNL     1      16.549  15.764  32.546  1.00  0.00    -0.279 OA
BRANCH  19  20
HETATM   20  C14 UNL     1      16.105  15.505  33.854  1.00  0.00     0.259 C 
HETATM   21  C15 UNL     1      16.873  14.617  34.740  1.00  0.00     0.126 C 
HETATM   22  O9  UNL     1      15.045  16.050  34.233  1.00  0.00    -0.265 OA
ENDBRANCH  19  20
ENDBRANCH  10  19
BRANCH   7  23
HETATM   23  O3  UNL     1      17.715  21.546  31.790  1.00  0.00    -0.357 OA
ATOM     24  H3  UNL     1      18.624  21.411  31.550  1.00  0.00     0.217 HD
ENDBRANCH   7  23
BRANCH   4  25
HETATM   25  O2  UNL     1      14.237  17.351  31.555  1.00  0.00    -0.359 OA
ATOM     26  H2  UNL     1      14.471  16.620  30.995  1.00  0.00     0.217 HD
ENDBRANCH   4  25
BRANCH   1  27
HETATM   27  O1  UNL     1      15.089  21.964  31.185  1.00  0.00    -0.352 OA
HETATM   28  C1  UNL     1      15.175  22.382  29.815  1.00  0.00     0.210 C 
ENDBRANCH   1  27
TORSDOF 9
ENDMDL
MODEL 4
REMARK VINA RESULT: -7.487298009      2.346      6.239
REMARK  9 active torsions:
REMARK  status: ('A' for Active; 'I' for Inactive)
REMARK    1  A    between atoms: O1_2  and  C2_3 
REMARK    2  A    between atoms: C5_6  and  O2_7 
REMARK    3  A    between atoms: C8_11  and  O3_12 
REMARK    4  A    between atoms: C9_14  and  O4_15 
REMARK    5  A    between atoms: C10_17  and  O5_18 
REMARK    6  A    between atoms: C10_17  and  C11_20 
REMARK    7  A    between atoms: C11_20  and  C12_21 
REMARK    8  A    between atoms: C13_24  and  O8_25 
REMARK    9  A    between atoms: O8_25  and  C14_26 
ROOT
HETATM    1  C2  UNL     1      18.118  13.631  34.374  1.00  0.00     0.111 A 
HETATM    2  C3  UNL     1      16.907  14.113  34.717  1.00  0.00     0.008 A 
HETATM    3  C4  UNL     1      16.054  13.303  35.660  1.00  0.00     0.054 C 
HETATM    4  C5  UNL     1      16.441  15.337  34.218  1.00  0.00     0.088 A 
HETATM    5  C6  UNL     1      17.238  16.086  33.342  1.00  0.00     0.047 A 
HETATM    6  C7  UNL     1      18.499  15.600  32.975  1.00  0.00     0.048 A 
HETATM    7  C8  UNL     1      18.903  14.385  33.503  1.00  0.00     0.113 A 
HETATM    8  C9  UNL     1      19.079  16.424  32.142  1.00  0.00     0.099 C 
HETATM    9  C10 UNL     1      18.169  17.572  31.907  1.00  0.00     0.166 C 
HETATM   10  C13 UNL     1      16.967  17.187  32.670  1.00  0.00     0.112 C 
ENDROOT
BRANCH   9  11
HETATM   11  O5  UNL     1      17.921  17.799  30.575  1.00  0.00    -0.375 OA
ATOM     12  H5  UNL     1      18.544  18.393  30.176  1.00  0.00     0.211 HD
ENDBRANCH   9  11
BRANCH   9  13
HETATM   13  C11 UNL     1      18.784  18.777  32.597  1.00  0.00     0.165 C 
BRANCH  13  14
HETATM   14  C12 UNL     1      18.024  20.007  32.584  1.00  0.00     0.176 C 
HETATM   15  O6  UNL     1      17.573  20.515  31.553  1.00  0.00    -0.648 OA
HETATM   16  O7  UNL     1      17.794  20.644  33.796  1.00  0.00    -0.648 OA
ENDBRANCH  13  14
ENDBRANCH   9  13
BRANCH   8  17
HETATM   17  O4  UNL     1      20.354  16.263  31.561  1.00  0.00    -0.360 OA
ATOM     18  H4  UNL     1      21.174  16.152  32.027  1.00  0.00     0.217 HD
ENDBRANCH   8  17
BRANCH  10  19
HETATM   19  O8  UNL     1      15.728  17.851  32.689  1.00  0.00    -0.279 OA
BRANCH  19  20
HETATM   20  C14 UNL     1      14.920  17.674  31.554  1.00  0.00     0.259 C 
HETATM   21  C15 UNL     1      14.012  16.521  31.456  1.00  0.00     0.126 C 
HETATM   22  O9  UNL     1      14.999  18.523  30.638  1.00  0.00    -0.265 OA
ENDBRANCH  19  20
ENDBRANCH  10  19
BRANCH   7  23
HETATM   23  O3  UNL     1      20.122  13.874  33.175  1.00  0.00    -0.357 OA
ATOM     24  H3  UNL     1      20.496  13.242  33.778  1.00  0.00     0.217 HD
ENDBRANCH   7  23
BRANCH   4  25
HETATM   25  O2  UNL     1      15.200  15.691  34.665  1.00  0.00    -0.359 OA
ATOM     26  H2  UNL     1      14.839  16.465  34.247  1.00  0.00     0.217 HD
ENDBRANCH   4  25
BRANCH   1  27
HETATM   27  O1  UNL     1      18.570  12.413  34.876  1.00  0.00    -0.352 OA
HETATM   28  C1  UNL     1      18.272  11.271  34.060  1.00  0.00     0.210 C 
ENDBRANCH   1  27
TORSDOF 9
ENDMDL
MODEL 5
REMARK VINA RESULT: -7.422004037      1.248      1.511
REMARK  9 active torsions:
REMARK  status: ('A' for Active; 'I' for Inactive)
REMARK    1  A    between atoms: O1_2  and  C2_3 
REMARK    2  A    between atoms: C5_6  and  O2_7 
REMARK    3  A    between atoms: C8_11  and  O3_12 
REMARK    4  A    between atoms: C9_14  and  O4_15 
REMARK    5  A    between atoms: C10_17  and  O5_18 
REMARK    6  A    between atoms: C10_17  and  C11_20 
REMARK    7  A    between atoms: C11_20  and  C12_21 
REMARK    8  A    between atoms: C13_24  and  O8_25 
REMARK    9  A    between atoms: O8_25  and  C14_26 
ROOT
HETATM    1  C2  UNL     1      14.439  21.703  29.957  1.00  0.00     0.111 A 
HETATM    2  C3  UNL     1      13.705  20.578  29.844  1.00  0.00     0.008 A 
HETATM    3  C4  UNL     1      12.340  20.674  29.208  1.00  0.00     0.054 C 
HETATM    4  C5  UNL     1      14.186  19.344  30.301  1.00  0.00     0.088 A 
HETATM    5  C6  UNL     1      15.454  19.261  30.891  1.00  0.00     0.047 A 
HETATM    6  C7  UNL     1      16.231  20.419  31.016  1.00  0.00     0.048 A 
HETATM    7  C8  UNL     1      15.699  21.608  30.545  1.00  0.00     0.113 A 
HETATM    8  C9  UNL     1      17.364  20.145  31.606  1.00  0.00     0.099 C 
HETATM    9  C10 UNL     1      17.394  18.695  31.915  1.00  0.00     0.166 C 
HETATM   10  C13 UNL     1      16.054  18.250  31.486  1.00  0.00     0.112 C 
ENDROOT
BRANCH   9  11
HETATM   11  O5  UNL     1      17.659  18.430  33.236  1.00  0.00    -0.375 OA
ATOM     12  H5  UNL     1      16.998  18.775  33.825  1.00  0.00     0.211 HD
ENDBRANCH   9  11
BRANCH   9  13
HETATM   13  C11 UNL     1      18.409  18.060  30.980  1.00  0.00     0.165 C 
BRANCH  13  14
HETATM   14  C12 UNL     1      19.725  17.788  31.517  1.00  0.00     0.176 C 
HETATM   15  O6  UNL     1      20.210  16.655  31.581  1.00  0.00    -0.648 OA
HETATM   16  O7  UNL     1      20.473  18.860  31.982  1.00  0.00    -0.648 OA
ENDBRANCH  13  14
ENDBRANCH   9  13
BRANCH   8  17
HETATM   17  O4  UNL     1      18.395  21.062  31.901  1.00  0.00    -0.360 OA
ATOM     18  H4  UNL     1      18.862  21.603  31.275  1.00  0.00     0.217 HD
ENDBRANCH   8  17
BRANCH  10  19
HETATM   19  O8  UNL     1      15.485  16.979  31.673  1.00  0.00    -0.279 OA
BRANCH  19  20
HETATM   20  C14 UNL     1      14.914  16.743  32.935  1.00  0.00     0.259 C 
HETATM   21  C15 UNL     1      13.485  17.003  33.169  1.00  0.00     0.126 C 
HETATM   22  O9  UNL     1      15.656  16.309  33.844  1.00  0.00    -0.265 OA
ENDBRANCH  19  20
ENDBRANCH  10  19
BRANCH   7  23
HETATM   23  O3  UNL     1      16.419  22.760  30.643  1.00  0.00    -0.357 OA
ATOM     24  H3  UNL     1      16.713  23.008  31.512  1.00  0.00     0.217 HD
ENDBRANCH   7  23
BRANCH   4  25
HETATM   25  O2  UNL     1      13.327  18.299  30.108  1.00  0.00    -0.359 OA
ATOM     26  H2  UNL     1      13.194  17.755  30.876  1.00  0.00     0.217 HD
ENDBRANCH   4  25
BRANCH   1  27
HETATM   27  O1  UNL     1      13.949  22.923  29.499  1.00  0.00    -0.352 OA
HETATM   28  C1  UNL     1      14.334  23.268  28.160  1.00  0.00     0.210 C 
ENDBRANCH   1  27
TORSDOF 9
ENDMDL
