MODEL 1
REMARK VINA RESULT: -5.031521429      0.000      0.000
REMARK  4 active torsions:
REMARK  status: ('A' for Active; 'I' for Inactive)
REMARK    1  A    between atoms: N1_1  and  C1_4 
REMARK    2  A    between atoms: C2_7  and  C3_8 
REMARK    3  A    between atoms: C4_13  and  N5_14 
REMARK    4  A    between atoms: N5_14  and  N6_16 
ROOT
HETATM    1  C1  UNL     1       8.141  38.200   9.387  1.00  0.00     0.692 A 
HETATM    2  N2  UNL     1       9.174  38.251  10.227  1.00  0.00    -0.171 N 
ATOM      3  H2  UNL     1       9.926  38.910  10.024  1.00  0.00     0.186 HD
HETATM    4  C2  UNL     1       9.284  37.487  11.323  1.00  0.00     0.201 A 
HETATM    5  N4  UNL     1       8.251  36.622  11.551  1.00  0.00    -0.169 N 
ATOM      6  H4  UNL     1       8.293  36.023  12.374  1.00  0.00     0.186 HD
HETATM    7  C4  UNL     1       7.183  36.524  10.743  1.00  0.00     0.712 A 
HETATM    8  N7  UNL     1       7.156  37.328   9.665  1.00  0.00    -0.021 N 
ATOM      9  H7  UNL     1       6.357  37.274   9.034  1.00  0.00     0.203 HD
ENDROOT
BRANCH   7  10
HETATM   10  N5  UNL     1       6.202  35.723  10.931  1.00  0.00    -0.138 N 
ATOM     11  H5  UNL     1       6.374  34.920  11.535  1.00  0.00     0.205 HD
BRANCH  10  12
HETATM   12  N6  UNL     1       4.948  35.839  10.401  1.00  0.00    -0.331 N 
ATOM     13  H62 UNL     1       4.268  36.337  10.976  1.00  0.00     0.177 HD
ATOM     14  H61 UNL     1       4.636  35.478   9.499  1.00  0.00     0.177 HD
ENDBRANCH  10  12
ENDBRANCH   7  10
BRANCH   4  15
HETATM   15  C3  UNL     1      10.418  37.556  12.227  1.00  0.00     0.299 C 
HETATM   16  N3  UNL     1      11.505  38.398  11.935  1.00  0.00    -0.054 NA
HETATM   17  O1  UNL     1      10.428  36.870  13.262  1.00  0.00    -0.268 OA
ENDBRANCH   4  15
BRANCH   1  18
HETATM   18  N1  UNL     1       8.120  38.973   8.356  1.00  0.00    -0.234 N 
ATOM     19  H12 UNL     1       8.037  39.987   8.425  1.00  0.00     0.174 HD
ATOM     20  H11 UNL     1       8.190  38.568   7.422  1.00  0.00     0.174 HD
ENDBRANCH   1  18
TORSDOF 4
ENDMDL
MODEL 2
REMARK VINA RESULT: -4.901540174      2.120      3.230
REMARK  4 active torsions:
REMARK  status: ('A' for Active; 'I' for Inactive)
REMARK    1  A    between atoms: N1_1  and  C1_4 
REMARK    2  A    between atoms: C2_7  and  C3_8 
REMARK    3  A    between atoms: C4_13  and  N5_14 
REMARK    4  A    between atoms: N5_14  and  N6_16 
ROOT
HETATM    1  C1  UNL     1       9.252  37.237  11.927  1.00  0.00     0.692 A 
HETATM    2  N2  UNL     1       9.543  37.751  10.733  1.00  0.00    -0.171 N 
ATOM      3  H2  UNL     1      10.423  38.255  10.629  1.00  0.00     0.186 HD
HETATM    4  C2  UNL     1       8.747  37.644   9.660  1.00  0.00     0.201 A 
HETATM    5  N4  UNL     1       7.580  36.959   9.851  1.00  0.00    -0.169 N 
ATOM      6  H4  UNL     1       6.944  36.854   9.061  1.00  0.00     0.186 HD
HETATM    7  C4  UNL     1       7.230  36.418  11.028  1.00  0.00     0.712 A 
HETATM    8  N7  UNL     1       8.088  36.574  12.052  1.00  0.00    -0.021 N 
ATOM      9  H7  UNL     1       7.848  36.173  12.959  1.00  0.00     0.203 HD
ENDROOT
BRANCH   7  10
HETATM   10  N5  UNL     1       6.144  35.773  11.236  1.00  0.00    -0.138 N 
ATOM     11  H5  UNL     1       6.125  35.155  12.047  1.00  0.00     0.205 HD
BRANCH  10  12
HETATM   12  N6  UNL     1       5.008  35.830  10.479  1.00  0.00    -0.331 N 
ATOM     13  H62 UNL     1       4.229  36.346  10.889  1.00  0.00     0.177 HD
ATOM     14  H61 UNL     1       4.872  35.412   9.558  1.00  0.00     0.177 HD
ENDBRANCH  10  12
ENDBRANCH   7  10
BRANCH   4  15
HETATM   15  C3  UNL     1       9.080  38.212   8.365  1.00  0.00     0.299 C 
HETATM   16  N3  UNL     1      10.330  37.948   7.779  1.00  0.00    -0.054 NA
HETATM   17  O1  UNL     1       8.259  38.932   7.775  1.00  0.00    -0.268 OA
ENDBRANCH   4  15
BRANCH   1  18
HETATM   18  N1  UNL     1      10.078  37.388  12.904  1.00  0.00    -0.234 N 
ATOM     19  H12 UNL     1      10.497  38.287  13.141  1.00  0.00     0.174 HD
ATOM     20  H11 UNL     1      10.335  36.583  13.476  1.00  0.00     0.174 HD
ENDBRANCH   1  18
TORSDOF 4
ENDMDL
MODEL 3
REMARK VINA RESULT: -4.745873770      2.666      3.831
REMARK  4 active torsions:
REMARK  status: ('A' for Active; 'I' for Inactive)
REMARK    1  A    between atoms: N1_1  and  C1_4 
REMARK    2  A    between atoms: C2_7  and  C3_8 
REMARK    3  A    between atoms: C4_13  and  N5_14 
REMARK    4  A    between atoms: N5_14  and  N6_16 
ROOT
HETATM    1  C1  UNL     1       6.423  36.239  11.098  1.00  0.00     0.692 A 
HETATM    2  N2  UNL     1       7.255  37.125  10.551  1.00  0.00    -0.171 N 
ATOM      3  H2  UNL     1       8.189  37.217  10.949  1.00  0.00     0.186 HD
HETATM    4  C2  UNL     1       6.936  37.903   9.506  1.00  0.00     0.201 A 
HETATM    5  N4  UNL     1       5.673  37.741   9.009  1.00  0.00    -0.169 N 
ATOM      6  H4  UNL     1       5.388  38.313   8.214  1.00  0.00     0.186 HD
HETATM    7  C4  UNL     1       4.790  36.867   9.515  1.00  0.00     0.712 A 
HETATM    8  N7  UNL     1       5.194  36.127  10.564  1.00  0.00    -0.021 N 
ATOM      9  H7  UNL     1       4.544  35.455  10.969  1.00  0.00     0.203 HD
ENDROOT
BRANCH   7  10
HETATM   10  N5  UNL     1       3.602  36.695   9.071  1.00  0.00    -0.138 N 
ATOM     11  H5  UNL     1       2.851  36.677   9.760  1.00  0.00     0.205 HD
BRANCH  10  12
HETATM   12  N6  UNL     1       3.241  36.533   7.762  1.00  0.00    -0.331 N 
ATOM     13  H62 UNL     1       3.395  37.340   7.158  1.00  0.00     0.177 HD
ATOM     14  H61 UNL     1       2.838  35.693   7.345  1.00  0.00     0.177 HD
ENDBRANCH  10  12
ENDBRANCH   7  10
BRANCH   4  15
HETATM   15  C3  UNL     1       7.855  38.864   8.923  1.00  0.00     0.299 C 
HETATM   16  N3  UNL     1       7.961  38.981   7.526  1.00  0.00    -0.054 NA
HETATM   17  O1  UNL     1       8.548  39.583   9.659  1.00  0.00    -0.268 OA
ENDBRANCH   4  15
BRANCH   1  18
HETATM   18  N1  UNL     1       6.816  35.533  12.102  1.00  0.00    -0.234 N 
ATOM     19  H12 UNL     1       6.245  35.387  12.934  1.00  0.00     0.174 HD
ATOM     20  H11 UNL     1       7.737  35.094  12.079  1.00  0.00     0.174 HD
ENDBRANCH   1  18
TORSDOF 4
ENDMDL
MODEL 4
REMARK VINA RESULT: -4.718736379      1.957      2.326
REMARK  4 active torsions:
REMARK  status: ('A' for Active; 'I' for Inactive)
REMARK    1  A    between atoms: N1_1  and  C1_4 
REMARK    2  A    between atoms: C2_7  and  C3_8 
REMARK    3  A    between atoms: C4_13  and  N5_14 
REMARK    4  A    between atoms: N5_14  and  N6_16 
ROOT
HETATM    1  C1  UNL     1       7.008  38.799  12.946  1.00  0.00     0.692 A 
HETATM    2  N2  UNL     1       8.338  38.731  12.978  1.00  0.00    -0.171 N 
ATOM      3  H2  UNL     1       8.849  39.519  13.376  1.00  0.00     0.186 HD
HETATM    4  C2  UNL     1       9.044  37.688  12.518  1.00  0.00     0.201 A 
HETATM    5  N4  UNL     1       8.312  36.659  11.996  1.00  0.00    -0.169 N 
ATOM      6  H4  UNL     1       8.809  35.845  11.635  1.00  0.00     0.186 HD
HETATM    7  C4  UNL     1       6.972  36.667  11.935  1.00  0.00     0.712 A 
HETATM    8  N7  UNL     1       6.344  37.755  12.420  1.00  0.00    -0.021 N 
ATOM      9  H7  UNL     1       5.325  37.789  12.386  1.00  0.00     0.203 HD
ENDROOT
BRANCH   7  10
HETATM   10  N5  UNL     1       6.261  35.719  11.452  1.00  0.00    -0.138 N 
ATOM     11  H5  UNL     1       6.470  34.776  11.777  1.00  0.00     0.205 HD
BRANCH  10  12
HETATM   12  N6  UNL     1       5.249  35.847  10.542  1.00  0.00    -0.331 N 
ATOM     13  H62 UNL     1       5.516  36.229   9.634  1.00  0.00     0.177 HD
ATOM     14  H61 UNL     1       4.270  35.599  10.686  1.00  0.00     0.177 HD
ENDBRANCH  10  12
ENDBRANCH   7  10
BRANCH   4  15
HETATM   15  C3  UNL     1      10.494  37.632  12.561  1.00  0.00     0.299 C 
HETATM   16  N3  UNL     1      11.256  38.243  11.550  1.00  0.00    -0.054 NA
HETATM   17  O1  UNL     1      11.064  37.041  13.494  1.00  0.00    -0.268 OA
ENDBRANCH   4  15
BRANCH   1  18
HETATM   18  N1  UNL     1       6.412  39.843  13.412  1.00  0.00    -0.234 N 
ATOM     19  H12 UNL     1       5.406  39.882  13.571  1.00  0.00     0.174 HD
ATOM     20  H11 UNL     1       6.958  40.676  13.636  1.00  0.00     0.174 HD
ENDBRANCH   1  18
TORSDOF 4
ENDMDL
MODEL 5
REMARK VINA RESULT: -4.606823866      1.416      3.158
REMARK  4 active torsions:
REMARK  status: ('A' for Active; 'I' for Inactive)
REMARK    1  A    between atoms: N1_1  and  C1_4 
REMARK    2  A    between atoms: C2_7  and  C3_8 
REMARK    3  A    between atoms: C4_13  and  N5_14 
REMARK    4  A    between atoms: N5_14  and  N6_16 
ROOT
HETATM    1  C1  UNL     1       7.773  36.458  11.593  1.00  0.00     0.692 A 
HETATM    2  N2  UNL     1       8.660  36.799  12.527  1.00  0.00    -0.171 N 
ATOM      3  H2  UNL     1       8.519  36.448  13.474  1.00  0.00     0.186 HD
HETATM    4  C2  UNL     1       9.728  37.575  12.295  1.00  0.00     0.201 A 
HETATM    5  N4  UNL     1       9.872  38.019  11.011  1.00  0.00    -0.169 N 
ATOM      6  H4  UNL     1      10.671  38.612  10.790  1.00  0.00     0.186 HD
HETATM    7  C4  UNL     1       9.014  37.711  10.026  1.00  0.00     0.712 A 
HETATM    8  N7  UNL     1       7.970  36.926  10.348  1.00  0.00    -0.021 N 
ATOM      9  H7  UNL     1       7.302  36.676   9.619  1.00  0.00     0.203 HD
ENDROOT
BRANCH   7  10
HETATM   10  N5  UNL     1       9.124  38.112   8.815  1.00  0.00    -0.138 N 
ATOM     11  H5  UNL     1       8.284  38.489   8.378  1.00  0.00     0.205 HD
BRANCH  10  12
HETATM   12  N6  UNL     1      10.257  38.083   8.051  1.00  0.00    -0.331 N 
ATOM     13  H62 UNL     1      11.022  37.515   8.415  1.00  0.00     0.177 HD
ATOM     14  H61 UNL     1      10.403  38.570   7.166  1.00  0.00     0.177 HD
ENDBRANCH  10  12
ENDBRANCH   7  10
BRANCH   4  15
HETATM   15  C3  UNL     1      10.685  37.937  13.326  1.00  0.00     0.299 C 
HETATM   16  N3  UNL     1      11.991  37.420  13.290  1.00  0.00    -0.054 NA
HETATM   17  O1  UNL     1      10.348  38.705  14.241  1.00  0.00    -0.268 OA
ENDBRANCH   4  15
BRANCH   1  18
HETATM   18  N1  UNL     1       6.775  35.705  11.907  1.00  0.00    -0.234 N 
ATOM     19  H12 UNL     1       6.436  35.606  12.864  1.00  0.00     0.174 HD
ATOM     20  H11 UNL     1       6.292  35.180  11.179  1.00  0.00     0.174 HD
ENDBRANCH   1  18
TORSDOF 4
ENDMDL
