MODEL 1
REMARK VINA RESULT: -5.449648491      0.000      0.000
REMARK  3 active torsions:
REMARK  status: ('A' for Active; 'I' for Inactive)
REMARK    1  A    between atoms: N1_1  and  C1_4 
REMARK    2  A    between atoms: C2_9  and  C3_10 
REMARK       I    between atoms: C3_10  and  N4_12 
REMARK       I    between atoms: N4_12  and  C4_14 
REMARK    3  A    between atoms: N6_17  and  N7_18 
ROOT
HETATM    1  C1  UNL     1       5.825  36.409  10.577  1.00  0.00     0.713 A 
HETATM    2  N2  UNL     1       6.048  35.648  11.667  1.00  0.00    -0.129 N 
ATOM      3  H2  UNL     1       5.411  34.972  12.090  1.00  0.00     0.205 HD
HETATM    4  N3  UNL     1       7.258  35.961  12.070  1.00  0.00    -0.265 N 
ATOM      5  H3  UNL     1       7.712  35.545  12.883  1.00  0.00     0.189 HD
HETATM    6  C2  UNL     1       7.824  36.885  11.294  1.00  0.00     0.228 A 
HETATM    7  N6  UNL     1       6.927  37.177  10.344  1.00  0.00    -0.068 N 
ENDROOT
BRANCH   6   8
HETATM    8  C3  UNL     1       9.164  37.482  11.431  1.00  0.00     0.297 C 
HETATM    9  O1  UNL     1       9.587  38.239  10.519  1.00  0.00    -0.264 OA
HETATM   10  N4  UNL     1       9.958  37.202  12.574  1.00  0.00    -0.275 N 
HETATM   11  C4  UNL     1      11.234  37.783  12.682  1.00  0.00     0.335 C 
ATOM     12  H4  UNL     1       9.608  36.587  13.308  1.00  0.00     0.173 HD
HETATM   13  N5  UNL     1      12.102  37.563  13.789  1.00  0.00    -0.040 NA
HETATM   14  O2  UNL     1      11.679  38.545  11.782  1.00  0.00    -0.251 OA
ENDBRANCH   6   8
BRANCH   7  15
HETATM   15  N7  UNL     1       7.070  38.094   9.298  1.00  0.00    -0.322 N 
ATOM     16  H72 UNL     1       7.600  38.965   9.310  1.00  0.00     0.178 HD
ATOM     17  H71 UNL     1       6.653  38.005   8.372  1.00  0.00     0.178 HD
ENDBRANCH   7  15
BRANCH   1  18
HETATM   18  N1  UNL     1       4.740  36.397   9.881  1.00  0.00    -0.232 N 
ATOM     19  H12 UNL     1       3.846  36.808  10.147  1.00  0.00     0.174 HD
ATOM     20  H11 UNL     1       4.644  35.967   8.961  1.00  0.00     0.174 HD
ENDBRANCH   1  18
TORSDOF 3
ENDMDL
MODEL 2
REMARK VINA RESULT: -5.283781728      1.912      1.914
REMARK  3 active torsions:
REMARK  status: ('A' for Active; 'I' for Inactive)
REMARK    1  A    between atoms: N1_1  and  C1_4 
REMARK    2  A    between atoms: C2_9  and  C3_10 
REMARK       I    between atoms: C3_10  and  N4_12 
REMARK       I    between atoms: N4_12  and  C4_14 
REMARK    3  A    between atoms: N6_17  and  N7_18 
ROOT
HETATM    1  C1  UNL     1       5.774  36.394  10.754  1.00  0.00     0.713 A 
HETATM    2  N2  UNL     1       6.559  35.738  11.631  1.00  0.00    -0.129 N 
ATOM      3  H2  UNL     1       6.263  35.087  12.360  1.00  0.00     0.205 HD
HETATM    4  N3  UNL     1       7.786  36.112  11.351  1.00  0.00    -0.265 N 
ATOM      5  H3  UNL     1       8.610  35.781  11.851  1.00  0.00     0.189 HD
HETATM    6  C2  UNL     1       7.829  36.977  10.337  1.00  0.00     0.228 A 
HETATM    7  N6  UNL     1       6.561  37.163   9.950  1.00  0.00    -0.068 N 
ENDROOT
BRANCH   6   8
HETATM    8  C3  UNL     1       9.017  37.615   9.743  1.00  0.00     0.297 C 
HETATM    9  O1  UNL     1       9.148  37.607   8.491  1.00  0.00    -0.264 OA
HETATM   10  N4  UNL     1       9.993  38.223  10.575  1.00  0.00    -0.275 N 
HETATM   11  C4  UNL     1      11.118  38.825   9.986  1.00  0.00     0.335 C 
ATOM     12  H4  UNL     1       9.879  38.224  11.589  1.00  0.00     0.173 HD
HETATM   13  N5  UNL     1      12.148  39.460  10.737  1.00  0.00    -0.040 NA
HETATM   14  O2  UNL     1      11.271  38.831   8.735  1.00  0.00    -0.251 OA
ENDBRANCH   6   8
BRANCH   7  15
HETATM   15  N7  UNL     1       6.104  37.987   8.917  1.00  0.00    -0.322 N 
ATOM     16  H72 UNL     1       5.778  37.698   7.995  1.00  0.00     0.178 HD
ATOM     17  H71 UNL     1       6.038  39.004   8.957  1.00  0.00     0.178 HD
ENDBRANCH   7  15
BRANCH   1  18
HETATM   18  N1  UNL     1       4.490  36.295  10.699  1.00  0.00    -0.232 N 
ATOM     19  H12 UNL     1       3.955  35.681  10.086  1.00  0.00     0.174 HD
ATOM     20  H11 UNL     1       3.840  36.830  11.276  1.00  0.00     0.174 HD
ENDBRANCH   1  18
TORSDOF 3
ENDMDL
MODEL 3
REMARK VINA RESULT: -5.035198703      1.233      1.326
REMARK  3 active torsions:
REMARK  status: ('A' for Active; 'I' for Inactive)
REMARK    1  A    between atoms: N1_1  and  C1_4 
REMARK    2  A    between atoms: C2_9  and  C3_10 
REMARK       I    between atoms: C3_10  and  N4_12 
REMARK       I    between atoms: N4_12  and  C4_14 
REMARK    3  A    between atoms: N6_17  and  N7_18 
ROOT
HETATM    1  C1  UNL     1       6.037  36.583  11.119  1.00  0.00     0.713 A 
HETATM    2  N2  UNL     1       5.694  37.395  12.138  1.00  0.00    -0.129 N 
ATOM      3  H2  UNL     1       4.757  37.561  12.508  1.00  0.00     0.205 HD
HETATM    4  N3  UNL     1       6.819  37.927  12.555  1.00  0.00    -0.265 N 
ATOM      5  H3  UNL     1       6.883  38.592  13.326  1.00  0.00     0.189 HD
HETATM    6  C2  UNL     1       7.870  37.498  11.855  1.00  0.00     0.228 A 
HETATM    7  N6  UNL     1       7.387  36.646  10.942  1.00  0.00    -0.068 N 
ENDROOT
BRANCH   6   8
HETATM    8  C3  UNL     1       9.284  37.870  12.028  1.00  0.00     0.297 C 
HETATM    9  O1  UNL     1      10.013  37.979  11.007  1.00  0.00    -0.264 OA
HETATM   10  N4  UNL     1       9.810  38.099  13.327  1.00  0.00    -0.275 N 
HETATM   11  C4  UNL     1      11.163  38.453  13.467  1.00  0.00     0.335 C 
ATOM     12  H4  UNL     1       9.213  38.008  14.149  1.00  0.00     0.173 HD
HETATM   13  N5  UNL     1      11.779  38.702  14.726  1.00  0.00    -0.040 NA
HETATM   14  O2  UNL     1      11.912  38.568  12.460  1.00  0.00    -0.251 OA
ENDBRANCH   6   8
BRANCH   7  15
HETATM   15  N7  UNL     1       8.112  35.940   9.977  1.00  0.00    -0.322 N 
ATOM     16  H72 UNL     1       7.879  35.827   8.991  1.00  0.00     0.178 HD
ATOM     17  H71 UNL     1       8.985  35.439  10.142  1.00  0.00     0.178 HD
ENDBRANCH   7  15
BRANCH   1  18
HETATM   18  N1  UNL     1       5.208  35.870  10.435  1.00  0.00    -0.232 N 
ATOM     19  H12 UNL     1       4.191  35.899  10.496  1.00  0.00     0.174 HD
ATOM     20  H11 UNL     1       5.476  35.177   9.736  1.00  0.00     0.174 HD
ENDBRANCH   1  18
TORSDOF 3
ENDMDL
MODEL 4
REMARK VINA RESULT: -4.991626105      2.182      2.992
REMARK  3 active torsions:
REMARK  status: ('A' for Active; 'I' for Inactive)
REMARK    1  A    between atoms: N1_1  and  C1_4 
REMARK    2  A    between atoms: C2_9  and  C3_10 
REMARK       I    between atoms: C3_10  and  N4_12 
REMARK       I    between atoms: N4_12  and  C4_14 
REMARK    3  A    between atoms: N6_17  and  N7_18 
ROOT
HETATM    1  C1  UNL     1       5.678  36.684  10.245  1.00  0.00     0.713 A 
HETATM    2  N2  UNL     1       5.515  37.492   9.179  1.00  0.00    -0.129 N 
ATOM      3  H2  UNL     1       4.654  37.667   8.660  1.00  0.00     0.205 HD
HETATM    4  N3  UNL     1       6.701  38.008   8.948  1.00  0.00    -0.265 N 
ATOM      5  H3  UNL     1       6.897  38.667   8.195  1.00  0.00     0.189 HD
HETATM    6  C2  UNL     1       7.617  37.572   9.812  1.00  0.00     0.228 A 
HETATM    7  N6  UNL     1       6.981  36.732  10.639  1.00  0.00    -0.068 N 
ENDROOT
BRANCH   6   8
HETATM    8  C3  UNL     1       9.047  37.924   9.869  1.00  0.00     0.297 C 
HETATM    9  O1  UNL     1       9.586  38.093  10.993  1.00  0.00    -0.264 OA
HETATM   10  N4  UNL     1       9.795  38.071   8.671  1.00  0.00    -0.275 N 
HETATM   11  C4  UNL     1      11.157  38.408   8.750  1.00  0.00     0.335 C 
ATOM     12  H4  UNL     1       9.349  37.933   7.764  1.00  0.00     0.173 HD
HETATM   13  N5  UNL     1      11.988  38.576   7.606  1.00  0.00    -0.040 NA
HETATM   14  O2  UNL     1      11.720  38.581   9.865  1.00  0.00    -0.251 OA
ENDBRANCH   6   8
BRANCH   7  15
HETATM   15  N7  UNL     1       7.531  36.024  11.713  1.00  0.00    -0.322 N 
ATOM     16  H72 UNL     1       7.061  35.341  12.307  1.00  0.00     0.178 HD
ATOM     17  H71 UNL     1       8.491  36.106  12.045  1.00  0.00     0.178 HD
ENDBRANCH   7  15
BRANCH   1  18
HETATM   18  N1  UNL     1       4.739  35.986  10.789  1.00  0.00    -0.232 N 
ATOM     19  H12 UNL     1       4.293  36.169  11.687  1.00  0.00     0.174 HD
ATOM     20  H11 UNL     1       4.321  35.152  10.377  1.00  0.00     0.174 HD
ENDBRANCH   1  18
TORSDOF 3
ENDMDL
MODEL 5
REMARK VINA RESULT: -4.967168991      1.584      2.232
REMARK  3 active torsions:
REMARK  status: ('A' for Active; 'I' for Inactive)
REMARK    1  A    between atoms: N1_1  and  C1_4 
REMARK    2  A    between atoms: C2_9  and  C3_10 
REMARK       I    between atoms: C3_10  and  N4_12 
REMARK       I    between atoms: N4_12  and  C4_14 
REMARK    3  A    between atoms: N6_17  and  N7_18 
ROOT
HETATM    1  C1  UNL     1       5.736  36.642  10.241  1.00  0.00     0.713 A 
HETATM    2  N2  UNL     1       5.974  37.584   9.307  1.00  0.00    -0.129 N 
ATOM      3  H2  UNL     1       5.350  37.881   8.556  1.00  0.00     0.205 HD
HETATM    4  N3  UNL     1       7.179  38.038   9.567  1.00  0.00    -0.265 N 
ATOM      5  H3  UNL     1       7.641  38.767   9.025  1.00  0.00     0.189 HD
HETATM    6  C2  UNL     1       7.727  37.435  10.622  1.00  0.00     0.228 A 
HETATM    7  N6  UNL     1       6.823  36.549  11.058  1.00  0.00    -0.068 N 
ENDROOT
BRANCH   6   8
HETATM    8  C3  UNL     1       9.057  37.675  11.209  1.00  0.00     0.297 C 
HETATM    9  O1  UNL     1       9.338  37.140  12.313  1.00  0.00    -0.264 OA
HETATM   10  N4  UNL     1       9.998  38.497  10.536  1.00  0.00    -0.275 N 
HETATM   11  C4  UNL     1      11.260  38.712  11.116  1.00  0.00     0.335 C 
ATOM     12  H4  UNL     1       9.762  38.927   9.642  1.00  0.00     0.173 HD
HETATM   13  N5  UNL     1      12.269  39.518  10.517  1.00  0.00    -0.040 NA
HETATM   14  O2  UNL     1      11.565  38.186  12.221  1.00  0.00    -0.251 OA
ENDBRANCH   6   8
BRANCH   7  15
HETATM   15  N7  UNL     1       6.948  35.679  12.146  1.00  0.00    -0.322 N 
ATOM     16  H72 UNL     1       6.229  35.071  12.535  1.00  0.00     0.178 HD
ATOM     17  H71 UNL     1       7.794  35.541  12.699  1.00  0.00     0.178 HD
ENDBRANCH   7  15
BRANCH   1  18
HETATM   18  N1  UNL     1       4.650  35.953  10.332  1.00  0.00    -0.232 N 
ATOM     19  H12 UNL     1       3.700  36.323  10.361  1.00  0.00     0.174 HD
ATOM     20  H11 UNL     1       4.609  34.936  10.385  1.00  0.00     0.174 HD
ENDBRANCH   1  18
TORSDOF 3
ENDMDL
