MODEL 1
REMARK VINA RESULT: -8.688299961      0.000      0.000
REMARK  13 active torsions:
REMARK  status: ('A' for Active; 'I' for Inactive)
REMARK    1  A    between atoms: N1_1  and  C1_4 
REMARK    2  A    between atoms: C5_15  and  C6_16 
REMARK    3  A    between atoms: C6_16  and  C7_17 
REMARK    4  A    between atoms: C7_17  and  C8_18 
REMARK    5  A    between atoms: C8_18  and  C9_19 
REMARK    6  A    between atoms: C9_19  and  C10_20 
REMARK    7  A    between atoms: C10_20  and  C11_21 
REMARK    8  A    between atoms: C11_21  and  N5_22 
REMARK       I    between atoms: N5_22  and  C12_24 
REMARK    9  A    between atoms: C12_24  and  C13_26 
REMARK   10  A    between atoms: C15_30  and  N7_31 
REMARK   11  A    between atoms: N7_31  and  C16_33 
REMARK   12  A    between atoms: C17_36  and  C18_37 
REMARK   13  A    between atoms: C20_42  and  C21_43 
ROOT
HETATM    1  C10 UNL     1      52.082  18.297  -1.950  1.00  0.00     0.020 C 
ENDROOT
BRANCH   1   2
HETATM    2  C9  UNL     1      52.751  17.287  -1.034  1.00  0.00     0.002 C 
BRANCH   2   3
HETATM    3  C8  UNL     1      51.805  16.169  -0.749  1.00  0.00     0.000 C 
BRANCH   3   4
HETATM    4  C7  UNL     1      52.221  14.841  -1.322  1.00  0.00     0.007 C 
BRANCH   4   5
HETATM    5  C6  UNL     1      53.553  14.887  -2.036  1.00  0.00     0.076 C 
BRANCH   5   6
HETATM    6  C5  UNL     1      53.516  14.056  -3.268  1.00  0.00     0.082 A 
HETATM    7  N4  UNL     1      54.413  13.060  -3.467  1.00  0.00    -0.355 N 
HETATM    8  C4  UNL     1      54.412  12.280  -4.564  1.00  0.00     0.108 A 
ATOM      9  H4  UNL     1      55.121  12.892  -2.752  1.00  0.00     0.166 HD
HETATM   10  C3  UNL     1      53.479  12.461  -5.559  1.00  0.00     0.068 A 
HETATM   11  C2  UNL     1      53.462  11.676  -6.690  1.00  0.00     0.130 A 
HETATM   12  C22 UNL     1      52.555  13.488  -5.353  1.00  0.00     0.137 A 
HETATM   13  N2  UNL     1      52.498  11.930  -7.629  1.00  0.00    -0.176 N 
HETATM   14  N3  UNL     1      54.280  10.723  -6.933  1.00  0.00    -0.384 N 
HETATM   15  C1  UNL     1      51.613  12.929  -7.411  1.00  0.00     0.679 A 
ATOM     16  H2  UNL     1      52.447  11.373  -8.481  1.00  0.00     0.186 HD
HETATM   17  N12 UNL     1      51.640  13.683  -6.311  1.00  0.00    -0.176 N 
ATOM     18  H12 UNL     1      50.948  14.423  -6.197  1.00  0.00     0.186 HD
ATOM     19  H32 UNL     1      54.268  10.141  -7.771  1.00  0.00     0.157 HD
ATOM     20  H31 UNL     1      54.997  10.534  -6.234  1.00  0.00     0.157 HD
HETATM   21  N11 UNL     1      52.605  14.236  -4.236  1.00  0.00    -0.331 N 
ATOM     22  H11 UNL     1      51.915  14.977  -4.119  1.00  0.00     0.168 HD
BRANCH  15  23
HETATM   23  N1  UNL     1      50.712  13.157  -8.306  1.00  0.00    -0.234 N 
ATOM     24  H12 UNL     1      50.975  13.640  -9.165  1.00  0.00     0.174 HD
ATOM     25  H11 UNL     1      49.758  12.843  -8.125  1.00  0.00     0.174 HD
ENDBRANCH  15  23
ENDBRANCH   5   6
ENDBRANCH   4   5
ENDBRANCH   3   4
ENDBRANCH   2   3
ENDBRANCH   1   2
BRANCH   1  26
HETATM   26  C11 UNL     1      52.713  18.219  -3.314  1.00  0.00     0.123 C 
BRANCH  26  27
HETATM   27  N5  UNL     1      51.796  18.544  -4.397  1.00  0.00    -0.356 N 
HETATM   28  C12 UNL     1      52.228  18.761  -5.702  1.00  0.00     0.269 C 
HETATM   29  O1  UNL     1      53.475  18.646  -5.954  1.00  0.00    -0.266 OA
ATOM     30  H5  UNL     1      50.799  18.615  -4.192  1.00  0.00     0.162 HD
BRANCH  28  31
HETATM   31  C13 UNL     1      51.387  19.106  -6.831  1.00  0.00     0.118 A 
HETATM   32  N6  UNL     1      51.033  20.403  -7.132  1.00  0.00    -0.358 N 
HETATM   33  C14 UNL     1      50.249  20.457  -8.187  1.00  0.00     0.119 A 
ATOM     34  H6  UNL     1      51.342  21.219  -6.604  1.00  0.00     0.165 HD
HETATM   35  C15 UNL     1      50.049  19.189  -8.628  1.00  0.00     0.067 A 
HETATM   36  C20 UNL     1      50.764  18.332  -7.773  1.00  0.00     0.089 A 
BRANCH  35  37
HETATM   37  N7  UNL     1      49.285  18.711  -9.716  1.00  0.00    -0.335 N 
ATOM     38  H7  UNL     1      48.651  17.920  -9.602  1.00  0.00     0.168 HD
BRANCH  37  39
HETATM   39  C16 UNL     1      49.411  19.311 -10.879  1.00  0.00     0.149 A 
HETATM   40  N8  UNL     1      50.267  20.272 -11.218  1.00  0.00    -0.332 N 
HETATM   41  C17 UNL     1      50.224  20.745 -12.441  1.00  0.00     0.106 A 
ATOM     42  H8  UNL     1      50.940  20.632 -10.542  1.00  0.00     0.168 HD
HETATM   43  C19 UNL     1      49.294  20.212 -13.293  1.00  0.00     0.088 A 
HETATM   44  S1  UNL     1      48.518  19.057 -12.310  1.00  0.00    -0.063 SA
BRANCH  41  45
HETATM   45  C18 UNL     1      51.141  21.824 -12.937  1.00  0.00     0.281 C 
HETATM   46  N9  UNL     1      51.957  22.572 -12.057  1.00  0.00    -0.056 NA
HETATM   47  O2  UNL     1      51.219  22.105 -14.144  1.00  0.00    -0.269 OA
ENDBRANCH  41  45
ENDBRANCH  37  39
ENDBRANCH  35  37
BRANCH  36  48
HETATM   48  C21 UNL     1      50.709  16.864  -7.859  1.00  0.00     0.269 C 
HETATM   49  N10 UNL     1      50.171  16.160  -6.723  1.00  0.00    -0.057 NA
HETATM   50  O3  UNL     1      51.102  16.234  -8.856  1.00  0.00    -0.271 OA
ENDBRANCH  36  48
ENDBRANCH  28  31
ENDBRANCH  26  27
ENDBRANCH   1  26
TORSDOF 13
ENDMDL
MODEL 2
REMARK VINA RESULT: -8.561625515      2.470      3.771
REMARK  13 active torsions:
REMARK  status: ('A' for Active; 'I' for Inactive)
REMARK    1  A    between atoms: N1_1  and  C1_4 
REMARK    2  A    between atoms: C5_15  and  C6_16 
REMARK    3  A    between atoms: C6_16  and  C7_17 
REMARK    4  A    between atoms: C7_17  and  C8_18 
REMARK    5  A    between atoms: C8_18  and  C9_19 
REMARK    6  A    between atoms: C9_19  and  C10_20 
REMARK    7  A    between atoms: C10_20  and  C11_21 
REMARK    8  A    between atoms: C11_21  and  N5_22 
REMARK       I    between atoms: N5_22  and  C12_24 
REMARK    9  A    between atoms: C12_24  and  C13_26 
REMARK   10  A    between atoms: C15_30  and  N7_31 
REMARK   11  A    between atoms: N7_31  and  C16_33 
REMARK   12  A    between atoms: C17_36  and  C18_37 
REMARK   13  A    between atoms: C20_42  and  C21_43 
ROOT
HETATM    1  C10 UNL     1      53.141  16.446  -2.850  1.00  0.00     0.020 C 
ENDROOT
BRANCH   1   2
HETATM    2  C9  UNL     1      52.530  15.958  -1.548  1.00  0.00     0.002 C 
BRANCH   2   3
HETATM    3  C8  UNL     1      52.529  14.466  -1.526  1.00  0.00     0.000 C 
BRANCH   3   4
HETATM    4  C7  UNL     1      53.373  13.827  -2.596  1.00  0.00     0.007 C 
BRANCH   4   5
HETATM    5  C6  UNL     1      53.683  12.372  -2.327  1.00  0.00     0.076 C 
BRANCH   5   6
HETATM    6  C5  UNL     1      54.969  11.983  -2.962  1.00  0.00     0.082 A 
HETATM    7  N4  UNL     1      55.044  11.731  -4.291  1.00  0.00    -0.355 N 
HETATM    8  C4  UNL     1      56.188  11.382  -4.908  1.00  0.00     0.108 A 
ATOM      9  H4  UNL     1      54.195  11.809  -4.851  1.00  0.00     0.166 HD
HETATM   10  C3  UNL     1      57.364  11.263  -4.203  1.00  0.00     0.068 A 
HETATM   11  C2  UNL     1      58.544  10.906  -4.814  1.00  0.00     0.130 A 
HETATM   12  C22 UNL     1      57.286  11.524  -2.833  1.00  0.00     0.137 A 
HETATM   13  N2  UNL     1      59.665  10.810  -4.032  1.00  0.00    -0.176 N 
HETATM   14  N3  UNL     1      58.678  10.655  -6.062  1.00  0.00    -0.384 N 
HETATM   15  C1  UNL     1      59.568  11.066  -2.708  1.00  0.00     0.679 A 
ATOM     16  H2  UNL     1      60.561  10.549  -4.443  1.00  0.00     0.186 HD
HETATM   17  N12 UNL     1      58.418  11.412  -2.128  1.00  0.00    -0.176 N 
ATOM     18  H12 UNL     1      58.401  11.594  -1.124  1.00  0.00     0.186 HD
ATOM     19  H32 UNL     1      59.552  10.390  -6.515  1.00  0.00     0.157 HD
ATOM     20  H31 UNL     1      57.844  10.727  -6.644  1.00  0.00     0.157 HD
HETATM   21  N11 UNL     1      56.113  11.868  -2.271  1.00  0.00    -0.331 N 
ATOM     22  H11 UNL     1      56.092  12.051  -1.268  1.00  0.00     0.168 HD
BRANCH  15  23
HETATM   23  N1  UNL     1      60.632  10.969  -1.985  1.00  0.00    -0.234 N 
ATOM     24  H12 UNL     1      61.509  11.353  -2.338  1.00  0.00     0.174 HD
ATOM     25  H11 UNL     1      60.562  10.510  -1.077  1.00  0.00     0.174 HD
ENDBRANCH  15  23
ENDBRANCH   5   6
ENDBRANCH   4   5
ENDBRANCH   3   4
ENDBRANCH   2   3
ENDBRANCH   1   2
BRANCH   1  26
HETATM   26  C11 UNL     1      52.881  17.921  -2.994  1.00  0.00     0.123 C 
BRANCH  26  27
HETATM   27  N5  UNL     1      51.975  18.246  -4.088  1.00  0.00    -0.356 N 
HETATM   28  C12 UNL     1      52.429  18.550  -5.368  1.00  0.00     0.269 C 
HETATM   29  O1  UNL     1      53.687  18.517  -5.588  1.00  0.00    -0.266 OA
ATOM     30  H5  UNL     1      50.971  18.251  -3.909  1.00  0.00     0.162 HD
BRANCH  28  31
HETATM   31  C13 UNL     1      51.600  18.901  -6.504  1.00  0.00     0.118 A 
HETATM   32  N6  UNL     1      51.282  20.202  -6.824  1.00  0.00    -0.358 N 
HETATM   33  C14 UNL     1      50.501  20.263  -7.882  1.00  0.00     0.119 A 
ATOM     34  H6  UNL     1      51.612  21.017  -6.307  1.00  0.00     0.165 HD
HETATM   35  C15 UNL     1      50.269  18.994  -8.305  1.00  0.00     0.067 A 
HETATM   36  C20 UNL     1      50.958  18.131  -7.436  1.00  0.00     0.089 A 
BRANCH  35  37
HETATM   37  N7  UNL     1      49.494  18.521  -9.388  1.00  0.00    -0.335 N 
ATOM     38  H7  UNL     1      49.034  17.612  -9.344  1.00  0.00     0.168 HD
BRANCH  37  39
HETATM   39  C16 UNL     1      49.381  19.282 -10.454  1.00  0.00     0.149 A 
HETATM   40  N8  UNL     1      50.302  20.073 -10.998  1.00  0.00    -0.332 N 
HETATM   41  C17 UNL     1      49.982  20.763 -12.069  1.00  0.00     0.106 A 
ATOM     42  H8  UNL     1      51.235  20.142 -10.593  1.00  0.00     0.168 HD
HETATM   43  C19 UNL     1      48.710  20.618 -12.556  1.00  0.00     0.088 A 
HETATM   44  S1  UNL     1      48.025  19.504 -11.464  1.00  0.00    -0.063 SA
BRANCH  41  45
HETATM   45  C18 UNL     1      50.937  21.682 -12.770  1.00  0.00     0.281 C 
HETATM   46  N9  UNL     1      51.904  22.434 -12.063  1.00  0.00    -0.056 NA
HETATM   47  O2  UNL     1      50.917  21.821 -14.003  1.00  0.00    -0.269 OA
ENDBRANCH  41  45
ENDBRANCH  37  39
ENDBRANCH  35  37
BRANCH  36  48
HETATM   48  C21 UNL     1      50.864  16.664  -7.501  1.00  0.00     0.269 C 
HETATM   49  N10 UNL     1      50.996  16.056  -8.802  1.00  0.00    -0.057 NA
HETATM   50  O3  UNL     1      50.681  15.956  -6.496  1.00  0.00    -0.271 OA
ENDBRANCH  36  48
ENDBRANCH  28  31
ENDBRANCH  26  27
ENDBRANCH   1  26
TORSDOF 13
ENDMDL
MODEL 3
REMARK VINA RESULT: -8.440402710      2.889      4.303
REMARK  13 active torsions:
REMARK  status: ('A' for Active; 'I' for Inactive)
REMARK    1  A    between atoms: N1_1  and  C1_4 
REMARK    2  A    between atoms: C5_15  and  C6_16 
REMARK    3  A    between atoms: C6_16  and  C7_17 
REMARK    4  A    between atoms: C7_17  and  C8_18 
REMARK    5  A    between atoms: C8_18  and  C9_19 
REMARK    6  A    between atoms: C9_19  and  C10_20 
REMARK    7  A    between atoms: C10_20  and  C11_21 
REMARK    8  A    between atoms: C11_21  and  N5_22 
REMARK       I    between atoms: N5_22  and  C12_24 
REMARK    9  A    between atoms: C12_24  and  C13_26 
REMARK   10  A    between atoms: C15_30  and  N7_31 
REMARK   11  A    between atoms: N7_31  and  C16_33 
REMARK   12  A    between atoms: C17_36  and  C18_37 
REMARK   13  A    between atoms: C20_42  and  C21_43 
ROOT
HETATM    1  C10 UNL     1      51.844  18.114  -1.158  1.00  0.00     0.020 C 
ENDROOT
BRANCH   1   2
HETATM    2  C9  UNL     1      52.516  16.931  -0.482  1.00  0.00     0.002 C 
BRANCH   2   3
HETATM    3  C8  UNL     1      51.713  15.696  -0.723  1.00  0.00     0.000 C 
BRANCH   3   4
HETATM    4  C7  UNL     1      52.464  14.593  -1.420  1.00  0.00     0.007 C 
BRANCH   4   5
HETATM    5  C6  UNL     1      52.820  14.923  -2.852  1.00  0.00     0.076 C 
BRANCH   5   6
HETATM    6  C5  UNL     1      53.774  13.923  -3.398  1.00  0.00     0.082 A 
HETATM    7  N4  UNL     1      53.562  13.339  -4.602  1.00  0.00    -0.355 N 
HETATM    8  C4  UNL     1      54.402  12.433  -5.137  1.00  0.00     0.108 A 
ATOM      9  H4  UNL     1      52.727  13.597  -5.128  1.00  0.00     0.166 HD
HETATM   10  C3  UNL     1      55.544  12.049  -4.471  1.00  0.00     0.068 A 
HETATM   11  C2  UNL     1      56.415  11.123  -4.999  1.00  0.00     0.130 A 
HETATM   12  C22 UNL     1      55.762  12.652  -3.231  1.00  0.00     0.137 A 
HETATM   13  N2  UNL     1      57.525  10.800  -4.265  1.00  0.00    -0.176 N 
HETATM   14  N3  UNL     1      56.269  10.539  -6.128  1.00  0.00    -0.384 N 
HETATM   15  C1  UNL     1      57.718  11.394  -3.066  1.00  0.00     0.679 A 
ATOM     16  H2  UNL     1      58.198  10.120  -4.618  1.00  0.00     0.186 HD
HETATM   17  N12 UNL     1      56.866  12.290  -2.565  1.00  0.00    -0.176 N 
ATOM     18  H12 UNL     1      57.060  12.708  -1.656  1.00  0.00     0.186 HD
ATOM     19  H32 UNL     1      56.914   9.853  -6.520  1.00  0.00     0.157 HD
ATOM     20  H31 UNL     1      55.443  10.780  -6.675  1.00  0.00     0.157 HD
HETATM   21  N11 UNL     1      54.886  13.551  -2.747  1.00  0.00    -0.331 N 
ATOM     22  H11 UNL     1      55.077  13.971  -1.837  1.00  0.00     0.168 HD
BRANCH  15  23
HETATM   23  N1  UNL     1      58.768  11.077  -2.386  1.00  0.00    -0.234 N 
ATOM     24  H12 UNL     1      59.619  11.628  -2.500  1.00  0.00     0.174 HD
ATOM     25  H11 UNL     1      58.712  10.281  -1.751  1.00  0.00     0.174 HD
ENDBRANCH  15  23
ENDBRANCH   5   6
ENDBRANCH   4   5
ENDBRANCH   3   4
ENDBRANCH   2   3
ENDBRANCH   1   2
BRANCH   1  26
HETATM   26  C11 UNL     1      52.636  18.498  -2.378  1.00  0.00     0.123 C 
BRANCH  26  27
HETATM   27  N5  UNL     1      51.853  18.480  -3.606  1.00  0.00    -0.356 N 
HETATM   28  C12 UNL     1      52.431  18.643  -4.862  1.00  0.00     0.269 C 
HETATM   29  O1  UNL     1      53.698  18.790  -4.932  1.00  0.00    -0.266 OA
ATOM     30  H5  UNL     1      50.845  18.343  -3.544  1.00  0.00     0.162 HD
BRANCH  28  31
HETATM   31  C13 UNL     1      51.725  18.656  -6.128  1.00  0.00     0.118 A 
HETATM   32  N6  UNL     1      51.507  19.809  -6.851  1.00  0.00    -0.358 N 
HETATM   33  C14 UNL     1      50.827  19.567  -7.951  1.00  0.00     0.119 A 
ATOM     34  H6  UNL     1      51.832  20.733  -6.568  1.00  0.00     0.165 HD
HETATM   35  C15 UNL     1      50.565  18.236  -8.000  1.00  0.00     0.067 A 
HETATM   36  C20 UNL     1      51.128  17.658  -6.849  1.00  0.00     0.089 A 
BRANCH  35  37
HETATM   37  N7  UNL     1      49.865  17.479  -8.965  1.00  0.00    -0.335 N 
ATOM     38  H7  UNL     1      50.328  16.728  -9.477  1.00  0.00     0.168 HD
BRANCH  37  39
HETATM   39  C16 UNL     1      48.602  17.766  -9.188  1.00  0.00     0.149 A 
HETATM   40  N8  UNL     1      47.525  17.211  -8.639  1.00  0.00    -0.332 N 
HETATM   41  C17 UNL     1      46.341  17.642  -9.008  1.00  0.00     0.106 A 
ATOM     42  H8  UNL     1      47.617  16.467  -7.948  1.00  0.00     0.168 HD
HETATM   43  C19 UNL     1      46.295  18.645  -9.940  1.00  0.00     0.088 A 
HETATM   44  S1  UNL     1      47.946  18.927 -10.251  1.00  0.00    -0.063 SA
BRANCH  41  45
HETATM   45  C18 UNL     1      45.058  17.095  -8.455  1.00  0.00     0.281 C 
HETATM   46  N9  UNL     1      45.043  16.139  -7.413  1.00  0.00    -0.056 NA
HETATM   47  O2  UNL     1      43.955  17.462  -8.891  1.00  0.00    -0.269 OA
ENDBRANCH  41  45
ENDBRANCH  37  39
ENDBRANCH  35  37
BRANCH  36  48
HETATM   48  C21 UNL     1      50.962  16.241  -6.485  1.00  0.00     0.269 C 
HETATM   49  N10 UNL     1      49.658  15.662  -6.685  1.00  0.00    -0.057 NA
HETATM   50  O3  UNL     1      51.889  15.552  -6.025  1.00  0.00    -0.271 OA
ENDBRANCH  36  48
ENDBRANCH  28  31
ENDBRANCH  26  27
ENDBRANCH   1  26
TORSDOF 13
ENDMDL
MODEL 4
REMARK VINA RESULT: -8.290241495      3.132      4.282
REMARK  13 active torsions:
REMARK  status: ('A' for Active; 'I' for Inactive)
REMARK    1  A    between atoms: N1_1  and  C1_4 
REMARK    2  A    between atoms: C5_15  and  C6_16 
REMARK    3  A    between atoms: C6_16  and  C7_17 
REMARK    4  A    between atoms: C7_17  and  C8_18 
REMARK    5  A    between atoms: C8_18  and  C9_19 
REMARK    6  A    between atoms: C9_19  and  C10_20 
REMARK    7  A    between atoms: C10_20  and  C11_21 
REMARK    8  A    between atoms: C11_21  and  N5_22 
REMARK       I    between atoms: N5_22  and  C12_24 
REMARK    9  A    between atoms: C12_24  and  C13_26 
REMARK   10  A    between atoms: C15_30  and  N7_31 
REMARK   11  A    between atoms: N7_31  and  C16_33 
REMARK   12  A    between atoms: C17_36  and  C18_37 
REMARK   13  A    between atoms: C20_42  and  C21_43 
ROOT
HETATM    1  C10 UNL     1      52.148  17.119  -0.867  1.00  0.00     0.020 C 
ENDROOT
BRANCH   1   2
HETATM    2  C9  UNL     1      52.728  15.940  -1.629  1.00  0.00     0.002 C 
BRANCH   2   3
HETATM    3  C8  UNL     1      52.006  14.692  -1.245  1.00  0.00     0.000 C 
BRANCH   3   4
HETATM    4  C7  UNL     1      52.821  13.435  -1.384  1.00  0.00     0.007 C 
BRANCH   4   5
HETATM    5  C6  UNL     1      52.648  12.753  -2.723  1.00  0.00     0.076 C 
BRANCH   5   6
HETATM    6  C5  UNL     1      53.968  12.392  -3.302  1.00  0.00     0.082 A 
HETATM    7  N4  UNL     1      55.119  12.882  -2.781  1.00  0.00    -0.355 N 
HETATM    8  C4  UNL     1      56.335  12.577  -3.270  1.00  0.00     0.108 A 
ATOM      9  H4  UNL     1      55.061  13.513  -1.981  1.00  0.00     0.166 HD
HETATM   10  C3  UNL     1      56.471  11.730  -4.346  1.00  0.00     0.068 A 
HETATM   11  C2  UNL     1      57.705  11.406  -4.863  1.00  0.00     0.130 A 
HETATM   12  C22 UNL     1      55.285  11.224  -4.882  1.00  0.00     0.137 A 
HETATM   13  N2  UNL     1      57.745  10.558  -5.937  1.00  0.00    -0.176 N 
HETATM   14  N3  UNL     1      58.824  11.836  -4.415  1.00  0.00    -0.384 N 
HETATM   15  C1  UNL     1      56.585  10.079  -6.442  1.00  0.00     0.679 A 
ATOM     16  H2  UNL     1      58.638  10.290  -6.351  1.00  0.00     0.186 HD
HETATM   17  N12 UNL     1      55.396  10.401  -5.932  1.00  0.00    -0.176 N 
ATOM     18  H12 UNL     1      54.552  10.011  -6.352  1.00  0.00     0.186 HD
ATOM     19  H32 UNL     1      59.739  11.597  -4.798  1.00  0.00     0.157 HD
ATOM     20  H31 UNL     1      58.795  12.468  -3.615  1.00  0.00     0.157 HD
HETATM   21  N11 UNL     1      54.098  11.566  -4.351  1.00  0.00    -0.331 N 
ATOM     22  H11 UNL     1      53.252  11.179  -4.769  1.00  0.00     0.168 HD
BRANCH  15  23
HETATM   23  N1  UNL     1      56.640   9.282  -7.455  1.00  0.00    -0.234 N 
ATOM     24  H12 UNL     1      57.393   8.596  -7.508  1.00  0.00     0.174 HD
ATOM     25  H11 UNL     1      55.923   9.365  -8.176  1.00  0.00     0.174 HD
ENDBRANCH  15  23
ENDBRANCH   5   6
ENDBRANCH   4   5
ENDBRANCH   3   4
ENDBRANCH   2   3
ENDBRANCH   1   2
BRANCH   1  26
HETATM   26  C11 UNL     1      52.431  18.385  -1.628  1.00  0.00     0.123 C 
BRANCH  26  27
HETATM   27  N5  UNL     1      51.807  18.424  -2.943  1.00  0.00    -0.356 N 
HETATM   28  C12 UNL     1      52.546  18.534  -4.117  1.00  0.00     0.269 C 
HETATM   29  O1  UNL     1      53.820  18.579  -4.030  1.00  0.00    -0.266 OA
ATOM     30  H5  UNL     1      50.791  18.368  -3.006  1.00  0.00     0.162 HD
BRANCH  28  31
HETATM   31  C13 UNL     1      52.005  18.597  -5.460  1.00  0.00     0.118 A 
HETATM   32  N6  UNL     1      51.847  19.780  -6.148  1.00  0.00    -0.358 N 
HETATM   33  C14 UNL     1      51.317  19.581  -7.336  1.00  0.00     0.119 A 
ATOM     34  H6  UNL     1      52.108  20.696  -5.782  1.00  0.00     0.165 HD
HETATM   35  C15 UNL     1      51.101  18.249  -7.482  1.00  0.00     0.067 A 
HETATM   36  C20 UNL     1      51.530  17.624  -6.298  1.00  0.00     0.089 A 
BRANCH  35  37
HETATM   37  N7  UNL     1      50.549  17.527  -8.564  1.00  0.00    -0.335 N 
ATOM     38  H7  UNL     1      51.138  16.946  -9.160  1.00  0.00     0.168 HD
BRANCH  37  39
HETATM   39  C16 UNL     1      49.256  17.624  -8.783  1.00  0.00     0.149 A 
HETATM   40  N8  UNL     1      48.271  16.954  -8.191  1.00  0.00    -0.332 N 
HETATM   41  C17 UNL     1      47.036  17.196  -8.565  1.00  0.00     0.106 A 
ATOM     42  H8  UNL     1      48.471  16.268  -7.464  1.00  0.00     0.168 HD
HETATM   43  C19 UNL     1      46.844  18.131  -9.547  1.00  0.00     0.088 A 
HETATM   44  S1  UNL     1      48.438  18.624  -9.896  1.00  0.00    -0.063 SA
BRANCH  41  45
HETATM   45  C18 UNL     1      45.846  16.506  -7.966  1.00  0.00     0.281 C 
HETATM   46  N9  UNL     1      45.929  15.194  -7.443  1.00  0.00    -0.056 NA
HETATM   47  O2  UNL     1      44.737  17.060  -7.906  1.00  0.00    -0.269 OA
ENDBRANCH  41  45
ENDBRANCH  37  39
ENDBRANCH  35  37
BRANCH  36  48
HETATM   48  C21 UNL     1      51.360  16.188  -6.027  1.00  0.00     0.269 C 
HETATM   49  N10 UNL     1      52.399  15.536  -5.270  1.00  0.00    -0.057 NA
HETATM   50  O3  UNL     1      50.373  15.542  -6.420  1.00  0.00    -0.271 OA
ENDBRANCH  36  48
ENDBRANCH  28  31
ENDBRANCH  26  27
ENDBRANCH   1  26
TORSDOF 13
ENDMDL
MODEL 5
REMARK VINA RESULT: -8.233955508      2.703      3.358
REMARK  13 active torsions:
REMARK  status: ('A' for Active; 'I' for Inactive)
REMARK    1  A    between atoms: N1_1  and  C1_4 
REMARK    2  A    between atoms: C5_15  and  C6_16 
REMARK    3  A    between atoms: C6_16  and  C7_17 
REMARK    4  A    between atoms: C7_17  and  C8_18 
REMARK    5  A    between atoms: C8_18  and  C9_19 
REMARK    6  A    between atoms: C9_19  and  C10_20 
REMARK    7  A    between atoms: C10_20  and  C11_21 
REMARK    8  A    between atoms: C11_21  and  N5_22 
REMARK       I    between atoms: N5_22  and  C12_24 
REMARK    9  A    between atoms: C12_24  and  C13_26 
REMARK   10  A    between atoms: C15_30  and  N7_31 
REMARK   11  A    between atoms: N7_31  and  C16_33 
REMARK   12  A    between atoms: C17_36  and  C18_37 
REMARK   13  A    between atoms: C20_42  and  C21_43 
ROOT
HETATM    1  C10 UNL     1      53.059  17.137  -1.787  1.00  0.00     0.020 C 
ENDROOT
BRANCH   1   2
HETATM    2  C9  UNL     1      52.186  16.629  -0.653  1.00  0.00     0.002 C 
BRANCH   2   3
HETATM    3  C8  UNL     1      51.916  15.174  -0.844  1.00  0.00     0.000 C 
BRANCH   3   4
HETATM    4  C7  UNL     1      52.605  14.565  -2.035  1.00  0.00     0.007 C 
BRANCH   4   5
HETATM    5  C6  UNL     1      52.789  13.069  -1.921  1.00  0.00     0.076 C 
BRANCH   5   6
HETATM    6  C5  UNL     1      52.910  12.452  -3.267  1.00  0.00     0.082 A 
HETATM    7  N4  UNL     1      53.718  11.384  -3.478  1.00  0.00    -0.355 N 
HETATM    8  C4  UNL     1      53.853  10.791  -4.678  1.00  0.00     0.108 A 
ATOM      9  H4  UNL     1      54.248  11.012  -2.690  1.00  0.00     0.166 HD
HETATM   10  C3  UNL     1      53.160  11.250  -5.775  1.00  0.00     0.068 A 
HETATM   11  C2  UNL     1      53.286  10.659  -7.012  1.00  0.00     0.130 A 
HETATM   12  C22 UNL     1      52.328  12.350  -5.558  1.00  0.00     0.137 A 
HETATM   13  N2  UNL     1      52.560  11.186  -8.048  1.00  0.00    -0.176 N 
HETATM   14  N3  UNL     1      54.030   9.651  -7.272  1.00  0.00    -0.384 N 
HETATM   15  C1  UNL     1      51.760  12.251  -7.817  1.00  0.00     0.679 A 
ATOM     16  H2  UNL     1      52.621  10.779  -8.981  1.00  0.00     0.186 HD
HETATM   17  N12 UNL     1      51.647  12.815  -6.614  1.00  0.00    -0.176 N 
ATOM     18  H12 UNL     1      51.029  13.617  -6.494  1.00  0.00     0.186 HD
ATOM     19  H32 UNL     1      54.124   9.213  -8.189  1.00  0.00     0.157 HD
ATOM     20  H31 UNL     1      54.570   9.259  -6.501  1.00  0.00     0.157 HD
HETATM   21  N11 UNL     1      52.234  12.902  -4.335  1.00  0.00    -0.331 N 
ATOM     22  H11 UNL     1      51.617  13.705  -4.213  1.00  0.00     0.168 HD
BRANCH  15  23
HETATM   23  N1  UNL     1      51.084  12.736  -8.803  1.00  0.00    -0.234 N 
ATOM     24  H12 UNL     1      50.146  13.099  -8.632  1.00  0.00     0.174 HD
ATOM     25  H11 UNL     1      51.513  12.741  -9.729  1.00  0.00     0.174 HD
ENDBRANCH  15  23
ENDBRANCH   5   6
ENDBRANCH   4   5
ENDBRANCH   3   4
ENDBRANCH   2   3
ENDBRANCH   1   2
BRANCH   1  26
HETATM   26  C11 UNL     1      52.573  18.496  -2.212  1.00  0.00     0.123 C 
BRANCH  26  27
HETATM   27  N5  UNL     1      51.828  18.481  -3.463  1.00  0.00    -0.356 N 
HETATM   28  C12 UNL     1      52.440  18.663  -4.699  1.00  0.00     0.269 C 
HETATM   29  O1  UNL     1      53.707  18.827  -4.730  1.00  0.00    -0.266 OA
ATOM     30  H5  UNL     1      50.819  18.330  -3.432  1.00  0.00     0.162 HD
BRANCH  28  31
HETATM   31  C13 UNL     1      51.772  18.680  -5.986  1.00  0.00     0.118 A 
HETATM   32  N6  UNL     1      51.545  19.838  -6.696  1.00  0.00    -0.358 N 
HETATM   33  C14 UNL     1      50.905  19.599  -7.820  1.00  0.00     0.119 A 
ATOM     34  H6  UNL     1      51.838  20.766  -6.389  1.00  0.00     0.165 HD
HETATM   35  C15 UNL     1      50.679  18.262  -7.898  1.00  0.00     0.067 A 
HETATM   36  C20 UNL     1      51.222  17.679  -6.740  1.00  0.00     0.089 A 
BRANCH  35  37
HETATM   37  N7  UNL     1      50.028  17.503  -8.896  1.00  0.00    -0.335 N 
ATOM     38  H7  UNL     1      50.522  16.766  -9.398  1.00  0.00     0.168 HD
BRANCH  37  39
HETATM   39  C16 UNL     1      48.769  17.772  -9.161  1.00  0.00     0.149 A 
HETATM   40  N8  UNL     1      47.682  17.247  -8.602  1.00  0.00    -0.332 N 
HETATM   41  C17 UNL     1      46.505  17.650  -9.020  1.00  0.00     0.106 A 
ATOM     42  H8  UNL     1      47.762  16.546  -7.865  1.00  0.00     0.168 HD
HETATM   43  C19 UNL     1      46.476  18.594 -10.012  1.00  0.00     0.088 A 
HETATM   44  S1  UNL     1      48.132  18.864 -10.306  1.00  0.00    -0.063 SA
BRANCH  41  45
HETATM   45  C18 UNL     1      45.212  17.133  -8.462  1.00  0.00     0.281 C 
HETATM   46  N9  UNL     1      45.179  16.214  -7.387  1.00  0.00    -0.056 NA
HETATM   47  O2  UNL     1      44.117  17.492  -8.921  1.00  0.00    -0.269 OA
ENDBRANCH  41  45
ENDBRANCH  37  39
ENDBRANCH  35  37
BRANCH  36  48
HETATM   48  C21 UNL     1      51.083  16.253  -6.404  1.00  0.00     0.269 C 
HETATM   49  N10 UNL     1      49.824  15.625  -6.720  1.00  0.00    -0.057 NA
HETATM   50  O3  UNL     1      51.994  15.594  -5.872  1.00  0.00    -0.271 OA
ENDBRANCH  36  48
ENDBRANCH  28  31
ENDBRANCH  26  27
ENDBRANCH   1  26
TORSDOF 13
ENDMDL
