MODEL 1
REMARK VINA RESULT: -8.759824518      0.000      0.000
REMARK  15 active torsions:
REMARK  status: ('A' for Active; 'I' for Inactive)
REMARK    1  A    between atoms: C4_4  and  N1_5 
REMARK    2  A    between atoms: N1_5  and  C5_7 
REMARK    3  A    between atoms: C6_10  and  N3_11 
REMARK    4  A    between atoms: N3_11  and  C7_13 
REMARK    5  A    between atoms: C7_13  and  C8_14 
REMARK    6  A    between atoms: C13_20  and  C14_21 
REMARK    7  A    between atoms: N4_24  and  C17_25 
REMARK    8  A    between atoms: C17_25  and  C18_26 
REMARK    9  A    between atoms: C18_26  and  C19_27 
REMARK   10  A    between atoms: C19_27  and  N5_28 
REMARK       I    between atoms: N5_28  and  C20_30 
REMARK   11  A    between atoms: C21_35  and  N8_36 
REMARK   12  A    between atoms: C22_45  and  N12_46 
REMARK   13  A    between atoms: N12_46  and  C23_48 
REMARK   14  A    between atoms: C23_48  and  C24_49 
REMARK   15  A    between atoms: C24_49  and  O2_50 
ROOT
HETATM    1  C5  UNL     1      50.698  19.751  -8.055  1.00  0.00     0.686 A 
HETATM    2  N2  UNL     1      49.622  19.052  -8.383  1.00  0.00    -0.174 N 
ATOM      3  H2  UNL     1      49.114  18.442  -7.743  1.00  0.00     0.186 HD
HETATM    4  C6  UNL     1      49.278  19.256  -9.702  1.00  0.00     0.146 A 
HETATM    5  C13 UNL     1      50.210  20.133 -10.195  1.00  0.00     0.120 A 
HETATM    6  N10 UNL     1      51.057  20.406  -9.142  1.00  0.00    -0.185 N 
ATOM      7  H10 UNL     1      51.859  21.033  -9.196  1.00  0.00     0.184 HD
ENDROOT
BRANCH   5   8
HETATM    8  C14 UNL     1      50.351  20.711 -11.513  1.00  0.00     0.081 A 
HETATM    9  C15 UNL     1      49.821  20.278 -12.674  1.00  0.00     0.050 A 
HETATM   10  C16 UNL     1      50.079  20.945 -13.897  1.00  0.00     0.111 A 
HETATM   11  N4  UNL     1      50.860  22.024 -13.931  1.00  0.00    -0.194 N 
HETATM   12  C21 UNL     1      51.375  22.431 -12.761  1.00  0.00     0.678 A 
HETATM   13  N9  UNL     1      51.138  21.810 -11.600  1.00  0.00    -0.190 N 
ATOM     14  H9  UNL     1      51.565  22.178 -10.750  1.00  0.00     0.184 HD
BRANCH  11  15
HETATM   15  C17 UNL     1      51.155  22.751 -15.177  1.00  0.00     0.148 C 
BRANCH  15  16
HETATM   16  C18 UNL     1      49.935  22.897 -16.018  1.00  0.00     0.040 C 
BRANCH  16  17
HETATM   17  C19 UNL     1      49.065  24.062 -15.739  1.00  0.00     0.124 C 
BRANCH  17  18
HETATM   18  N5  UNL     1      48.624  24.245 -14.398  1.00  0.00    -0.365 N 
HETATM   19  C20 UNL     1      47.574  23.592 -13.744  1.00  0.00     0.181 C 
HETATM   20  N6  UNL     1      47.710  23.208 -12.529  1.00  0.00    -0.374 N 
HETATM   21  N7  UNL     1      46.348  23.344 -14.403  1.00  0.00    -0.064 NA
ATOM     22  H62 UNL     1      48.594  23.386 -12.053  1.00  0.00     0.158 HD
ATOM     23  H61 UNL     1      46.944  22.730 -12.053  1.00  0.00     0.158 HD
ATOM     24  H5  UNL     1      49.134  24.936 -13.848  1.00  0.00     0.162 HD
ENDBRANCH  17  18
ENDBRANCH  16  17
ENDBRANCH  15  16
ENDBRANCH  11  15
BRANCH  12  25
HETATM   25  N8  UNL     1      52.135  23.485 -12.815  1.00  0.00    -0.234 N 
ATOM     26  H82 UNL     1      51.784  24.367 -13.185  1.00  0.00     0.174 HD
ATOM     27  H81 UNL     1      53.086  23.363 -12.468  1.00  0.00     0.174 HD
ENDBRANCH  12  25
ENDBRANCH   5   8
BRANCH   4  28
HETATM   28  N3  UNL     1      48.122  18.700 -10.292  1.00  0.00    -0.374 N 
ATOM     29  H3  UNL     1      47.379  19.330 -10.595  1.00  0.00     0.161 HD
BRANCH  28  30
HETATM   30  C7  UNL     1      47.946  17.275 -10.487  1.00  0.00     0.126 C 
BRANCH  30  31
HETATM   31  C8  UNL     1      47.223  16.542  -9.426  1.00  0.00     0.007 C 
HETATM   32  C9  UNL     1      47.998  15.869  -8.375  1.00  0.00     0.032 C 
HETATM   33  C10 UNL     1      47.135  15.324  -7.252  1.00  0.00     0.168 C 
HETATM   34  O1  UNL     1      46.093  16.177  -6.929  1.00  0.00    -0.391 OA
HETATM   35  C11 UNL     1      45.294  16.562  -7.968  1.00  0.00     0.168 C 
HETATM   36  C12 UNL     1      46.127  17.446  -8.876  1.00  0.00     0.032 C 
ENDBRANCH  30  31
ENDBRANCH  28  30
ENDBRANCH   4  28
BRANCH   1  37
HETATM   37  N1  UNL     1      51.348  19.793  -6.786  1.00  0.00    -0.176 N 
ATOM     38  H1  UNL     1      51.540  20.707  -6.376  1.00  0.00     0.186 HD
BRANCH  37  39
HETATM   39  C4  UNL     1      51.708  18.743  -6.126  1.00  0.00     0.138 A 
HETATM   40  C3  UNL     1      51.344  17.473  -6.505  1.00  0.00     0.074 A 
HETATM   41  C2  UNL     1      51.771  16.405  -5.738  1.00  0.00     0.026 A 
HETATM   42  C1  UNL     1      51.393  15.008  -6.118  1.00  0.00     0.069 C 
HETATM   43  N13 UNL     1      52.519  16.659  -4.666  1.00  0.00    -0.196 N 
HETATM   44  C22 UNL     1      52.881  17.896  -4.288  1.00  0.00     0.679 A 
ATOM     45  H13 UNL     1      52.835  15.872  -4.101  1.00  0.00     0.184 HD
HETATM   46  N11 UNL     1      52.472  18.939  -5.023  1.00  0.00    -0.176 N 
ATOM     47  H11 UNL     1      52.736  19.886  -4.752  1.00  0.00     0.186 HD
BRANCH  44  48
HETATM   48  N12 UNL     1      53.602  18.113  -3.249  1.00  0.00    -0.224 N 
ATOM     49  H12 UNL     1      54.484  18.618  -3.338  1.00  0.00     0.177 HD
BRANCH  48  50
HETATM   50  C23 UNL     1      53.166  17.642  -1.956  1.00  0.00     0.164 C 
BRANCH  50  51
HETATM   51  C24 UNL     1      52.246  18.665  -1.304  1.00  0.00     0.184 C 
BRANCH  51  52
HETATM   52  O2  UNL     1      51.060  18.794  -1.998  1.00  0.00    -0.399 OA
ATOM     53  H2  UNL     1      51.151  19.387  -2.735  1.00  0.00     0.209 HD
ENDBRANCH  51  52
ENDBRANCH  50  51
ENDBRANCH  48  50
ENDBRANCH  44  48
ENDBRANCH  37  39
ENDBRANCH   1  37
TORSDOF 15
ENDMDL
MODEL 2
REMARK VINA RESULT: -8.722863534      3.196      7.196
REMARK  15 active torsions:
REMARK  status: ('A' for Active; 'I' for Inactive)
REMARK    1  A    between atoms: C4_4  and  N1_5 
REMARK    2  A    between atoms: N1_5  and  C5_7 
REMARK    3  A    between atoms: C6_10  and  N3_11 
REMARK    4  A    between atoms: N3_11  and  C7_13 
REMARK    5  A    between atoms: C7_13  and  C8_14 
REMARK    6  A    between atoms: C13_20  and  C14_21 
REMARK    7  A    between atoms: N4_24  and  C17_25 
REMARK    8  A    between atoms: C17_25  and  C18_26 
REMARK    9  A    between atoms: C18_26  and  C19_27 
REMARK   10  A    between atoms: C19_27  and  N5_28 
REMARK       I    between atoms: N5_28  and  C20_30 
REMARK   11  A    between atoms: C21_35  and  N8_36 
REMARK   12  A    between atoms: C22_45  and  N12_46 
REMARK   13  A    between atoms: N12_46  and  C23_48 
REMARK   14  A    between atoms: C23_48  and  C24_49 
REMARK   15  A    between atoms: C24_49  and  O2_50 
ROOT
HETATM    1  C5  UNL     1      52.010  18.895  -5.702  1.00  0.00     0.686 A 
HETATM    2  N2  UNL     1      51.684  19.929  -6.462  1.00  0.00    -0.174 N 
ATOM      3  H2  UNL     1      52.054  20.872  -6.342  1.00  0.00     0.186 HD
HETATM    4  C6  UNL     1      50.779  19.566  -7.437  1.00  0.00     0.146 A 
HETATM    5  C13 UNL     1      50.548  18.228  -7.244  1.00  0.00     0.120 A 
HETATM    6  N10 UNL     1      51.330  17.866  -6.169  1.00  0.00    -0.185 N 
ATOM      7  H10 UNL     1      51.377  16.923  -5.782  1.00  0.00     0.184 HD
ENDROOT
BRANCH   5   8
HETATM    8  C14 UNL     1      49.697  17.309  -7.967  1.00  0.00     0.081 A 
HETATM    9  C15 UNL     1      48.949  17.550  -9.061  1.00  0.00     0.050 A 
HETATM   10  C16 UNL     1      48.139  16.541  -9.640  1.00  0.00     0.111 A 
HETATM   11  N4  UNL     1      48.095  15.320  -9.110  1.00  0.00    -0.194 N 
HETATM   12  C21 UNL     1      48.848  15.108  -8.020  1.00  0.00     0.678 A 
HETATM   13  N9  UNL     1      49.617  16.052  -7.466  1.00  0.00    -0.190 N 
ATOM     14  H9  UNL     1      50.163  15.817  -6.637  1.00  0.00     0.184 HD
BRANCH  11  15
HETATM   15  C17 UNL     1      47.270  14.239  -9.676  1.00  0.00     0.148 C 
BRANCH  15  16
HETATM   16  C18 UNL     1      47.749  13.848 -11.031  1.00  0.00     0.040 C 
BRANCH  16  17
HETATM   17  C19 UNL     1      48.969  13.012 -11.095  1.00  0.00     0.124 C 
BRANCH  17  18
HETATM   18  N5  UNL     1      50.219  13.683 -11.210  1.00  0.00    -0.365 N 
HETATM   19  C20 UNL     1      51.411  13.396 -10.536  1.00  0.00     0.181 C 
HETATM   20  N6  UNL     1      52.531  13.438 -11.159  1.00  0.00    -0.374 N 
HETATM   21  N7  UNL     1      51.409  13.059  -9.164  1.00  0.00    -0.064 NA
ATOM     22  H62 UNL     1      52.533  13.682 -12.149  1.00  0.00     0.158 HD
ATOM     23  H61 UNL     1      53.400  13.229 -10.668  1.00  0.00     0.158 HD
ATOM     24  H5  UNL     1      50.250  14.467 -11.861  1.00  0.00     0.162 HD
ENDBRANCH  17  18
ENDBRANCH  16  17
ENDBRANCH  15  16
ENDBRANCH  11  15
BRANCH  12  25
HETATM   25  N8  UNL     1      48.790  13.910  -7.519  1.00  0.00    -0.234 N 
ATOM     26  H82 UNL     1      49.371  13.157  -7.887  1.00  0.00     0.174 HD
ATOM     27  H81 UNL     1      48.135  13.784  -6.747  1.00  0.00     0.174 HD
ENDBRANCH  12  25
ENDBRANCH   5   8
BRANCH   4  28
HETATM   28  N3  UNL     1      50.326  20.452  -8.438  1.00  0.00    -0.374 N 
ATOM     29  H3  UNL     1      49.522  21.046  -8.236  1.00  0.00     0.161 HD
BRANCH  28  30
HETATM   30  C7  UNL     1      50.954  20.555  -9.740  1.00  0.00     0.126 C 
BRANCH  30  31
HETATM   31  C8  UNL     1      50.193  21.258 -10.794  1.00  0.00     0.007 C 
HETATM   32  C9  UNL     1      50.687  22.552 -11.282  1.00  0.00     0.032 C 
HETATM   33  C10 UNL     1      49.925  23.067 -12.489  1.00  0.00     0.168 C 
HETATM   34  O1  UNL     1      49.597  22.054 -13.375  1.00  0.00    -0.391 OA
HETATM   35  C11 UNL     1      48.931  20.987 -12.839  1.00  0.00     0.168 C 
HETATM   36  C12 UNL     1      49.896  20.269 -11.915  1.00  0.00     0.032 C 
ENDBRANCH  30  31
ENDBRANCH  28  30
ENDBRANCH   4  28
BRANCH   1  37
HETATM   37  N1  UNL     1      52.912  18.885  -4.597  1.00  0.00    -0.176 N 
ATOM     38  H1  UNL     1      53.654  19.584  -4.577  1.00  0.00     0.186 HD
BRANCH  37  39
HETATM   39  C4  UNL     1      52.843  18.044  -3.620  1.00  0.00     0.138 A 
HETATM   40  C3  UNL     1      52.787  18.441  -2.306  1.00  0.00     0.074 A 
HETATM   41  C2  UNL     1      52.718  17.472  -1.322  1.00  0.00     0.026 A 
HETATM   42  C1  UNL     1      52.657  17.867   0.120  1.00  0.00     0.069 C 
HETATM   43  N13 UNL     1      52.707  16.194  -1.698  1.00  0.00    -0.196 N 
HETATM   44  C22 UNL     1      52.761  15.795  -2.979  1.00  0.00     0.679 A 
ATOM     45  H13 UNL     1      52.656  15.479  -0.972  1.00  0.00     0.184 HD
HETATM   46  N11 UNL     1      52.829  16.726  -3.940  1.00  0.00    -0.176 N 
ATOM     47  H11 UNL     1      52.870  16.442  -4.919  1.00  0.00     0.186 HD
BRANCH  44  48
HETATM   48  N12 UNL     1      52.750  14.556  -3.313  1.00  0.00    -0.224 N 
ATOM     49  H12 UNL     1      52.290  13.871  -2.713  1.00  0.00     0.177 HD
BRANCH  48  50
HETATM   50  C23 UNL     1      53.388  14.132  -4.537  1.00  0.00     0.164 C 
BRANCH  50  51
HETATM   51  C24 UNL     1      52.346  13.643  -5.533  1.00  0.00     0.184 C 
BRANCH  51  52
HETATM   52  O2  UNL     1      51.499  14.661  -5.921  1.00  0.00    -0.399 OA
ATOM     53  H2  UNL     1      51.105  14.483  -6.767  1.00  0.00     0.209 HD
ENDBRANCH  51  52
ENDBRANCH  50  51
ENDBRANCH  48  50
ENDBRANCH  44  48
ENDBRANCH  37  39
ENDBRANCH   1  37
TORSDOF 15
ENDMDL
MODEL 3
REMARK VINA RESULT: -8.688953775      1.946      3.128
REMARK  15 active torsions:
REMARK  status: ('A' for Active; 'I' for Inactive)
REMARK    1  A    between atoms: C4_4  and  N1_5 
REMARK    2  A    between atoms: N1_5  and  C5_7 
REMARK    3  A    between atoms: C6_10  and  N3_11 
REMARK    4  A    between atoms: N3_11  and  C7_13 
REMARK    5  A    between atoms: C7_13  and  C8_14 
REMARK    6  A    between atoms: C13_20  and  C14_21 
REMARK    7  A    between atoms: N4_24  and  C17_25 
REMARK    8  A    between atoms: C17_25  and  C18_26 
REMARK    9  A    between atoms: C18_26  and  C19_27 
REMARK   10  A    between atoms: C19_27  and  N5_28 
REMARK       I    between atoms: N5_28  and  C20_30 
REMARK   11  A    between atoms: C21_35  and  N8_36 
REMARK   12  A    between atoms: C22_45  and  N12_46 
REMARK   13  A    between atoms: N12_46  and  C23_48 
REMARK   14  A    between atoms: C23_48  and  C24_49 
REMARK   15  A    between atoms: C24_49  and  O2_50 
ROOT
HETATM    1  C5  UNL     1      51.777  18.188  -6.390  1.00  0.00     0.686 A 
HETATM    2  N2  UNL     1      50.611  17.585  -6.218  1.00  0.00    -0.174 N 
ATOM      3  H2  UNL     1      50.381  16.993  -5.421  1.00  0.00     0.186 HD
HETATM    4  C6  UNL     1      49.748  17.862  -7.256  1.00  0.00     0.146 A 
HETATM    5  C13 UNL     1      50.445  18.683  -8.106  1.00  0.00     0.120 A 
HETATM    6  N10 UNL     1      51.683  18.853  -7.526  1.00  0.00    -0.185 N 
ATOM      7  H10 UNL     1      52.433  19.420  -7.924  1.00  0.00     0.184 HD
ENDROOT
BRANCH   5   8
HETATM    8  C14 UNL     1      50.049  19.296  -9.354  1.00  0.00     0.081 A 
HETATM    9  C15 UNL     1      49.633  18.692 -10.484  1.00  0.00     0.050 A 
HETATM   10  C16 UNL     1      49.305  19.438 -11.643  1.00  0.00     0.111 A 
HETATM   11  N4  UNL     1      49.403  20.767 -11.646  1.00  0.00    -0.194 N 
HETATM   12  C21 UNL     1      49.822  21.341 -10.508  1.00  0.00     0.678 A 
HETATM   13  N9  UNL     1      50.132  20.647  -9.407  1.00  0.00    -0.190 N 
ATOM     14  H9  UNL     1      50.444  21.154  -8.578  1.00  0.00     0.184 HD
BRANCH  11  15
HETATM   15  C17 UNL     1      49.072  21.585 -12.825  1.00  0.00     0.148 C 
BRANCH  15  16
HETATM   16  C18 UNL     1      49.935  21.232 -13.986  1.00  0.00     0.040 C 
BRANCH  16  17
HETATM   17  C19 UNL     1      50.764  22.317 -14.558  1.00  0.00     0.124 C 
BRANCH  17  18
HETATM   18  N5  UNL     1      51.142  23.382 -13.691  1.00  0.00    -0.365 N 
HETATM   19  C20 UNL     1      52.268  23.455 -12.864  1.00  0.00     0.181 C 
HETATM   20  N6  UNL     1      52.926  24.550 -12.766  1.00  0.00    -0.374 N 
HETATM   21  N7  UNL     1      52.699  22.333 -12.122  1.00  0.00    -0.064 NA
ATOM     22  H62 UNL     1      52.615  25.360 -13.302  1.00  0.00     0.158 HD
ATOM     23  H61 UNL     1      53.747  24.603 -12.164  1.00  0.00     0.158 HD
ATOM     24  H5  UNL     1      50.517  24.188 -13.671  1.00  0.00     0.162 HD
ENDBRANCH  17  18
ENDBRANCH  16  17
ENDBRANCH  15  16
ENDBRANCH  11  15
BRANCH  12  25
HETATM   25  N8  UNL     1      49.911  22.638 -10.530  1.00  0.00    -0.234 N 
ATOM     26  H82 UNL     1      49.142  23.212 -10.874  1.00  0.00     0.174 HD
ATOM     27  H81 UNL     1      50.788  23.028 -10.186  1.00  0.00     0.174 HD
ENDBRANCH  12  25
ENDBRANCH   5   8
BRANCH   4  28
HETATM   28  N3  UNL     1      48.408  17.418  -7.285  1.00  0.00    -0.374 N 
ATOM     29  H3  UNL     1      47.745  17.825  -6.626  1.00  0.00     0.161 HD
BRANCH  28  30
HETATM   30  C7  UNL     1      47.934  16.408  -8.211  1.00  0.00     0.126 C 
BRANCH  30  31
HETATM   31  C8  UNL     1      46.531  16.523  -8.662  1.00  0.00     0.007 C 
HETATM   32  C9  UNL     1      45.454  16.279  -7.694  1.00  0.00     0.032 C 
HETATM   33  C10 UNL     1      44.077  16.617  -8.235  1.00  0.00     0.168 C 
HETATM   34  O1  UNL     1      44.084  17.763  -9.013  1.00  0.00    -0.391 OA
HETATM   35  C11 UNL     1      44.990  17.781 -10.037  1.00  0.00     0.168 C 
HETATM   36  C12 UNL     1      46.373  17.837  -9.416  1.00  0.00     0.032 C 
ENDBRANCH  30  31
ENDBRANCH  28  30
ENDBRANCH   4  28
BRANCH   1  37
HETATM   37  N1  UNL     1      52.914  18.135  -5.530  1.00  0.00    -0.176 N 
ATOM     38  H1  UNL     1      53.785  18.552  -5.860  1.00  0.00     0.186 HD
BRANCH  37  39
HETATM   39  C4  UNL     1      52.905  17.591  -4.359  1.00  0.00     0.138 A 
HETATM   40  C3  UNL     1      52.986  16.232  -4.176  1.00  0.00     0.074 A 
HETATM   41  C2  UNL     1      52.967  15.734  -2.886  1.00  0.00     0.026 A 
HETATM   42  C1  UNL     1      53.051  14.259  -2.648  1.00  0.00     0.069 C 
HETATM   43  N13 UNL     1      52.872  16.600  -1.879  1.00  0.00    -0.196 N 
HETATM   44  C22 UNL     1      52.794  17.931  -2.047  1.00  0.00     0.679 A 
ATOM     45  H13 UNL     1      52.859  16.234  -0.928  1.00  0.00     0.184 HD
HETATM   46  N11 UNL     1      52.811  18.423  -3.292  1.00  0.00    -0.176 N 
ATOM     47  H11 UNL     1      52.752  19.431  -3.440  1.00  0.00     0.186 HD
BRANCH  44  48
HETATM   48  N12 UNL     1      52.703  18.743  -1.058  1.00  0.00    -0.224 N 
ATOM     49  H12 UNL     1      51.793  19.118  -0.789  1.00  0.00     0.177 HD
BRANCH  48  50
HETATM   50  C23 UNL     1      53.888  19.125  -0.326  1.00  0.00     0.164 C 
BRANCH  50  51
HETATM   51  C24 UNL     1      54.655  20.198  -1.087  1.00  0.00     0.184 C 
BRANCH  51  52
HETATM   52  O2  UNL     1      55.498  19.645  -2.030  1.00  0.00    -0.399 OA
ATOM     53  H2  UNL     1      55.996  20.313  -2.486  1.00  0.00     0.209 HD
ENDBRANCH  51  52
ENDBRANCH  50  51
ENDBRANCH  48  50
ENDBRANCH  44  48
ENDBRANCH  37  39
ENDBRANCH   1  37
TORSDOF 15
ENDMDL
MODEL 4
REMARK VINA RESULT: -8.618834831      6.802     13.410
REMARK  15 active torsions:
REMARK  status: ('A' for Active; 'I' for Inactive)
REMARK    1  A    between atoms: C4_4  and  N1_5 
REMARK    2  A    between atoms: N1_5  and  C5_7 
REMARK    3  A    between atoms: C6_10  and  N3_11 
REMARK    4  A    between atoms: N3_11  and  C7_13 
REMARK    5  A    between atoms: C7_13  and  C8_14 
REMARK    6  A    between atoms: C13_20  and  C14_21 
REMARK    7  A    between atoms: N4_24  and  C17_25 
REMARK    8  A    between atoms: C17_25  and  C18_26 
REMARK    9  A    between atoms: C18_26  and  C19_27 
REMARK   10  A    between atoms: C19_27  and  N5_28 
REMARK       I    between atoms: N5_28  and  C20_30 
REMARK   11  A    between atoms: C21_35  and  N8_36 
REMARK   12  A    between atoms: C22_45  and  N12_46 
REMARK   13  A    between atoms: N12_46  and  C23_48 
REMARK   14  A    between atoms: C23_48  and  C24_49 
REMARK   15  A    between atoms: C24_49  and  O2_50 
ROOT
HETATM    1  C5  UNL     1      53.112  14.439  -2.990  1.00  0.00     0.686 A 
HETATM    2  N2  UNL     1      52.651  13.748  -4.021  1.00  0.00    -0.174 N 
ATOM      3  H2  UNL     1      51.794  13.972  -4.527  1.00  0.00     0.186 HD
HETATM    4  C6  UNL     1      53.479  12.688  -4.322  1.00  0.00     0.146 A 
HETATM    5  C13 UNL     1      54.501  12.748  -3.409  1.00  0.00     0.120 A 
HETATM    6  N10 UNL     1      54.228  13.842  -2.617  1.00  0.00    -0.185 N 
ATOM      7  H10 UNL     1      54.813  14.151  -1.841  1.00  0.00     0.184 HD
ENDROOT
BRANCH   5   8
HETATM    8  C14 UNL     1      55.660  11.901  -3.242  1.00  0.00     0.081 A 
HETATM    9  C15 UNL     1      55.748  10.729  -2.582  1.00  0.00     0.050 A 
HETATM   10  C16 UNL     1      56.976  10.028  -2.484  1.00  0.00     0.111 A 
HETATM   11  N4  UNL     1      58.083  10.514  -3.043  1.00  0.00    -0.194 N 
HETATM   12  C21 UNL     1      57.966  11.682  -3.691  1.00  0.00     0.678 A 
HETATM   13  N9  UNL     1      56.813  12.353  -3.792  1.00  0.00    -0.190 N 
ATOM     14  H9  UNL     1      56.801  13.237  -4.302  1.00  0.00     0.184 HD
BRANCH  11  15
HETATM   15  C17 UNL     1      59.380   9.821  -2.969  1.00  0.00     0.148 C 
BRANCH  15  16
HETATM   16  C18 UNL     1      59.249   8.503  -2.287  1.00  0.00     0.040 C 
BRANCH  16  17
HETATM   17  C19 UNL     1      59.755   8.414  -0.899  1.00  0.00     0.124 C 
BRANCH  17  18
HETATM   18  N5  UNL     1      59.480   9.507  -0.029  1.00  0.00    -0.365 N 
HETATM   19  C20 UNL     1      58.636   9.523   1.087  1.00  0.00     0.181 C 
HETATM   20  N6  UNL     1      58.992  10.134   2.157  1.00  0.00    -0.374 N 
HETATM   21  N7  UNL     1      57.381   8.875   1.059  1.00  0.00    -0.064 NA
ATOM     22  H62 UNL     1      59.898  10.602   2.177  1.00  0.00     0.158 HD
ATOM     23  H61 UNL     1      58.377  10.145   2.970  1.00  0.00     0.158 HD
ATOM     24  H5  UNL     1      59.955  10.383  -0.244  1.00  0.00     0.162 HD
ENDBRANCH  17  18
ENDBRANCH  16  17
ENDBRANCH  15  16
ENDBRANCH  11  15
BRANCH  12  25
HETATM   25  N8  UNL     1      59.057  12.140  -4.230  1.00  0.00    -0.234 N 
ATOM     26  H82 UNL     1      59.533  12.955  -3.842  1.00  0.00     0.174 HD
ATOM     27  H81 UNL     1      59.392  11.635  -5.050  1.00  0.00     0.174 HD
ENDBRANCH  12  25
ENDBRANCH   5   8
BRANCH   4  28
HETATM   28  N3  UNL     1      53.271  11.837  -5.429  1.00  0.00    -0.374 N 
ATOM     29  H3  UNL     1      52.357  11.399  -5.542  1.00  0.00     0.161 HD
BRANCH  28  30
HETATM   30  C7  UNL     1      54.300  11.558  -6.411  1.00  0.00     0.126 C 
BRANCH  30  31
HETATM   31  C8  UNL     1      54.823  10.177  -6.456  1.00  0.00     0.007 C 
HETATM   32  C9  UNL     1      54.196   9.210  -7.367  1.00  0.00     0.032 C 
HETATM   33  C10 UNL     1      54.948   7.895  -7.454  1.00  0.00     0.168 C 
HETATM   34  O1  UNL     1      56.322   8.074  -7.446  1.00  0.00    -0.391 OA
HETATM   35  C11 UNL     1      56.820   8.814  -6.411  1.00  0.00     0.168 C 
HETATM   36  C12 UNL     1      56.338  10.240  -6.601  1.00  0.00     0.032 C 
ENDBRANCH  30  31
ENDBRANCH  28  30
ENDBRANCH   4  28
BRANCH   1  37
HETATM   37  N1  UNL     1      52.528  15.595  -2.392  1.00  0.00    -0.176 N 
ATOM     38  H1  UNL     1      51.758  15.459  -1.737  1.00  0.00     0.186 HD
BRANCH  37  39
HETATM   39  C4  UNL     1      52.917  16.803  -2.632  1.00  0.00     0.138 A 
HETATM   40  C3  UNL     1      53.661  17.530  -1.734  1.00  0.00     0.074 A 
HETATM   41  C2  UNL     1      54.032  18.819  -2.071  1.00  0.00     0.026 A 
HETATM   42  C1  UNL     1      54.840  19.642  -1.118  1.00  0.00     0.069 C 
HETATM   43  N13 UNL     1      53.650  19.294  -3.255  1.00  0.00    -0.196 N 
HETATM   44  C22 UNL     1      52.923  18.592  -4.140  1.00  0.00     0.679 A 
ATOM     45  H13 UNL     1      53.924  20.245  -3.504  1.00  0.00     0.184 HD
HETATM   46  N11 UNL     1      52.558  17.342  -3.823  1.00  0.00    -0.176 N 
ATOM     47  H11 UNL     1      52.006  16.793  -4.482  1.00  0.00     0.186 HD
BRANCH  44  48
HETATM   48  N12 UNL     1      52.569  19.075  -5.274  1.00  0.00    -0.224 N 
ATOM     49  H12 UNL     1      53.001  19.931  -5.621  1.00  0.00     0.177 HD
BRANCH  48  50
HETATM   50  C23 UNL     1      51.557  18.406  -6.059  1.00  0.00     0.164 C 
BRANCH  50  51
HETATM   51  C24 UNL     1      51.205  19.238  -7.284  1.00  0.00     0.184 C 
BRANCH  51  52
HETATM   52  O2  UNL     1      52.320  19.505  -8.053  1.00  0.00    -0.399 OA
ATOM     53  H2  UNL     1      53.053  19.788  -7.517  1.00  0.00     0.209 HD
ENDBRANCH  51  52
ENDBRANCH  50  51
ENDBRANCH  48  50
ENDBRANCH  44  48
ENDBRANCH  37  39
ENDBRANCH   1  37
TORSDOF 15
ENDMDL
MODEL 5
REMARK VINA RESULT: -8.599847354      2.144      3.788
REMARK  15 active torsions:
REMARK  status: ('A' for Active; 'I' for Inactive)
REMARK    1  A    between atoms: C4_4  and  N1_5 
REMARK    2  A    between atoms: N1_5  and  C5_7 
REMARK    3  A    between atoms: C6_10  and  N3_11 
REMARK    4  A    between atoms: N3_11  and  C7_13 
REMARK    5  A    between atoms: C7_13  and  C8_14 
REMARK    6  A    between atoms: C13_20  and  C14_21 
REMARK    7  A    between atoms: N4_24  and  C17_25 
REMARK    8  A    between atoms: C17_25  and  C18_26 
REMARK    9  A    between atoms: C18_26  and  C19_27 
REMARK   10  A    between atoms: C19_27  and  N5_28 
REMARK       I    between atoms: N5_28  and  C20_30 
REMARK   11  A    between atoms: C21_35  and  N8_36 
REMARK   12  A    between atoms: C22_45  and  N12_46 
REMARK   13  A    between atoms: N12_46  and  C23_48 
REMARK   14  A    between atoms: C23_48  and  C24_49 
REMARK   15  A    between atoms: C24_49  and  O2_50 
ROOT
HETATM    1  C5  UNL     1      52.197  18.191  -5.930  1.00  0.00     0.686 A 
HETATM    2  N2  UNL     1      51.043  17.616  -5.632  1.00  0.00    -0.174 N 
ATOM      3  H2  UNL     1      50.868  17.080  -4.782  1.00  0.00     0.186 HD
HETATM    4  C6  UNL     1      50.107  17.834  -6.621  1.00  0.00     0.146 A 
HETATM    5  C13 UNL     1      50.746  18.588  -7.572  1.00  0.00     0.120 A 
HETATM    6  N10 UNL     1      52.025  18.780  -7.097  1.00  0.00    -0.185 N 
ATOM      7  H10 UNL     1      52.747  19.309  -7.586  1.00  0.00     0.184 HD
ENDROOT
BRANCH   5   8
HETATM    8  C14 UNL     1      50.264  19.121  -8.827  1.00  0.00     0.081 A 
HETATM    9  C15 UNL     1      49.720  18.453  -9.862  1.00  0.00     0.050 A 
HETATM   10  C16 UNL     1      49.319  19.123 -11.045  1.00  0.00     0.111 A 
HETATM   11  N4  UNL     1      49.474  20.441 -11.165  1.00  0.00    -0.194 N 
HETATM   12  C21 UNL     1      50.020  21.080 -10.119  1.00  0.00     0.678 A 
HETATM   13  N9  UNL     1      50.400  20.458  -8.997  1.00  0.00    -0.190 N 
ATOM     14  H9  UNL     1      50.808  21.011  -8.243  1.00  0.00     0.184 HD
BRANCH  11  15
HETATM   15  C17 UNL     1      49.072  21.180 -12.373  1.00  0.00     0.148 C 
BRANCH  15  16
HETATM   16  C18 UNL     1      49.873  20.759 -13.556  1.00  0.00     0.040 C 
BRANCH  16  17
HETATM   17  C19 UNL     1      49.946  21.711 -14.687  1.00  0.00     0.124 C 
BRANCH  17  18
HETATM   18  N5  UNL     1      51.174  22.405 -14.884  1.00  0.00    -0.365 N 
HETATM   19  C20 UNL     1      51.725  22.848 -16.090  1.00  0.00     0.181 C 
HETATM   20  N6  UNL     1      52.285  23.999 -16.160  1.00  0.00    -0.374 N 
HETATM   21  N7  UNL     1      51.679  22.043 -17.251  1.00  0.00    -0.064 NA
ATOM     22  H62 UNL     1      52.318  24.581 -15.323  1.00  0.00     0.158 HD
ATOM     23  H61 UNL     1      52.686  24.323 -17.040  1.00  0.00     0.158 HD
ATOM     24  H5  UNL     1      51.717  22.602 -14.043  1.00  0.00     0.162 HD
ENDBRANCH  17  18
ENDBRANCH  16  17
ENDBRANCH  15  16
ENDBRANCH  11  15
BRANCH  12  25
HETATM   25  N8  UNL     1      50.162  22.365 -10.255  1.00  0.00    -0.234 N 
ATOM     26  H82 UNL     1      51.059  22.816 -10.078  1.00  0.00     0.174 HD
ATOM     27  H81 UNL     1      49.328  22.875 -10.546  1.00  0.00     0.174 HD
ENDBRANCH  12  25
ENDBRANCH   5   8
BRANCH   4  28
HETATM   28  N3  UNL     1      48.766  17.405  -6.522  1.00  0.00    -0.374 N 
ATOM     29  H3  UNL     1      48.132  17.925  -5.916  1.00  0.00     0.161 HD
BRANCH  28  30
HETATM   30  C7  UNL     1      48.252  16.258  -7.243  1.00  0.00     0.126 C 
BRANCH  30  31
HETATM   31  C8  UNL     1      47.223  16.523  -8.271  1.00  0.00     0.007 C 
HETATM   32  C9  UNL     1      47.220  15.713  -9.496  1.00  0.00     0.032 C 
HETATM   33  C10 UNL     1      46.004  15.956 -10.372  1.00  0.00     0.168 C 
HETATM   34  O1  UNL     1      44.847  16.122  -9.629  1.00  0.00    -0.391 OA
HETATM   35  C11 UNL     1      44.899  17.075  -8.650  1.00  0.00     0.168 C 
HETATM   36  C12 UNL     1      45.862  16.579  -7.588  1.00  0.00     0.032 C 
ENDBRANCH  30  31
ENDBRANCH  28  30
ENDBRANCH   4  28
BRANCH   1  37
HETATM   37  N1  UNL     1      53.394  18.181  -5.153  1.00  0.00    -0.176 N 
ATOM     38  H1  UNL     1      54.285  18.251  -5.645  1.00  0.00     0.186 HD
BRANCH  37  39
HETATM   39  C4  UNL     1      53.416  18.088  -3.866  1.00  0.00     0.138 A 
HETATM   40  C3  UNL     1      53.988  19.048  -3.066  1.00  0.00     0.074 A 
HETATM   41  C2  UNL     1      53.969  18.867  -1.695  1.00  0.00     0.026 A 
HETATM   42  C1  UNL     1      54.583  19.890  -0.793  1.00  0.00     0.069 C 
HETATM   43  N13 UNL     1      53.394  17.766  -1.214  1.00  0.00    -0.196 N 
HETATM   44  C22 UNL     1      52.832  16.822  -1.987  1.00  0.00     0.679 A 
ATOM     45  H13 UNL     1      53.379  17.632  -0.203  1.00  0.00     0.184 HD
HETATM   46  N11 UNL     1      52.845  16.988  -3.316  1.00  0.00    -0.176 N 
ATOM     47  H11 UNL     1      52.423  16.281  -3.919  1.00  0.00     0.186 HD
BRANCH  44  48
HETATM   48  N12 UNL     1      52.284  15.771  -1.497  1.00  0.00    -0.224 N 
ATOM     49  H12 UNL     1      51.665  15.847  -0.689  1.00  0.00     0.177 HD
BRANCH  48  50
HETATM   50  C23 UNL     1      52.545  14.478  -2.087  1.00  0.00     0.164 C 
BRANCH  50  51
HETATM   51  C24 UNL     1      52.002  13.371  -1.194  1.00  0.00     0.184 C 
BRANCH  51  52
HETATM   52  O2  UNL     1      50.728  12.997  -1.569  1.00  0.00    -0.399 OA
ATOM     53  H2  UNL     1      50.553  12.089  -1.350  1.00  0.00     0.209 HD
ENDBRANCH  51  52
ENDBRANCH  50  51
ENDBRANCH  48  50
ENDBRANCH  44  48
ENDBRANCH  37  39
ENDBRANCH   1  37
TORSDOF 15
ENDMDL
