MODEL 1
REMARK VINA RESULT: -8.591134763      0.000      0.000
REMARK  16 active torsions:
REMARK  status: ('A' for Active; 'I' for Inactive)
REMARK    1  A    between atoms: N1_6  and  C5_7 
REMARK    2  A    between atoms: C6_10  and  N3_11 
REMARK    3  A    between atoms: C7_16  and  N5_17 
REMARK    4  A    between atoms: N7_24  and  C9_25 
REMARK    5  A    between atoms: C9_25  and  C10_26 
REMARK    6  A    between atoms: C10_26  and  C11_27 
REMARK    7  A    between atoms: C11_27  and  C12_28 
REMARK    8  A    between atoms: C15_31  and  C16_32 
REMARK    9  A    between atoms: C16_32  and  O3_33 
REMARK   10  A    between atoms: O3_33  and  C17_34 
REMARK   11  A    between atoms: C20_37  and  N8_38 
REMARK   12  A    between atoms: N8_38  and  C21_40 
REMARK   13  A    between atoms: C21_40  and  C22_41 
REMARK   14  A    between atoms: C22_41  and  N9_42 
REMARK   15  A    between atoms: C23_46  and  N10_47 
REMARK   16  A    between atoms: N10_47  and  N11_49 
ROOT
HETATM    1  C12 UNL     1      52.057  17.964  -5.181  1.00  0.00     0.009 A 
HETATM    2  C13 UNL     1      51.477  17.088  -6.046  1.00  0.00     0.025 A 
HETATM    3  C14 UNL     1      50.967  17.496  -7.279  1.00  0.00     0.012 A 
HETATM    4  C15 UNL     1      51.052  18.815  -7.635  1.00  0.00    -0.019 A 
HETATM    5  C24 UNL     1      51.642  19.682  -6.748  1.00  0.00     0.097 A 
HETATM    6  N13 UNL     1      52.128  19.271  -5.560  1.00  0.00    -0.369 N 
ATOM      7  H13 UNL     1      52.557  19.951  -4.932  1.00  0.00     0.165 HD
ENDROOT
BRANCH   1   8
HETATM    8  C11 UNL     1      52.615  17.511  -3.851  1.00  0.00     0.058 C 
BRANCH   8   9
HETATM    9  C10 UNL     1      53.451  16.293  -4.131  1.00  0.00     0.026 C 
BRANCH   9  10
HETATM   10  C9  UNL     1      53.055  15.046  -3.460  1.00  0.00     0.129 C 
BRANCH  10  11
HETATM   11  N7  UNL     1      53.524  13.816  -4.002  1.00  0.00    -0.315 N 
HETATM   12  C2  UNL     1      52.858  12.844  -4.856  1.00  0.00     0.112 C 
HETATM   13  C1  UNL     1      51.908  13.455  -5.822  1.00  0.00     0.049 C 
HETATM   14  C3  UNL     1      52.240  11.721  -4.083  1.00  0.00     0.049 C 
HETATM   15  C4  UNL     1      53.989  12.248  -5.659  1.00  0.00     0.275 C 
HETATM   16  O1  UNL     1      53.841  11.830  -6.815  1.00  0.00    -0.269 OA
HETATM   17  N1  UNL     1      55.118  12.301  -4.803  1.00  0.00    -0.059 N 
HETATM   18  C8  UNL     1      54.816  13.267  -3.795  1.00  0.00     0.347 C 
HETATM   19  O2  UNL     1      55.657  13.521  -2.889  1.00  0.00    -0.246 OA
BRANCH  17  20
HETATM   20  C5  UNL     1      56.294  11.532  -4.958  1.00  0.00     0.724 A 
HETATM   21  N2  UNL     1      57.471  12.013  -4.456  1.00  0.00    -0.021 N 
HETATM   22  C6  UNL     1      58.620  11.331  -4.573  1.00  0.00     0.705 A 
ATOM     23  H2  UNL     1      57.476  12.915  -3.980  1.00  0.00     0.203 HD
HETATM   24  N4  UNL     1      58.603  10.143  -5.204  1.00  0.00    -0.022 N 
HETATM   25  C7  UNL     1      57.485   9.637  -5.705  1.00  0.00     0.705 A 
ATOM     26  H4  UNL     1      59.473   9.618  -5.298  1.00  0.00     0.203 HD
HETATM   27  N6  UNL     1      56.354  10.353  -5.566  1.00  0.00    -0.021 N 
ATOM     28  H6  UNL     1      55.492   9.967  -5.951  1.00  0.00     0.203 HD
BRANCH  22  29
HETATM   29  N3  UNL     1      59.758  11.739  -4.119  1.00  0.00    -0.234 N 
ATOM     30  H32 UNL     1      60.252  12.440  -4.670  1.00  0.00     0.174 HD
ATOM     31  H31 UNL     1      60.184  11.405  -3.254  1.00  0.00     0.174 HD
ENDBRANCH  22  29
BRANCH  25  32
HETATM   32  N5  UNL     1      57.474   8.514  -6.300  1.00  0.00    -0.234 N 
ATOM     33  H52 UNL     1      58.086   7.757  -5.997  1.00  0.00     0.174 HD
ATOM     34  H51 UNL     1      56.857   8.338  -7.093  1.00  0.00     0.174 HD
ENDBRANCH  25  32
ENDBRANCH  17  20
ENDBRANCH  10  11
ENDBRANCH   9  10
ENDBRANCH   8   9
ENDBRANCH   1   8
BRANCH   4  35
HETATM   35  C16 UNL     1      50.524  19.289  -8.929  1.00  0.00     0.217 C 
BRANCH  35  36
HETATM   36  O3  UNL     1      51.013  20.569  -9.302  1.00  0.00    -0.331 OA
BRANCH  36  37
HETATM   37  C17 UNL     1      50.719  21.027 -10.577  1.00  0.00     0.143 A 
HETATM   38  C18 UNL     1      50.146  20.216 -11.512  1.00  0.00     0.058 A 
HETATM   39  C19 UNL     1      49.847  20.649 -12.775  1.00  0.00     0.037 A 
HETATM   40  C20 UNL     1      50.140  21.950 -13.100  1.00  0.00     0.074 A 
HETATM   41  C23 UNL     1      50.724  22.785 -12.151  1.00  0.00     0.148 A 
HETATM   42  N12 UNL     1      50.993  22.294 -10.924  1.00  0.00    -0.320 N 
ATOM     43  H12 UNL     1      51.421  22.909 -10.233  1.00  0.00     0.169 HD
BRANCH  40  44
HETATM   44  N8  UNL     1      49.837  22.470 -14.373  1.00  0.00    -0.385 N 
ATOM     45  H8  UNL     1      49.058  23.124 -14.449  1.00  0.00     0.159 HD
BRANCH  44  46
HETATM   46  C21 UNL     1      50.550  22.140 -15.563  1.00  0.00     0.147 C 
BRANCH  46  47
HETATM   47  C22 UNL     1      51.979  22.560 -15.609  1.00  0.00     0.249 C 
BRANCH  47  48
HETATM   48  N9  UNL     1      52.075  23.931 -16.132  1.00  0.00    -0.078 N 
ATOM     49  H93 UNL     1      51.157  24.351 -16.280  1.00  0.00     0.274 HD
ATOM     50  H92 UNL     1      52.425  24.586 -15.433  1.00  0.00     0.274 HD
ATOM     51  H91 UNL     1      52.641  23.936 -16.982  1.00  0.00     0.274 HD
ENDBRANCH  47  48
ENDBRANCH  46  47
ENDBRANCH  44  46
ENDBRANCH  40  44
BRANCH  41  52
HETATM   52  N10 UNL     1      50.997  24.001 -12.462  1.00  0.00    -0.290 N 
ATOM     53  H10 UNL     1      50.251  24.658 -12.692  1.00  0.00     0.188 HD
BRANCH  52  54
HETATM   54  N11 UNL     1      52.321  24.405 -12.479  1.00  0.00    -0.344 N 
ATOM     55 2H11 UNL     1      52.745  24.707 -13.357  1.00  0.00     0.176 HD
ATOM     56 1H11 UNL     1      52.851  24.390 -11.607  1.00  0.00     0.176 HD
ENDBRANCH  52  54
ENDBRANCH  41  52
ENDBRANCH  36  37
ENDBRANCH  35  36
ENDBRANCH   4  35
TORSDOF 16
ENDMDL
MODEL 2
REMARK VINA RESULT: -8.499302893      0.813      1.093
REMARK  16 active torsions:
REMARK  status: ('A' for Active; 'I' for Inactive)
REMARK    1  A    between atoms: N1_6  and  C5_7 
REMARK    2  A    between atoms: C6_10  and  N3_11 
REMARK    3  A    between atoms: C7_16  and  N5_17 
REMARK    4  A    between atoms: N7_24  and  C9_25 
REMARK    5  A    between atoms: C9_25  and  C10_26 
REMARK    6  A    between atoms: C10_26  and  C11_27 
REMARK    7  A    between atoms: C11_27  and  C12_28 
REMARK    8  A    between atoms: C15_31  and  C16_32 
REMARK    9  A    between atoms: C16_32  and  O3_33 
REMARK   10  A    between atoms: O3_33  and  C17_34 
REMARK   11  A    between atoms: C20_37  and  N8_38 
REMARK   12  A    between atoms: N8_38  and  C21_40 
REMARK   13  A    between atoms: C21_40  and  C22_41 
REMARK   14  A    between atoms: C22_41  and  N9_42 
REMARK   15  A    between atoms: C23_46  and  N10_47 
REMARK   16  A    between atoms: N10_47  and  N11_49 
ROOT
HETATM    1  C12 UNL     1      52.143  18.100  -5.141  1.00  0.00     0.009 A 
HETATM    2  C13 UNL     1      51.582  17.199  -5.991  1.00  0.00     0.025 A 
HETATM    3  C14 UNL     1      51.023  17.582  -7.211  1.00  0.00     0.012 A 
HETATM    4  C15 UNL     1      51.039  18.904  -7.568  1.00  0.00    -0.019 A 
HETATM    5  C24 UNL     1      51.610  19.797  -6.696  1.00  0.00     0.097 A 
HETATM    6  N13 UNL     1      52.144  19.409  -5.520  1.00  0.00    -0.369 N 
ATOM      7  H13 UNL     1      52.557  20.109  -4.903  1.00  0.00     0.165 HD
ENDROOT
BRANCH   1   8
HETATM    8  C11 UNL     1      52.754  17.675  -3.825  1.00  0.00     0.058 C 
BRANCH   8   9
HETATM    9  C10 UNL     1      53.544  16.426  -4.105  1.00  0.00     0.026 C 
BRANCH   9  10
HETATM   10  C9  UNL     1      53.109  15.197  -3.428  1.00  0.00     0.129 C 
BRANCH  10  11
HETATM   11  N7  UNL     1      53.546  13.950  -3.957  1.00  0.00    -0.315 N 
HETATM   12  C2  UNL     1      52.852  12.984  -4.796  1.00  0.00     0.112 C 
HETATM   13  C1  UNL     1      51.912  13.606  -5.765  1.00  0.00     0.049 C 
HETATM   14  C3  UNL     1      52.212  11.886  -4.007  1.00  0.00     0.049 C 
HETATM   15  C4  UNL     1      53.965  12.351  -5.597  1.00  0.00     0.275 C 
HETATM   16  O1  UNL     1      53.801  11.924  -6.748  1.00  0.00    -0.269 OA
HETATM   17  N1  UNL     1      55.099  12.388  -4.747  1.00  0.00    -0.059 N 
HETATM   18  C8  UNL     1      54.825  13.372  -3.749  1.00  0.00     0.347 C 
HETATM   19  O2  UNL     1      55.676  13.617  -2.851  1.00  0.00    -0.246 OA
BRANCH  17  20
HETATM   20  C5  UNL     1      56.255  11.589  -4.899  1.00  0.00     0.724 A 
HETATM   21  N2  UNL     1      57.454  12.068  -4.450  1.00  0.00    -0.021 N 
HETATM   22  C6  UNL     1      58.586  11.359  -4.567  1.00  0.00     0.705 A 
ATOM     23  H2  UNL     1      57.489  12.990  -4.014  1.00  0.00     0.203 HD
HETATM   24  N4  UNL     1      58.531  10.145  -5.143  1.00  0.00    -0.022 N 
HETATM   25  C7  UNL     1      57.390   9.640  -5.592  1.00  0.00     0.705 A 
ATOM     26  H4  UNL     1      59.387   9.599  -5.237  1.00  0.00     0.203 HD
HETATM   27  N6  UNL     1      56.277  10.384  -5.456  1.00  0.00    -0.021 N 
ATOM     28  H6  UNL     1      55.397   9.999  -5.800  1.00  0.00     0.203 HD
BRANCH  22  29
HETATM   29  N3  UNL     1      59.744  11.763  -4.161  1.00  0.00    -0.234 N 
ATOM     30  H32 UNL     1      60.306  11.099  -3.628  1.00  0.00     0.174 HD
ATOM     31  H31 UNL     1      60.124  12.693  -4.340  1.00  0.00     0.174 HD
ENDBRANCH  22  29
BRANCH  25  32
HETATM   32  N5  UNL     1      57.342   8.492  -6.137  1.00  0.00    -0.234 N 
ATOM     33  H52 UNL     1      57.432   7.646  -5.577  1.00  0.00     0.174 HD
ATOM     34  H51 UNL     1      57.212   8.386  -7.143  1.00  0.00     0.174 HD
ENDBRANCH  25  32
ENDBRANCH  17  20
ENDBRANCH  10  11
ENDBRANCH   9  10
ENDBRANCH   8   9
ENDBRANCH   1   8
BRANCH   4  35
HETATM   35  C16 UNL     1      50.458  19.352  -8.849  1.00  0.00     0.217 C 
BRANCH  35  36
HETATM   36  O3  UNL     1      51.128  20.471  -9.410  1.00  0.00    -0.331 OA
BRANCH  36  37
HETATM   37  C17 UNL     1      50.870  20.780 -10.737  1.00  0.00     0.143 A 
HETATM   38  C18 UNL     1      49.958  20.078 -11.468  1.00  0.00     0.058 A 
HETATM   39  C19 UNL     1      49.688  20.369 -12.778  1.00  0.00     0.037 A 
HETATM   40  C20 UNL     1      50.368  21.407 -13.365  1.00  0.00     0.074 A 
HETATM   41  C23 UNL     1      51.300  22.129 -12.624  1.00  0.00     0.148 A 
HETATM   42  N12 UNL     1      51.518  21.790 -11.337  1.00  0.00    -0.320 N 
ATOM     43  H12 UNL     1      52.202  22.322 -10.799  1.00  0.00     0.169 HD
BRANCH  40  44
HETATM   44  N8  UNL     1      50.123  21.776 -14.701  1.00  0.00    -0.385 N 
ATOM     45  H8  UNL     1      50.856  21.598 -15.388  1.00  0.00     0.159 HD
BRANCH  44  46
HETATM   46  C21 UNL     1      48.915  22.383 -15.156  1.00  0.00     0.147 C 
BRANCH  46  47
HETATM   47  C22 UNL     1      48.645  23.761 -14.656  1.00  0.00     0.249 C 
BRANCH  47  48
HETATM   48  N9  UNL     1      47.785  23.696 -13.465  1.00  0.00    -0.078 N 
ATOM     49  H93 UNL     1      46.821  23.954 -13.672  1.00  0.00     0.274 HD
ATOM     50  H92 UNL     1      47.618  22.735 -13.164  1.00  0.00     0.274 HD
ATOM     51  H91 UNL     1      48.185  24.268 -12.721  1.00  0.00     0.274 HD
ENDBRANCH  47  48
ENDBRANCH  46  47
ENDBRANCH  44  46
ENDBRANCH  40  44
BRANCH  41  52
HETATM   52  N10 UNL     1      51.934  23.099 -13.180  1.00  0.00    -0.290 N 
ATOM     53  H10 UNL     1      52.238  23.031 -14.151  1.00  0.00     0.188 HD
BRANCH  52  54
HETATM   54  N11 UNL     1      52.195  24.238 -12.437  1.00  0.00    -0.344 N 
ATOM     55 2H11 UNL     1      51.727  24.374 -11.541  1.00  0.00     0.176 HD
ATOM     56 1H11 UNL     1      52.854  24.924 -12.805  1.00  0.00     0.176 HD
ENDBRANCH  52  54
ENDBRANCH  41  52
ENDBRANCH  36  37
ENDBRANCH  35  36
ENDBRANCH   4  35
TORSDOF 16
ENDMDL
MODEL 3
REMARK VINA RESULT: -8.492016115      2.340     13.428
REMARK  16 active torsions:
REMARK  status: ('A' for Active; 'I' for Inactive)
REMARK    1  A    between atoms: N1_6  and  C5_7 
REMARK    2  A    between atoms: C6_10  and  N3_11 
REMARK    3  A    between atoms: C7_16  and  N5_17 
REMARK    4  A    between atoms: N7_24  and  C9_25 
REMARK    5  A    between atoms: C9_25  and  C10_26 
REMARK    6  A    between atoms: C10_26  and  C11_27 
REMARK    7  A    between atoms: C11_27  and  C12_28 
REMARK    8  A    between atoms: C15_31  and  C16_32 
REMARK    9  A    between atoms: C16_32  and  O3_33 
REMARK   10  A    between atoms: O3_33  and  C17_34 
REMARK   11  A    between atoms: C20_37  and  N8_38 
REMARK   12  A    between atoms: N8_38  and  C21_40 
REMARK   13  A    between atoms: C21_40  and  C22_41 
REMARK   14  A    between atoms: C22_41  and  N9_42 
REMARK   15  A    between atoms: C23_46  and  N10_47 
REMARK   16  A    between atoms: N10_47  and  N11_49 
ROOT
HETATM    1  C12 UNL     1      51.161  15.185  -6.302  1.00  0.00     0.009 A 
HETATM    2  C13 UNL     1      51.501  13.873  -6.428  1.00  0.00     0.025 A 
HETATM    3  C14 UNL     1      52.485  13.284  -5.634  1.00  0.00     0.012 A 
HETATM    4  C15 UNL     1      53.132  14.045  -4.697  1.00  0.00    -0.019 A 
HETATM    5  C24 UNL     1      52.774  15.366  -4.585  1.00  0.00     0.097 A 
HETATM    6  N13 UNL     1      51.821  15.919  -5.362  1.00  0.00    -0.369 N 
ATOM      7  H13 UNL     1      51.588  16.905  -5.244  1.00  0.00     0.165 HD
ENDROOT
BRANCH   1   8
HETATM    8  C11 UNL     1      50.086  15.811  -7.161  1.00  0.00     0.058 C 
BRANCH   8   9
HETATM    9  C10 UNL     1      50.727  16.975  -7.865  1.00  0.00     0.026 C 
BRANCH   9  10
HETATM   10  C9  UNL     1      49.976  18.238  -7.881  1.00  0.00     0.129 C 
BRANCH  10  11
HETATM   11  N7  UNL     1      49.638  18.801  -9.144  1.00  0.00    -0.315 N 
HETATM   12  C2  UNL     1      48.585  18.449 -10.085  1.00  0.00     0.112 C 
HETATM   13  C1  UNL     1      47.339  17.971  -9.430  1.00  0.00     0.049 C 
HETATM   14  C3  UNL     1      49.057  17.518 -11.158  1.00  0.00     0.049 C 
HETATM   15  C4  UNL     1      48.262  19.761 -10.759  1.00  0.00     0.275 C 
HETATM   16  O1  UNL     1      47.130  20.034 -11.181  1.00  0.00    -0.269 OA
HETATM   17  N1  UNL     1      49.481  20.485 -10.762  1.00  0.00    -0.059 N 
HETATM   18  C8  UNL     1      50.311  19.884  -9.767  1.00  0.00     0.347 C 
HETATM   19  O2  UNL     1      51.469  20.336  -9.552  1.00  0.00    -0.246 OA
BRANCH  17  20
HETATM   20  C5  UNL     1      49.771  21.583 -11.603  1.00  0.00     0.724 A 
HETATM   21  N2  UNL     1      48.737  22.271 -12.173  1.00  0.00    -0.021 N 
HETATM   22  C6  UNL     1      48.948  23.321 -12.981  1.00  0.00     0.705 A 
ATOM     23  H2  UNL     1      47.779  21.979 -11.980  1.00  0.00     0.203 HD
HETATM   24  N4  UNL     1      50.214  23.700 -13.230  1.00  0.00    -0.022 N 
HETATM   25  C7  UNL     1      51.247  23.062 -12.698  1.00  0.00     0.705 A 
ATOM     26  H4  UNL     1      50.383  24.496 -13.844  1.00  0.00     0.203 HD
HETATM   27  N6  UNL     1      50.993  22.014 -11.893  1.00  0.00    -0.021 N 
ATOM     28  H6  UNL     1      51.786  21.522 -11.482  1.00  0.00     0.203 HD
BRANCH  22  29
HETATM   29  N3  UNL     1      48.009  24.005 -13.546  1.00  0.00    -0.234 N 
ATOM     30  H32 UNL     1      48.100  25.021 -13.526  1.00  0.00     0.174 HD
ATOM     31  H31 UNL     1      47.195  23.595 -14.004  1.00  0.00     0.174 HD
ENDBRANCH  22  29
BRANCH  25  32
HETATM   32  N5  UNL     1      52.443  23.423 -12.937  1.00  0.00    -0.234 N 
ATOM     33  H52 UNL     1      52.952  24.010 -12.276  1.00  0.00     0.174 HD
ATOM     34  H51 UNL     1      52.925  23.137 -13.789  1.00  0.00     0.174 HD
ENDBRANCH  25  32
ENDBRANCH  17  20
ENDBRANCH  10  11
ENDBRANCH   9  10
ENDBRANCH   8   9
ENDBRANCH   1   8
BRANCH   4  35
HETATM   35  C16 UNL     1      54.180  13.463  -3.837  1.00  0.00     0.217 C 
BRANCH  35  36
HETATM   36  O3  UNL     1      55.429  13.311  -4.496  1.00  0.00    -0.331 OA
BRANCH  36  37
HETATM   37  C17 UNL     1      56.418  12.587  -3.849  1.00  0.00     0.143 A 
HETATM   38  C18 UNL     1      56.229  12.085  -2.595  1.00  0.00     0.058 A 
HETATM   39  C19 UNL     1      57.192  11.367  -1.939  1.00  0.00     0.037 A 
HETATM   40  C20 UNL     1      58.388  11.151  -2.578  1.00  0.00     0.074 A 
HETATM   41  C23 UNL     1      58.587  11.660  -3.860  1.00  0.00     0.148 A 
HETATM   42  N12 UNL     1      57.596  12.359  -4.449  1.00  0.00    -0.320 N 
ATOM     43  H12 UNL     1      57.748  12.729  -5.386  1.00  0.00     0.169 HD
BRANCH  40  44
HETATM   44  N8  UNL     1      59.413  10.401  -1.973  1.00  0.00    -0.385 N 
ATOM     45  H8  UNL     1      60.250  10.896  -1.667  1.00  0.00     0.159 HD
BRANCH  44  46
HETATM   46  C21 UNL     1      59.356   8.992  -1.762  1.00  0.00     0.147 C 
BRANCH  46  47
HETATM   47  C22 UNL     1      59.681   8.521  -0.386  1.00  0.00     0.249 C 
BRANCH  47  48
HETATM   48  N9  UNL     1      59.298   9.550   0.592  1.00  0.00    -0.078 N 
ATOM     49  H93 UNL     1      59.930   9.575   1.392  1.00  0.00     0.274 HD
ATOM     50  H92 UNL     1      59.465  10.494   0.243  1.00  0.00     0.274 HD
ATOM     51  H91 UNL     1      58.327   9.411   0.874  1.00  0.00     0.274 HD
ENDBRANCH  47  48
ENDBRANCH  46  47
ENDBRANCH  44  46
ENDBRANCH  40  44
BRANCH  41  52
HETATM   52  N10 UNL     1      59.709  11.455  -4.452  1.00  0.00    -0.290 N 
ATOM     53  H10 UNL     1      60.570  11.862  -4.088  1.00  0.00     0.188 HD
BRANCH  52  54
HETATM   54  N11 UNL     1      59.727  10.672  -5.594  1.00  0.00    -0.344 N 
ATOM     55 2H11 UNL     1      59.402  11.063  -6.479  1.00  0.00     0.176 HD
ATOM     56 1H11 UNL     1      60.068   9.713  -5.526  1.00  0.00     0.176 HD
ENDBRANCH  52  54
ENDBRANCH  41  52
ENDBRANCH  36  37
ENDBRANCH  35  36
ENDBRANCH   4  35
TORSDOF 16
ENDMDL
MODEL 4
REMARK VINA RESULT: -8.453631894      1.023      1.794
REMARK  16 active torsions:
REMARK  status: ('A' for Active; 'I' for Inactive)
REMARK    1  A    between atoms: N1_6  and  C5_7 
REMARK    2  A    between atoms: C6_10  and  N3_11 
REMARK    3  A    between atoms: C7_16  and  N5_17 
REMARK    4  A    between atoms: N7_24  and  C9_25 
REMARK    5  A    between atoms: C9_25  and  C10_26 
REMARK    6  A    between atoms: C10_26  and  C11_27 
REMARK    7  A    between atoms: C11_27  and  C12_28 
REMARK    8  A    between atoms: C15_31  and  C16_32 
REMARK    9  A    between atoms: C16_32  and  O3_33 
REMARK   10  A    between atoms: O3_33  and  C17_34 
REMARK   11  A    between atoms: C20_37  and  N8_38 
REMARK   12  A    between atoms: N8_38  and  C21_40 
REMARK   13  A    between atoms: C21_40  and  C22_41 
REMARK   14  A    between atoms: C22_41  and  N9_42 
REMARK   15  A    between atoms: C23_46  and  N10_47 
REMARK   16  A    between atoms: N10_47  and  N11_49 
ROOT
HETATM    1  C12 UNL     1      52.292  17.803  -4.839  1.00  0.00     0.009 A 
HETATM    2  C13 UNL     1      52.545  19.027  -5.377  1.00  0.00     0.025 A 
HETATM    3  C14 UNL     1      51.960  19.445  -6.572  1.00  0.00     0.012 A 
HETATM    4  C15 UNL     1      51.103  18.601  -7.228  1.00  0.00    -0.019 A 
HETATM    5  C24 UNL     1      50.860  17.371  -6.668  1.00  0.00     0.097 A 
HETATM    6  N13 UNL     1      51.436  16.984  -5.512  1.00  0.00    -0.369 N 
ATOM      7  H13 UNL     1      51.227  16.060  -5.133  1.00  0.00     0.165 HD
ENDROOT
BRANCH   1   8
HETATM    8  C11 UNL     1      52.924  17.363  -3.538  1.00  0.00     0.058 C 
BRANCH   8   9
HETATM    9  C10 UNL     1      53.725  16.130  -3.847  1.00  0.00     0.026 C 
BRANCH   9  10
HETATM   10  C9  UNL     1      53.227  14.858  -3.303  1.00  0.00     0.129 C 
BRANCH  10  11
HETATM   11  N7  UNL     1      53.669  13.650  -3.912  1.00  0.00    -0.315 N 
HETATM   12  C2  UNL     1      52.973  12.730  -4.799  1.00  0.00     0.112 C 
HETATM   13  C1  UNL     1      52.014  13.399  -5.716  1.00  0.00     0.049 C 
HETATM   14  C3  UNL     1      52.354  11.579  -4.069  1.00  0.00     0.049 C 
HETATM   15  C4  UNL     1      54.081  12.158  -5.652  1.00  0.00     0.275 C 
HETATM   16  O1  UNL     1      53.905  11.799  -6.824  1.00  0.00    -0.269 OA
HETATM   17  N1  UNL     1      55.226  12.155  -4.816  1.00  0.00    -0.059 N 
HETATM   18  C8  UNL     1      54.957  13.074  -3.757  1.00  0.00     0.347 C 
HETATM   19  O2  UNL     1      55.818  13.273  -2.857  1.00  0.00    -0.246 OA
BRANCH  17  20
HETATM   20  C5  UNL     1      56.387  11.379  -5.031  1.00  0.00     0.724 A 
HETATM   21  N2  UNL     1      56.273  10.186  -5.691  1.00  0.00    -0.021 N 
HETATM   22  C6  UNL     1      57.338   9.404  -5.925  1.00  0.00     0.705 A 
ATOM     23  H2  UNL     1      55.354   9.883  -6.014  1.00  0.00     0.203 HD
HETATM   24  N4  UNL     1      58.545   9.812  -5.495  1.00  0.00    -0.022 N 
HETATM   25  C7  UNL     1      58.702  10.961  -4.852  1.00  0.00     0.705 A 
ATOM     26  H4  UNL     1      59.359   9.223  -5.667  1.00  0.00     0.203 HD
HETATM   27  N6  UNL     1      57.609  11.716  -4.638  1.00  0.00    -0.021 N 
ATOM     28  H6  UNL     1      57.727  12.601  -4.144  1.00  0.00     0.203 HD
BRANCH  22  29
HETATM   29  N3  UNL     1      57.286   8.271  -6.541  1.00  0.00    -0.234 N 
ATOM     30  H32 UNL     1      56.966   7.465  -6.004  1.00  0.00     0.174 HD
ATOM     31  H31 UNL     1      57.543   8.136  -7.520  1.00  0.00     0.174 HD
ENDBRANCH  22  29
BRANCH  25  32
HETATM   32  N5  UNL     1      59.846  11.342  -4.447  1.00  0.00    -0.234 N 
ATOM     33  H52 UNL     1      60.685  11.140  -4.989  1.00  0.00     0.174 HD
ATOM     34  H51 UNL     1      59.955  11.859  -3.574  1.00  0.00     0.174 HD
ENDBRANCH  25  32
ENDBRANCH  17  20
ENDBRANCH  10  11
ENDBRANCH   9  10
ENDBRANCH   8   9
ENDBRANCH   1   8
BRANCH   4  35
HETATM   35  C16 UNL     1      50.463  19.002  -8.496  1.00  0.00     0.217 C 
BRANCH  35  36
HETATM   36  O3  UNL     1      50.916  20.257  -8.983  1.00  0.00    -0.331 OA
BRANCH  36  37
HETATM   37  C17 UNL     1      50.712  20.542 -10.324  1.00  0.00     0.143 A 
HETATM   38  C18 UNL     1      49.781  19.873 -11.061  1.00  0.00     0.058 A 
HETATM   39  C19 UNL     1      49.563  20.140 -12.386  1.00  0.00     0.037 A 
HETATM   40  C20 UNL     1      50.318  21.120 -12.982  1.00  0.00     0.074 A 
HETATM   41  C23 UNL     1      51.271  21.807 -12.235  1.00  0.00     0.148 A 
HETATM   42  N12 UNL     1      51.434  21.494 -10.933  1.00  0.00    -0.320 N 
ATOM     43  H12 UNL     1      52.134  22.001 -10.391  1.00  0.00     0.169 HD
BRANCH  40  44
HETATM   44  N8  UNL     1      50.131  21.463 -14.334  1.00  0.00    -0.385 N 
ATOM     45  H8  UNL     1      50.886  21.256 -14.988  1.00  0.00     0.159 HD
BRANCH  44  46
HETATM   46  C21 UNL     1      48.954  22.081 -14.848  1.00  0.00     0.147 C 
BRANCH  46  47
HETATM   47  C22 UNL     1      48.959  23.571 -14.888  1.00  0.00     0.249 C 
BRANCH  47  48
HETATM   48  N9  UNL     1      48.419  24.102 -13.628  1.00  0.00    -0.078 N 
ATOM     49  H93 UNL     1      47.633  23.551 -13.284  1.00  0.00     0.274 HD
ATOM     50  H92 UNL     1      49.055  23.955 -12.844  1.00  0.00     0.274 HD
ATOM     51  H91 UNL     1      48.175  25.086 -13.746  1.00  0.00     0.274 HD
ENDBRANCH  47  48
ENDBRANCH  46  47
ENDBRANCH  44  46
ENDBRANCH  40  44
BRANCH  41  52
HETATM   52  N10 UNL     1      51.975  22.722 -12.799  1.00  0.00    -0.290 N 
ATOM     53  H10 UNL     1      52.676  22.480 -13.499  1.00  0.00     0.188 HD
BRANCH  52  54
HETATM   54  N11 UNL     1      51.765  24.043 -12.440  1.00  0.00    -0.344 N 
ATOM     55 2H11 UNL     1      51.564  24.276 -11.467  1.00  0.00     0.176 HD
ATOM     56 1H11 UNL     1      51.814  24.762 -13.162  1.00  0.00     0.176 HD
ENDBRANCH  52  54
ENDBRANCH  41  52
ENDBRANCH  36  37
ENDBRANCH  35  36
ENDBRANCH   4  35
TORSDOF 16
ENDMDL
MODEL 5
REMARK VINA RESULT: -8.351781440      2.641     13.429
REMARK  16 active torsions:
REMARK  status: ('A' for Active; 'I' for Inactive)
REMARK    1  A    between atoms: N1_6  and  C5_7 
REMARK    2  A    between atoms: C6_10  and  N3_11 
REMARK    3  A    between atoms: C7_16  and  N5_17 
REMARK    4  A    between atoms: N7_24  and  C9_25 
REMARK    5  A    between atoms: C9_25  and  C10_26 
REMARK    6  A    between atoms: C10_26  and  C11_27 
REMARK    7  A    between atoms: C11_27  and  C12_28 
REMARK    8  A    between atoms: C15_31  and  C16_32 
REMARK    9  A    between atoms: C16_32  and  O3_33 
REMARK   10  A    between atoms: O3_33  and  C17_34 
REMARK   11  A    between atoms: C20_37  and  N8_38 
REMARK   12  A    between atoms: N8_38  and  C21_40 
REMARK   13  A    between atoms: C21_40  and  C22_41 
REMARK   14  A    between atoms: C22_41  and  N9_42 
REMARK   15  A    between atoms: C23_46  and  N10_47 
REMARK   16  A    between atoms: N10_47  and  N11_49 
ROOT
HETATM    1  C12 UNL     1      52.481  17.433  -5.045  1.00  0.00     0.009 A 
HETATM    2  C13 UNL     1      53.476  17.642  -4.142  1.00  0.00     0.025 A 
HETATM    3  C14 UNL     1      54.056  16.594  -3.425  1.00  0.00     0.012 A 
HETATM    4  C15 UNL     1      53.612  15.316  -3.634  1.00  0.00    -0.019 A 
HETATM    5  C24 UNL     1      52.607  15.127  -4.550  1.00  0.00     0.097 A 
HETATM    6  N13 UNL     1      52.058  16.151  -5.233  1.00  0.00    -0.369 N 
ATOM      7  H13 UNL     1      51.313  15.964  -5.903  1.00  0.00     0.165 HD
ENDROOT
BRANCH   1   8
HETATM    8  C11 UNL     1      51.866  18.574  -5.824  1.00  0.00     0.058 C 
BRANCH   8   9
HETATM    9  C10 UNL     1      51.407  17.997  -7.135  1.00  0.00     0.026 C 
BRANCH   9  10
HETATM   10  C9  UNL     1      49.994  18.189  -7.488  1.00  0.00     0.129 C 
BRANCH  10  11
HETATM   11  N7  UNL     1      49.689  18.687  -8.787  1.00  0.00    -0.315 N 
HETATM   12  C2  UNL     1      48.680  18.267  -9.747  1.00  0.00     0.112 C 
HETATM   13  C1  UNL     1      47.422  17.788  -9.116  1.00  0.00     0.049 C 
HETATM   14  C3  UNL     1      49.212  17.302 -10.760  1.00  0.00     0.049 C 
HETATM   15  C4  UNL     1      48.351  19.540 -10.491  1.00  0.00     0.275 C 
HETATM   16  O1  UNL     1      47.230  19.766 -10.965  1.00  0.00    -0.269 OA
HETATM   17  N1  UNL     1      49.552  20.293 -10.484  1.00  0.00    -0.059 N 
HETATM   18  C8  UNL     1      50.359  19.758  -9.434  1.00  0.00     0.347 C 
HETATM   19  O2  UNL     1      51.498  20.247  -9.199  1.00  0.00    -0.246 OA
BRANCH  17  20
HETATM   20  C5  UNL     1      49.847  21.360 -11.362  1.00  0.00     0.724 A 
HETATM   21  N2  UNL     1      51.155  21.638 -11.649  1.00  0.00    -0.021 N 
HETATM   22  C6  UNL     1      51.499  22.639 -12.474  1.00  0.00     0.705 A 
ATOM     23  H2  UNL     1      51.888  21.071 -11.224  1.00  0.00     0.203 HD
HETATM   24  N4  UNL     1      50.525  23.382 -13.028  1.00  0.00    -0.022 N 
HETATM   25  C7  UNL     1      49.245  23.147 -12.780  1.00  0.00     0.705 A 
ATOM     26  H4  UNL     1      50.778  24.145 -13.655  1.00  0.00     0.203 HD
HETATM   27  N6  UNL     1      48.941  22.134 -11.947  1.00  0.00    -0.021 N 
ATOM     28  H6  UNL     1      47.957  21.951 -11.753  1.00  0.00     0.203 HD
BRANCH  22  29
HETATM   29  N3  UNL     1      52.717  22.945 -12.778  1.00  0.00    -0.234 N 
ATOM     30  H32 UNL     1      53.401  22.929 -12.022  1.00  0.00     0.174 HD
ATOM     31  H31 UNL     1      53.029  23.197 -13.716  1.00  0.00     0.174 HD
ENDBRANCH  22  29
BRANCH  25  32
HETATM   32  N5  UNL     1      48.327  23.853 -13.306  1.00  0.00    -0.234 N 
ATOM     33  H52 UNL     1      47.419  23.949 -12.852  1.00  0.00     0.174 HD
ATOM     34  H51 UNL     1      48.471  24.339 -14.190  1.00  0.00     0.174 HD
ENDBRANCH  25  32
ENDBRANCH  17  20
ENDBRANCH  10  11
ENDBRANCH   9  10
ENDBRANCH   8   9
ENDBRANCH   1   8
BRANCH   4  35
HETATM   35  C16 UNL     1      54.196  14.179  -2.896  1.00  0.00     0.217 C 
BRANCH  35  36
HETATM   36  O3  UNL     1      55.245  13.529  -3.600  1.00  0.00    -0.331 OA
BRANCH  36  37
HETATM   37  C17 UNL     1      55.897  12.482  -2.967  1.00  0.00     0.143 A 
HETATM   38  C18 UNL     1      55.206  11.499  -2.321  1.00  0.00     0.058 A 
HETATM   39  C19 UNL     1      55.831  10.456  -1.691  1.00  0.00     0.037 A 
HETATM   40  C20 UNL     1      57.202  10.410  -1.719  1.00  0.00     0.074 A 
HETATM   41  C23 UNL     1      57.914  11.411  -2.377  1.00  0.00     0.148 A 
HETATM   42  N12 UNL     1      57.236  12.410  -2.978  1.00  0.00    -0.320 N 
ATOM     43  H12 UNL     1      57.762  13.139  -3.458  1.00  0.00     0.169 HD
BRANCH  40  44
HETATM   44  N8  UNL     1      57.909   9.355  -1.113  1.00  0.00    -0.385 N 
ATOM     45  H8  UNL     1      58.644   8.899  -1.655  1.00  0.00     0.159 HD
BRANCH  44  46
HETATM   46  C21 UNL     1      57.663   8.881   0.209  1.00  0.00     0.147 C 
BRANCH  46  47
HETATM   47  C22 UNL     1      58.820   8.924   1.147  1.00  0.00     0.249 C 
BRANCH  47  48
HETATM   48  N9  UNL     1      58.782  10.173   1.922  1.00  0.00    -0.078 N 
ATOM     49  H93 UNL     1      58.988  10.020   2.908  1.00  0.00     0.274 HD
ATOM     50  H92 UNL     1      59.567  10.786   1.701  1.00  0.00     0.274 HD
ATOM     51  H91 UNL     1      57.882  10.636   1.785  1.00  0.00     0.274 HD
ENDBRANCH  47  48
ENDBRANCH  46  47
ENDBRANCH  44  46
ENDBRANCH  40  44
BRANCH  41  52
HETATM   52  N10 UNL     1      59.198  11.362  -2.398  1.00  0.00    -0.290 N 
ATOM     53  H10 UNL     1      59.734  11.427  -1.533  1.00  0.00     0.188 HD
BRANCH  52  54
HETATM   54  N11 UNL     1      59.840  11.220  -3.617  1.00  0.00    -0.344 N 
ATOM     55 2H11 UNL     1      60.535  10.482  -3.737  1.00  0.00     0.176 HD
ATOM     56 1H11 UNL     1      59.605  11.861  -4.374  1.00  0.00     0.176 HD
ENDBRANCH  52  54
ENDBRANCH  41  52
ENDBRANCH  36  37
ENDBRANCH  35  36
ENDBRANCH   4  35
TORSDOF 16
ENDMDL
