MODEL 1
REMARK VINA RESULT: -8.071496921      0.000      0.000
REMARK  14 active torsions:
REMARK  status: ('A' for Active; 'I' for Inactive)
REMARK       I    between atoms: C1_4  and  N3_6 
REMARK    1  A    between atoms: N3_6  and  C2_8 
REMARK    2  A    between atoms: C2_8  and  C3_9 
REMARK    3  A    between atoms: C3_9  and  C4_10 
REMARK    4  A    between atoms: C4_10  and  C5_11 
REMARK    5  A    between atoms: C5_11  and  C6_12 
REMARK    6  A    between atoms: C6_12  and  C7_13 
REMARK    7  A    between atoms: C7_13  and  C8_14 
REMARK    8  A    between atoms: C8_14  and  C9_15 
REMARK       I    between atoms: C9_15  and  N4_17 
REMARK    9  A    between atoms: N4_17  and  C10_19 
REMARK   10  A    between atoms: C10_19  and  C11_20 
REMARK   11  A    between atoms: C11_20  and  C12_21 
REMARK   12  A    between atoms: C12_21  and  C13_22 
REMARK   13  A    between atoms: C13_22  and  N5_23 
REMARK       I    between atoms: N5_23  and  C14_25 
REMARK       I    between atoms: C14_25  and  N6_27 
REMARK       I    between atoms: N7_30  and  C17_31 
REMARK   14  A    between atoms: C17_31  and  C18_33 
ROOT
HETATM    1  C11 UNL     1      54.211  18.227  -1.697  1.00  0.00     0.021 C 
ENDROOT
BRANCH   1   2
HETATM    2  C10 UNL     1      54.267  18.919  -3.015  1.00  0.00     0.122 C 
BRANCH   2   3
HETATM    3  N4  UNL     1      53.037  18.750  -3.732  1.00  0.00    -0.361 N 
HETATM    4  C9  UNL     1      52.945  18.546  -5.136  1.00  0.00     0.217 C 
HETATM    5  O1  UNL     1      54.013  18.505  -5.782  1.00  0.00    -0.274 OA
ATOM      6  H4  UNL     1      52.168  18.777  -3.198  1.00  0.00     0.162 HD
BRANCH   4   7
HETATM    7  C8  UNL     1      51.659  18.386  -5.821  1.00  0.00     0.103 C 
BRANCH   7   8
HETATM    8  C7  UNL     1      51.682  18.979  -7.198  1.00  0.00     0.009 C 
BRANCH   8   9
HETATM    9  C6  UNL     1      50.607  18.382  -8.038  1.00  0.00     0.000 C 
BRANCH   9  10
HETATM   10  C5  UNL     1      50.311  19.296  -9.241  1.00  0.00     0.000 C 
BRANCH  10  11
HETATM   11  C4  UNL     1      50.301  20.702  -8.802  1.00  0.00     0.002 C 
BRANCH  11  12
HETATM   12  C3  UNL     1      50.363  21.755  -9.849  1.00  0.00     0.020 C 
BRANCH  12  13
HETATM   13  C2  UNL     1      51.166  21.430 -11.052  1.00  0.00     0.122 C 
BRANCH  13  14
HETATM   14  N3  UNL     1      50.625  21.844 -12.306  1.00  0.00    -0.365 N 
HETATM   15  C1  UNL     1      51.182  22.989 -12.943  1.00  0.00     0.181 C 
HETATM   16  N1  UNL     1      50.488  23.729 -13.730  1.00  0.00    -0.374 N 
HETATM   17  N2  UNL     1      52.533  23.343 -12.730  1.00  0.00    -0.064 NA
ATOM     18  H12 UNL     1      50.888  24.549 -14.187  1.00  0.00     0.158 HD
ATOM     19  H11 UNL     1      49.513  23.474 -13.884  1.00  0.00     0.158 HD
ATOM     20  H3  UNL     1      49.855  21.332 -12.736  1.00  0.00     0.162 HD
ENDBRANCH  13  14
ENDBRANCH  12  13
ENDBRANCH  11  12
ENDBRANCH  10  11
ENDBRANCH   9  10
ENDBRANCH   8   9
ENDBRANCH   7   8
ENDBRANCH   4   7
ENDBRANCH   2   3
ENDBRANCH   1   2
BRANCH   1  21
HETATM   21  C12 UNL     1      52.797  18.061  -1.154  1.00  0.00     0.021 C 
BRANCH  21  22
HETATM   22  C13 UNL     1      52.428  16.636  -0.920  1.00  0.00     0.124 C 
BRANCH  22  23
HETATM   23  N5  UNL     1      52.736  15.747  -2.011  1.00  0.00    -0.343 N 
HETATM   24  C14 UNL     1      52.757  14.334  -1.914  1.00  0.00     0.318 C 
HETATM   25  O2  UNL     1      52.484  13.858  -0.755  1.00  0.00    -0.247 OA
HETATM   26  N6  UNL     1      53.053  13.461  -2.995  1.00  0.00    -0.331 N 
HETATM   27  C15 UNL     1      53.032  12.037  -2.734  1.00  0.00     0.147 C 
HETATM   28  C25 UNL     1      53.352  13.981  -4.286  1.00  0.00     0.147 C 
HETATM   29  C16 UNL     1      53.998  11.372  -3.694  1.00  0.00     0.145 C 
HETATM   30  N7  UNL     1      53.842  11.771  -5.050  1.00  0.00    -0.349 N 
HETATM   31  C17 UNL     1      54.486  11.078  -6.097  1.00  0.00     0.224 C 
HETATM   32  C24 UNL     1      53.005  12.916  -5.344  1.00  0.00     0.145 C 
HETATM   33  O3  UNL     1      54.310  11.503  -7.300  1.00  0.00    -0.273 OA
ATOM     34  H5  UNL     1      52.954  16.164  -2.916  1.00  0.00     0.164 HD
BRANCH  31  35
HETATM   35  C18 UNL     1      55.355   9.893  -5.956  1.00  0.00     0.078 C 
HETATM   36  C19 UNL     1      56.790  10.285  -6.221  1.00  0.00     0.014 C 
HETATM   37  C20 UNL     1      57.645   9.086  -5.813  1.00  0.00     0.001 C 
HETATM   38  C21 UNL     1      57.350   7.929  -6.759  1.00  0.00     0.000 C 
HETATM   39  C22 UNL     1      56.149   8.274  -7.632  1.00  0.00     0.001 C 
HETATM   40  C23 UNL     1      54.975   8.754  -6.828  1.00  0.00     0.014 C 
ENDBRANCH  31  35
ENDBRANCH  22  23
ENDBRANCH  21  22
ENDBRANCH   1  21
TORSDOF 14
ENDMDL
MODEL 2
REMARK VINA RESULT: -7.788830288      1.674      2.215
REMARK  14 active torsions:
REMARK  status: ('A' for Active; 'I' for Inactive)
REMARK       I    between atoms: C1_4  and  N3_6 
REMARK    1  A    between atoms: N3_6  and  C2_8 
REMARK    2  A    between atoms: C2_8  and  C3_9 
REMARK    3  A    between atoms: C3_9  and  C4_10 
REMARK    4  A    between atoms: C4_10  and  C5_11 
REMARK    5  A    between atoms: C5_11  and  C6_12 
REMARK    6  A    between atoms: C6_12  and  C7_13 
REMARK    7  A    between atoms: C7_13  and  C8_14 
REMARK    8  A    between atoms: C8_14  and  C9_15 
REMARK       I    between atoms: C9_15  and  N4_17 
REMARK    9  A    between atoms: N4_17  and  C10_19 
REMARK   10  A    between atoms: C10_19  and  C11_20 
REMARK   11  A    between atoms: C11_20  and  C12_21 
REMARK   12  A    between atoms: C12_21  and  C13_22 
REMARK   13  A    between atoms: C13_22  and  N5_23 
REMARK       I    between atoms: N5_23  and  C14_25 
REMARK       I    between atoms: C14_25  and  N6_27 
REMARK       I    between atoms: N7_30  and  C17_31 
REMARK   14  A    between atoms: C17_31  and  C18_33 
ROOT
HETATM    1  C11 UNL     1      53.433  19.136  -0.921  1.00  0.00     0.021 C 
ENDROOT
BRANCH   1   2
HETATM    2  C10 UNL     1      54.375  19.360  -2.054  1.00  0.00     0.122 C 
BRANCH   2   3
HETATM    3  N4  UNL     1      53.686  19.293  -3.310  1.00  0.00    -0.361 N 
HETATM    4  C9  UNL     1      53.896  18.287  -4.292  1.00  0.00     0.217 C 
HETATM    5  O1  UNL     1      54.735  17.398  -4.033  1.00  0.00    -0.274 OA
ATOM      6  H4  UNL     1      52.998  20.019  -3.513  1.00  0.00     0.162 HD
BRANCH   4   7
HETATM    7  C8  UNL     1      53.170  18.272  -5.565  1.00  0.00     0.103 C 
BRANCH   7   8
HETATM    8  C7  UNL     1      51.705  18.023  -5.369  1.00  0.00     0.009 C 
BRANCH   8   9
HETATM    9  C6  UNL     1      51.335  16.671  -5.870  1.00  0.00     0.000 C 
BRANCH   9  10
HETATM   10  C5  UNL     1      50.888  16.757  -7.340  1.00  0.00     0.000 C 
BRANCH  10  11
HETATM   11  C4  UNL     1      49.474  17.168  -7.403  1.00  0.00     0.002 C 
BRANCH  11  12
HETATM   12  C3  UNL     1      48.935  17.591  -8.721  1.00  0.00     0.020 C 
BRANCH  12  13
HETATM   13  C2  UNL     1      49.936  17.977  -9.742  1.00  0.00     0.122 C 
BRANCH  13  14
HETATM   14  N3  UNL     1      49.894  19.331 -10.191  1.00  0.00    -0.365 N 
HETATM   15  C1  UNL     1      50.550  20.327  -9.413  1.00  0.00     0.181 C 
HETATM   16  N1  UNL     1      50.154  21.549  -9.408  1.00  0.00    -0.374 N 
HETATM   17  N2  UNL     1      51.670  19.996  -8.620  1.00  0.00    -0.064 NA
ATOM     18  H12 UNL     1      50.624  22.262  -8.850  1.00  0.00     0.158 HD
ATOM     19  H11 UNL     1      49.345  21.789  -9.980  1.00  0.00     0.158 HD
ATOM     20  H3  UNL     1      49.404  19.580 -11.050  1.00  0.00     0.162 HD
ENDBRANCH  13  14
ENDBRANCH  12  13
ENDBRANCH  11  12
ENDBRANCH  10  11
ENDBRANCH   9  10
ENDBRANCH   8   9
ENDBRANCH   7   8
ENDBRANCH   4   7
ENDBRANCH   2   3
ENDBRANCH   1   2
BRANCH   1  21
HETATM   21  C12 UNL     1      52.256  18.236  -1.275  1.00  0.00     0.021 C 
BRANCH  21  22
HETATM   22  C13 UNL     1      52.470  16.815  -0.879  1.00  0.00     0.124 C 
BRANCH  22  23
HETATM   23  N5  UNL     1      52.759  15.922  -1.973  1.00  0.00    -0.343 N 
HETATM   24  C14 UNL     1      52.731  14.509  -1.883  1.00  0.00     0.318 C 
HETATM   25  O2  UNL     1      52.431  14.036  -0.731  1.00  0.00    -0.247 OA
HETATM   26  N6  UNL     1      53.009  13.632  -2.967  1.00  0.00    -0.331 N 
HETATM   27  C15 UNL     1      52.938  12.208  -2.714  1.00  0.00     0.147 C 
HETATM   28  C25 UNL     1      53.339  14.149  -4.252  1.00  0.00     0.147 C 
HETATM   29  C16 UNL     1      53.891  11.517  -3.669  1.00  0.00     0.145 C 
HETATM   30  N7  UNL     1      53.762  11.928  -5.024  1.00  0.00    -0.349 N 
HETATM   31  C17 UNL     1      54.393  11.220  -6.069  1.00  0.00     0.224 C 
HETATM   32  C24 UNL     1      52.967  13.102  -5.319  1.00  0.00     0.145 C 
HETATM   33  O3  UNL     1      54.243  11.657  -7.271  1.00  0.00    -0.273 OA
ATOM     34  H5  UNL     1      53.001  16.336  -2.873  1.00  0.00     0.164 HD
BRANCH  31  35
HETATM   35  C18 UNL     1      55.221  10.006  -5.925  1.00  0.00     0.078 C 
HETATM   36  C19 UNL     1      56.680  10.393  -5.864  1.00  0.00     0.014 C 
HETATM   37  C20 UNL     1      57.443   9.131  -5.466  1.00  0.00     0.001 C 
HETATM   38  C21 UNL     1      57.331   8.114  -6.595  1.00  0.00     0.000 C 
HETATM   39  C22 UNL     1      56.316   8.599  -7.623  1.00  0.00     0.001 C 
HETATM   40  C23 UNL     1      55.012   8.999  -6.996  1.00  0.00     0.014 C 
ENDBRANCH  31  35
ENDBRANCH  22  23
ENDBRANCH  21  22
ENDBRANCH   1  21
TORSDOF 14
ENDMDL
MODEL 3
REMARK VINA RESULT: -7.712602180      3.327      9.849
REMARK  14 active torsions:
REMARK  status: ('A' for Active; 'I' for Inactive)
REMARK       I    between atoms: C1_4  and  N3_6 
REMARK    1  A    between atoms: N3_6  and  C2_8 
REMARK    2  A    between atoms: C2_8  and  C3_9 
REMARK    3  A    between atoms: C3_9  and  C4_10 
REMARK    4  A    between atoms: C4_10  and  C5_11 
REMARK    5  A    between atoms: C5_11  and  C6_12 
REMARK    6  A    between atoms: C6_12  and  C7_13 
REMARK    7  A    between atoms: C7_13  and  C8_14 
REMARK    8  A    between atoms: C8_14  and  C9_15 
REMARK       I    between atoms: C9_15  and  N4_17 
REMARK    9  A    between atoms: N4_17  and  C10_19 
REMARK   10  A    between atoms: C10_19  and  C11_20 
REMARK   11  A    between atoms: C11_20  and  C12_21 
REMARK   12  A    between atoms: C12_21  and  C13_22 
REMARK   13  A    between atoms: C13_22  and  N5_23 
REMARK       I    between atoms: N5_23  and  C14_25 
REMARK       I    between atoms: C14_25  and  N6_27 
REMARK       I    between atoms: N7_30  and  C17_31 
REMARK   14  A    between atoms: C17_31  and  C18_33 
ROOT
HETATM    1  C11 UNL     1      53.127  13.058  -5.521  1.00  0.00     0.021 C 
ENDROOT
BRANCH   1   2
HETATM    2  C10 UNL     1      52.363  13.239  -4.255  1.00  0.00     0.122 C 
BRANCH   2   3
HETATM    3  N4  UNL     1      52.612  14.533  -3.690  1.00  0.00    -0.361 N 
HETATM    4  C9  UNL     1      52.799  14.784  -2.303  1.00  0.00     0.217 C 
HETATM    5  O1  UNL     1      52.748  13.804  -1.530  1.00  0.00    -0.274 OA
ATOM      6  H4  UNL     1      52.659  15.328  -4.327  1.00  0.00     0.162 HD
BRANCH   4   7
HETATM    7  C8  UNL     1      53.042  16.130  -1.777  1.00  0.00     0.103 C 
BRANCH   7   8
HETATM    8  C7  UNL     1      52.218  16.412  -0.558  1.00  0.00     0.009 C 
BRANCH   8   9
HETATM    9  C6  UNL     1      52.288  17.857  -0.205  1.00  0.00     0.000 C 
BRANCH   9  10
HETATM   10  C5  UNL     1      53.475  18.111   0.742  1.00  0.00     0.000 C 
BRANCH  10  11
HETATM   11  C4  UNL     1      54.598  18.687  -0.018  1.00  0.00     0.002 C 
BRANCH  11  12
HETATM   12  C3  UNL     1      54.311  19.839  -0.912  1.00  0.00     0.020 C 
BRANCH  12  13
HETATM   13  C2  UNL     1      54.519  19.608  -2.360  1.00  0.00     0.122 C 
BRANCH  13  14
HETATM   14  N3  UNL     1      53.354  19.307  -3.128  1.00  0.00    -0.365 N 
HETATM   15  C1  UNL     1      53.520  18.739  -4.423  1.00  0.00     0.181 C 
HETATM   16  N1  UNL     1      52.655  18.919  -5.356  1.00  0.00    -0.374 N 
HETATM   17  N2  UNL     1      54.651  17.947  -4.719  1.00  0.00    -0.064 NA
ATOM     18  H12 UNL     1      52.775  18.511  -6.283  1.00  0.00     0.158 HD
ATOM     19  H11 UNL     1      51.838  19.491  -5.142  1.00  0.00     0.158 HD
ATOM     20  H3  UNL     1      52.423  19.496  -2.757  1.00  0.00     0.162 HD
ENDBRANCH  13  14
ENDBRANCH  12  13
ENDBRANCH  11  12
ENDBRANCH  10  11
ENDBRANCH   9  10
ENDBRANCH   8   9
ENDBRANCH   7   8
ENDBRANCH   4   7
ENDBRANCH   2   3
ENDBRANCH   1   2
BRANCH   1  21
HETATM   21  C12 UNL     1      52.298  12.464  -6.654  1.00  0.00     0.021 C 
BRANCH  21  22
HETATM   22  C13 UNL     1      50.937  13.062  -6.752  1.00  0.00     0.124 C 
BRANCH  22  23
HETATM   23  N5  UNL     1      50.913  14.437  -7.183  1.00  0.00    -0.343 N 
HETATM   24  C14 UNL     1      50.066  14.945  -8.199  1.00  0.00     0.318 C 
HETATM   25  O2  UNL     1      49.291  14.086  -8.750  1.00  0.00    -0.247 OA
HETATM   26  N6  UNL     1      50.039  16.303  -8.615  1.00  0.00    -0.331 N 
HETATM   27  C15 UNL     1      49.114  16.666  -9.668  1.00  0.00     0.147 C 
HETATM   28  C25 UNL     1      50.894  17.265  -8.006  1.00  0.00     0.147 C 
HETATM   29  C16 UNL     1      49.695  17.852 -10.412  1.00  0.00     0.145 C 
HETATM   30  N7  UNL     1      50.145  18.906  -9.571  1.00  0.00    -0.349 N 
HETATM   31  C17 UNL     1      50.484  20.171 -10.098  1.00  0.00     0.224 C 
HETATM   32  C24 UNL     1      50.255  18.660  -8.148  1.00  0.00     0.145 C 
HETATM   33  O3  UNL     1      50.896  21.075  -9.279  1.00  0.00    -0.273 OA
ATOM     34  H5  UNL     1      51.549  15.089  -6.726  1.00  0.00     0.164 HD
BRANCH  31  35
HETATM   35  C18 UNL     1      50.412  20.574 -11.517  1.00  0.00     0.078 C 
HETATM   36  C19 UNL     1      51.258  21.807 -11.735  1.00  0.00     0.014 C 
HETATM   37  C20 UNL     1      51.337  22.011 -13.247  1.00  0.00     0.001 C 
HETATM   38  C21 UNL     1      49.949  22.362 -13.768  1.00  0.00     0.000 C 
HETATM   39  C22 UNL     1      48.921  22.163 -12.661  1.00  0.00     0.001 C 
HETATM   40  C23 UNL     1      49.033  20.815 -12.010  1.00  0.00     0.014 C 
ENDBRANCH  31  35
ENDBRANCH  22  23
ENDBRANCH  21  22
ENDBRANCH   1  21
TORSDOF 14
ENDMDL
MODEL 4
REMARK VINA RESULT: -7.476490639      3.180      5.520
REMARK  14 active torsions:
REMARK  status: ('A' for Active; 'I' for Inactive)
REMARK       I    between atoms: C1_4  and  N3_6 
REMARK    1  A    between atoms: N3_6  and  C2_8 
REMARK    2  A    between atoms: C2_8  and  C3_9 
REMARK    3  A    between atoms: C3_9  and  C4_10 
REMARK    4  A    between atoms: C4_10  and  C5_11 
REMARK    5  A    between atoms: C5_11  and  C6_12 
REMARK    6  A    between atoms: C6_12  and  C7_13 
REMARK    7  A    between atoms: C7_13  and  C8_14 
REMARK    8  A    between atoms: C8_14  and  C9_15 
REMARK       I    between atoms: C9_15  and  N4_17 
REMARK    9  A    between atoms: N4_17  and  C10_19 
REMARK   10  A    between atoms: C10_19  and  C11_20 
REMARK   11  A    between atoms: C11_20  and  C12_21 
REMARK   12  A    between atoms: C12_21  and  C13_22 
REMARK   13  A    between atoms: C13_22  and  N5_23 
REMARK       I    between atoms: N5_23  and  C14_25 
REMARK       I    between atoms: C14_25  and  N6_27 
REMARK       I    between atoms: N7_30  and  C17_31 
REMARK   14  A    between atoms: C17_31  and  C18_33 
ROOT
HETATM    1  C11 UNL     1      47.513  16.806  -8.320  1.00  0.00     0.021 C 
ENDROOT
BRANCH   1   2
HETATM    2  C10 UNL     1      47.712  16.435  -9.749  1.00  0.00     0.122 C 
BRANCH   2   3
HETATM    3  N4  UNL     1      48.161  17.563 -10.511  1.00  0.00    -0.361 N 
HETATM    4  C9  UNL     1      48.953  17.476 -11.689  1.00  0.00     0.217 C 
HETATM    5  O1  UNL     1      49.269  16.334 -12.086  1.00  0.00    -0.274 OA
ATOM      6  H4  UNL     1      47.895  18.492 -10.186  1.00  0.00     0.162 HD
BRANCH   4   7
HETATM    7  C8  UNL     1      49.393  18.664 -12.426  1.00  0.00     0.103 C 
BRANCH   7   8
HETATM    8  C7  UNL     1      48.329  19.719 -12.471  1.00  0.00     0.009 C 
BRANCH   8   9
HETATM    9  C6  UNL     1      48.942  21.076 -12.445  1.00  0.00     0.000 C 
BRANCH   9  10
HETATM   10  C5  UNL     1      50.476  20.962 -12.493  1.00  0.00     0.000 C 
BRANCH  10  11
HETATM   11  C4  UNL     1      51.067  21.815 -11.447  1.00  0.00     0.002 C 
BRANCH  11  12
HETATM   12  C3  UNL     1      50.448  21.784 -10.097  1.00  0.00     0.020 C 
BRANCH  12  13
HETATM   13  C2  UNL     1      50.616  20.526  -9.332  1.00  0.00     0.122 C 
BRANCH  13  14
HETATM   14  N3  UNL     1      50.490  20.626  -7.913  1.00  0.00    -0.365 N 
HETATM   15  C1  UNL     1      51.235  19.725  -7.100  1.00  0.00     0.181 C 
HETATM   16  N1  UNL     1      50.826  19.372  -5.934  1.00  0.00    -0.374 N 
HETATM   17  N2  UNL     1      52.461  19.191  -7.555  1.00  0.00    -0.064 NA
ATOM     18  H12 UNL     1      51.359  18.727  -5.351  1.00  0.00     0.158 HD
ATOM     19  H11 UNL     1      49.940  19.757  -5.605  1.00  0.00     0.158 HD
ATOM     20  H3  UNL     1      49.881  21.326  -7.492  1.00  0.00     0.162 HD
ENDBRANCH  13  14
ENDBRANCH  12  13
ENDBRANCH  11  12
ENDBRANCH  10  11
ENDBRANCH   9  10
ENDBRANCH   8   9
ENDBRANCH   7   8
ENDBRANCH   4   7
ENDBRANCH   2   3
ENDBRANCH   1   2
BRANCH   1  21
HETATM   21  C12 UNL     1      48.360  15.987  -7.354  1.00  0.00     0.021 C 
BRANCH  21  22
HETATM   22  C13 UNL     1      49.819  16.263  -7.483  1.00  0.00     0.124 C 
BRANCH  22  23
HETATM   23  N5  UNL     1      50.676  15.235  -6.950  1.00  0.00    -0.343 N 
HETATM   24  C14 UNL     1      51.593  15.425  -5.886  1.00  0.00     0.318 C 
HETATM   25  O2  UNL     1      51.634  16.610  -5.400  1.00  0.00    -0.247 OA
HETATM   26  N6  UNL     1      52.430  14.405  -5.359  1.00  0.00    -0.331 N 
HETATM   27  C15 UNL     1      53.314  14.759  -4.268  1.00  0.00     0.147 C 
HETATM   28  C25 UNL     1      52.388  13.085  -5.890  1.00  0.00     0.147 C 
HETATM   29  C16 UNL     1      54.526  13.851  -4.335  1.00  0.00     0.145 C 
HETATM   30  N7  UNL     1      54.215  12.471  -4.479  1.00  0.00    -0.349 N 
HETATM   31  C17 UNL     1      55.202  11.476  -4.314  1.00  0.00     0.224 C 
HETATM   32  C24 UNL     1      52.854  12.097  -4.803  1.00  0.00     0.145 C 
HETATM   33  O3  UNL     1      54.851  10.246  -4.471  1.00  0.00    -0.273 OA
ATOM     34  H5  UNL     1      50.620  14.306  -7.367  1.00  0.00     0.164 HD
BRANCH  31  35
HETATM   35  C18 UNL     1      56.621  11.701  -3.972  1.00  0.00     0.078 C 
HETATM   36  C19 UNL     1      57.479  10.681  -4.683  1.00  0.00     0.014 C 
HETATM   37  C20 UNL     1      58.927  11.128  -4.488  1.00  0.00     0.001 C 
HETATM   38  C21 UNL     1      59.281  11.010  -3.010  1.00  0.00     0.000 C 
HETATM   39  C22 UNL     1      58.022  10.717  -2.203  1.00  0.00     0.001 C 
HETATM   40  C23 UNL     1      56.905  11.671  -2.516  1.00  0.00     0.014 C 
ENDBRANCH  31  35
ENDBRANCH  22  23
ENDBRANCH  21  22
ENDBRANCH   1  21
TORSDOF 14
ENDMDL
MODEL 5
REMARK VINA RESULT: -7.410319078      3.240      9.212
REMARK  14 active torsions:
REMARK  status: ('A' for Active; 'I' for Inactive)
REMARK       I    between atoms: C1_4  and  N3_6 
REMARK    1  A    between atoms: N3_6  and  C2_8 
REMARK    2  A    between atoms: C2_8  and  C3_9 
REMARK    3  A    between atoms: C3_9  and  C4_10 
REMARK    4  A    between atoms: C4_10  and  C5_11 
REMARK    5  A    between atoms: C5_11  and  C6_12 
REMARK    6  A    between atoms: C6_12  and  C7_13 
REMARK    7  A    between atoms: C7_13  and  C8_14 
REMARK    8  A    between atoms: C8_14  and  C9_15 
REMARK       I    between atoms: C9_15  and  N4_17 
REMARK    9  A    between atoms: N4_17  and  C10_19 
REMARK   10  A    between atoms: C10_19  and  C11_20 
REMARK   11  A    between atoms: C11_20  and  C12_21 
REMARK   12  A    between atoms: C12_21  and  C13_22 
REMARK   13  A    between atoms: C13_22  and  N5_23 
REMARK       I    between atoms: N5_23  and  C14_25 
REMARK       I    between atoms: C14_25  and  N6_27 
REMARK       I    between atoms: N7_30  and  C17_31 
REMARK   14  A    between atoms: C17_31  and  C18_33 
ROOT
HETATM    1  C11 UNL     1      54.106  11.161  -6.670  1.00  0.00     0.021 C 
ENDROOT
BRANCH   1   2
HETATM    2  C10 UNL     1      55.266  10.908  -5.770  1.00  0.00     0.122 C 
BRANCH   2   3
HETATM    3  N4  UNL     1      54.918  11.169  -4.404  1.00  0.00    -0.361 N 
HETATM    4  C9  UNL     1      55.194  12.384  -3.720  1.00  0.00     0.217 C 
HETATM    5  O1  UNL     1      55.774  13.286  -4.363  1.00  0.00    -0.274 OA
ATOM      6  H4  UNL     1      54.439  10.432  -3.886  1.00  0.00     0.162 HD
BRANCH   4   7
HETATM    7  C8  UNL     1      54.823  12.596  -2.318  1.00  0.00     0.103 C 
BRANCH   7   8
HETATM    8  C7  UNL     1      53.361  12.361  -2.086  1.00  0.00     0.009 C 
BRANCH   8   9
HETATM    9  C6  UNL     1      52.553  13.420  -2.749  1.00  0.00     0.000 C 
BRANCH   9  10
HETATM   10  C5  UNL     1      52.874  14.793  -2.132  1.00  0.00     0.000 C 
BRANCH  10  11
HETATM   11  C4  UNL     1      53.205  15.750  -3.202  1.00  0.00     0.002 C 
BRANCH  11  12
HETATM   12  C3  UNL     1      53.935  16.987  -2.822  1.00  0.00     0.020 C 
BRANCH  12  13
HETATM   13  C2  UNL     1      53.215  18.263  -3.044  1.00  0.00     0.122 C 
BRANCH  13  14
HETATM   14  N3  UNL     1      52.037  18.195  -3.846  1.00  0.00    -0.365 N 
HETATM   15  C1  UNL     1      52.098  18.667  -5.188  1.00  0.00     0.181 C 
HETATM   16  N1  UNL     1      51.062  19.134  -5.787  1.00  0.00    -0.374 N 
HETATM   17  N2  UNL     1      53.313  18.630  -5.907  1.00  0.00    -0.064 NA
ATOM     18  H12 UNL     1      51.107  19.473  -6.749  1.00  0.00     0.158 HD
ATOM     19  H11 UNL     1      50.185  19.162  -5.268  1.00  0.00     0.158 HD
ATOM     20  H3  UNL     1      51.169  17.816  -3.466  1.00  0.00     0.162 HD
ENDBRANCH  13  14
ENDBRANCH  12  13
ENDBRANCH  11  12
ENDBRANCH  10  11
ENDBRANCH   9  10
ENDBRANCH   8   9
ENDBRANCH   7   8
ENDBRANCH   4   7
ENDBRANCH   2   3
ENDBRANCH   1   2
BRANCH   1  21
HETATM   21  C12 UNL     1      53.616   9.917  -7.399  1.00  0.00     0.021 C 
BRANCH  21  22
HETATM   22  C13 UNL     1      52.219  10.049  -7.901  1.00  0.00     0.124 C 
BRANCH  22  23
HETATM   23  N5  UNL     1      51.703  11.395  -7.899  1.00  0.00    -0.343 N 
HETATM   24  C14 UNL     1      51.299  12.101  -9.058  1.00  0.00     0.318 C 
HETATM   25  O2  UNL     1      51.425  11.464 -10.163  1.00  0.00    -0.247 OA
HETATM   26  N6  UNL     1      50.783  13.425  -9.050  1.00  0.00    -0.331 N 
HETATM   27  C15 UNL     1      50.412  14.010 -10.322  1.00  0.00     0.147 C 
HETATM   28  C25 UNL     1      50.636  14.139  -7.827  1.00  0.00     0.147 C 
HETATM   29  C16 UNL     1      50.578  15.512 -10.211  1.00  0.00     0.145 C 
HETATM   30  N7  UNL     1      49.982  16.082  -9.052  1.00  0.00    -0.349 N 
HETATM   31  C17 UNL     1      49.831  17.479  -8.917  1.00  0.00     0.224 C 
HETATM   32  C24 UNL     1      49.530  15.198  -7.998  1.00  0.00     0.145 C 
HETATM   33  O3  UNL     1      49.294  17.926  -7.835  1.00  0.00    -0.273 OA
ATOM     34  H5  UNL     1      51.625  11.872  -7.000  1.00  0.00     0.164 HD
BRANCH  31  35
HETATM   35  C18 UNL     1      50.230  18.501  -9.905  1.00  0.00     0.078 C 
HETATM   36  C19 UNL     1      50.394  19.834  -9.215  1.00  0.00     0.014 C 
HETATM   37  C20 UNL     1      51.043  20.769 -10.235  1.00  0.00     0.001 C 
HETATM   38  C21 UNL     1      50.061  21.010 -11.374  1.00  0.00     0.000 C 
HETATM   39  C22 UNL     1      48.872  20.066 -11.234  1.00  0.00     0.001 C 
HETATM   40  C23 UNL     1      49.293  18.637 -11.048  1.00  0.00     0.014 C 
ENDBRANCH  31  35
ENDBRANCH  22  23
ENDBRANCH  21  22
ENDBRANCH   1  21
TORSDOF 14
ENDMDL
