MODEL 1
REMARK VINA RESULT: -7.275348024      0.000      0.000
REMARK  14 active torsions:
REMARK  status: ('A' for Active; 'I' for Inactive)
REMARK    1  A    between atoms: C3_3  and  N1_4 
REMARK    2  A    between atoms: N1_4  and  C4_6 
REMARK    3  A    between atoms: C4_6  and  C5_10 
REMARK    4  A    between atoms: C5_10  and  C6_11 
REMARK    5  A    between atoms: C6_11  and  C7_12 
REMARK    6  A    between atoms: C7_12  and  C8_13 
REMARK    7  A    between atoms: C8_13  and  C9_14 
REMARK    8  A    between atoms: C9_14  and  N3_15 
REMARK       I    between atoms: N3_15  and  C10_17 
REMARK       I    between atoms: C10_17  and  N4_19 
REMARK    9  A    between atoms: C13_22  and  C14_23 
REMARK   10  A    between atoms: C14_23  and  C15_24 
REMARK   11  A    between atoms: C15_24  and  C16_25 
REMARK   12  A    between atoms: C16_25  and  C17_26 
REMARK       I    between atoms: C17_26  and  N5_28 
REMARK   13  A    between atoms: N5_28  and  C18_30 
REMARK   14  A    between atoms: C22_34  and  C23_35 
REMARK       I    between atoms: C23_35  and  N6_37 
ROOT
HETATM    1  C1  UNL     1      55.494  11.282  -2.087  1.00  0.00     0.014 C 
HETATM    2  C2  UNL     1      56.273  11.672  -2.924  1.00  0.00    -0.098 C 
HETATM    3  C3  UNL     1      57.210  12.131  -3.958  1.00  0.00     0.214 C 
ENDROOT
BRANCH   3   4
HETATM    4  N1  UNL     1      58.579  11.797  -3.645  1.00  0.00    -0.370 N 
ATOM      5  H1  UNL     1      59.124  12.406  -3.035  1.00  0.00     0.161 HD
BRANCH   4   6
HETATM    6  C4  UNL     1      59.167  10.627  -4.185  1.00  0.00     0.071 C 
HETATM    7  N2  UNL     1      59.544  10.640  -5.419  1.00  0.00    -0.389 N 
ATOM      8  H22 UNL     1      59.442  11.456  -6.022  1.00  0.00     0.157 HD
ATOM      9  H21 UNL     1      59.967   9.797  -5.807  1.00  0.00     0.157 HD
BRANCH   6  10
HETATM   10  C5  UNL     1      59.316   9.448  -3.315  1.00  0.00     0.075 C 
BRANCH  10  11
HETATM   11  C6  UNL     1      60.111   9.886  -2.090  1.00  0.00     0.007 C 
BRANCH  11  12
HETATM   12  C7  UNL     1      59.708   9.092  -0.889  1.00  0.00     0.002 C 
BRANCH  12  13
HETATM   13  C8  UNL     1      58.304   9.447  -0.427  1.00  0.00     0.020 C 
BRANCH  13  14
HETATM   14  C9  UNL     1      57.650   8.321   0.289  1.00  0.00     0.124 C 
BRANCH  14  15
HETATM   15  N3  UNL     1      56.291   8.627   0.606  1.00  0.00    -0.343 N 
HETATM   16  C10 UNL     1      55.207   8.256  -0.201  1.00  0.00     0.318 C 
HETATM   17  O1  UNL     1      55.478   7.616  -1.284  1.00  0.00    -0.247 OA
HETATM   18  N4  UNL     1      53.877   8.554   0.126  1.00  0.00    -0.334 N 
HETATM   19  C11 UNL     1      53.514   9.265   1.307  1.00  0.00     0.128 C 
HETATM   20  C26 UNL     1      52.805   8.144  -0.755  1.00  0.00     0.128 C 
HETATM   21  C12 UNL     1      53.128  10.672   0.807  1.00  0.00     0.024 C 
HETATM   22  C13 UNL     1      52.324  10.568  -0.467  1.00  0.00    -0.012 C 
HETATM   23  C25 UNL     1      51.719   9.229  -0.682  1.00  0.00     0.024 C 
ATOM     24  H3  UNL     1      56.099   9.143   1.465  1.00  0.00     0.164 HD
BRANCH  22  25
HETATM   25  C14 UNL     1      51.340  11.679  -0.507  1.00  0.00     0.005 C 
BRANCH  25  26
HETATM   26  C15 UNL     1      51.648  12.661  -1.580  1.00  0.00     0.010 C 
BRANCH  26  27
HETATM   27  C16 UNL     1      52.733  13.618  -1.097  1.00  0.00     0.103 C 
BRANCH  27  28
HETATM   28  C17 UNL     1      52.737  14.844  -1.918  1.00  0.00     0.217 C 
HETATM   29  O2  UNL     1      52.767  14.732  -3.168  1.00  0.00    -0.274 OA
HETATM   30  N5  UNL     1      52.707  16.124  -1.343  1.00  0.00    -0.356 N 
ATOM     31  H5  UNL     1      52.689  16.201  -0.327  1.00  0.00     0.162 HD
BRANCH  30  32
HETATM   32  C18 UNL     1      52.702  17.348  -2.132  1.00  0.00     0.097 C 
HETATM   33  C19 UNL     1      52.288  18.521  -1.322  1.00  0.00     0.026 C 
HETATM   34  C20 UNL     1      53.463  19.441  -1.266  1.00  0.00     0.003 C 
HETATM   35  C21 UNL     1      54.661  18.752  -1.829  1.00  0.00     0.016 C 
HETATM   36  C22 UNL     1      54.047  17.688  -2.701  1.00  0.00     0.100 C 
BRANCH  36  37
HETATM   37  C23 UNL     1      53.853  18.099  -4.101  1.00  0.00     0.223 C 
HETATM   38  O3  UNL     1      54.823  18.138  -4.881  1.00  0.00    -0.273 OA
HETATM   39  N6  UNL     1      52.574  18.455  -4.575  1.00  0.00    -0.365 N 
HETATM   40  C24 UNL     1      52.355  18.875  -5.965  1.00  0.00     0.149 C 
ATOM     41  H6  UNL     1      51.780  18.421  -3.936  1.00  0.00     0.161 HD
ENDBRANCH  36  37
ENDBRANCH  30  32
ENDBRANCH  27  28
ENDBRANCH  26  27
ENDBRANCH  25  26
ENDBRANCH  22  25
ENDBRANCH  14  15
ENDBRANCH  13  14
ENDBRANCH  12  13
ENDBRANCH  11  12
ENDBRANCH  10  11
ENDBRANCH   6  10
ENDBRANCH   4   6
ENDBRANCH   3   4
TORSDOF 14
ENDMDL
MODEL 2
REMARK VINA RESULT: -6.980883231      5.043      8.341
REMARK  14 active torsions:
REMARK  status: ('A' for Active; 'I' for Inactive)
REMARK    1  A    between atoms: C3_3  and  N1_4 
REMARK    2  A    between atoms: N1_4  and  C4_6 
REMARK    3  A    between atoms: C4_6  and  C5_10 
REMARK    4  A    between atoms: C5_10  and  C6_11 
REMARK    5  A    between atoms: C6_11  and  C7_12 
REMARK    6  A    between atoms: C7_12  and  C8_13 
REMARK    7  A    between atoms: C8_13  and  C9_14 
REMARK    8  A    between atoms: C9_14  and  N3_15 
REMARK       I    between atoms: N3_15  and  C10_17 
REMARK       I    between atoms: C10_17  and  N4_19 
REMARK    9  A    between atoms: C13_22  and  C14_23 
REMARK   10  A    between atoms: C14_23  and  C15_24 
REMARK   11  A    between atoms: C15_24  and  C16_25 
REMARK   12  A    between atoms: C16_25  and  C17_26 
REMARK       I    between atoms: C17_26  and  N5_28 
REMARK   13  A    between atoms: N5_28  and  C18_30 
REMARK   14  A    between atoms: C22_34  and  C23_35 
REMARK       I    between atoms: C23_35  and  N6_37 
ROOT
HETATM    1  C1  UNL     1      53.169  18.062   0.430  1.00  0.00     0.014 C 
HETATM    2  C2  UNL     1      53.360  18.868  -0.450  1.00  0.00    -0.098 C 
HETATM    3  C3  UNL     1      53.567  19.855  -1.518  1.00  0.00     0.214 C 
ENDROOT
BRANCH   3   4
HETATM    4  N1  UNL     1      53.818  19.236  -2.797  1.00  0.00    -0.370 N 
ATOM      5  H1  UNL     1      54.622  19.525  -3.353  1.00  0.00     0.161 HD
BRANCH   4   6
HETATM    6  C4  UNL     1      52.948  18.227  -3.282  1.00  0.00     0.071 C 
HETATM    7  N2  UNL     1      51.678  18.456  -3.279  1.00  0.00    -0.389 N 
ATOM      8  H22 UNL     1      51.272  19.331  -2.948  1.00  0.00     0.157 HD
ATOM      9  H21 UNL     1      51.053  17.730  -3.628  1.00  0.00     0.157 HD
BRANCH   6  10
HETATM   10  C5  UNL     1      53.534  16.964  -3.760  1.00  0.00     0.075 C 
BRANCH  10  11
HETATM   11  C6  UNL     1      53.218  15.895  -2.721  1.00  0.00     0.007 C 
BRANCH  11  12
HETATM   12  C7  UNL     1      54.201  14.773  -2.802  1.00  0.00     0.002 C 
BRANCH  12  13
HETATM   13  C8  UNL     1      53.573  13.516  -3.381  1.00  0.00     0.020 C 
BRANCH  13  14
HETATM   14  C9  UNL     1      53.987  13.280  -4.788  1.00  0.00     0.124 C 
BRANCH  14  15
HETATM   15  N3  UNL     1      52.875  12.899  -5.600  1.00  0.00    -0.343 N 
HETATM   16  C10 UNL     1      52.978  12.023  -6.690  1.00  0.00     0.318 C 
HETATM   17  O1  UNL     1      54.149  11.560  -6.958  1.00  0.00    -0.247 OA
HETATM   18  N4  UNL     1      51.877  11.650  -7.473  1.00  0.00    -0.334 N 
HETATM   19  C11 UNL     1      50.559  12.133  -7.230  1.00  0.00     0.128 C 
HETATM   20  C26 UNL     1      52.056  10.744  -8.587  1.00  0.00     0.128 C 
HETATM   21  C12 UNL     1      50.312  13.160  -8.355  1.00  0.00     0.024 C 
HETATM   22  C13 UNL     1      50.855  12.639  -9.663  1.00  0.00    -0.012 C 
HETATM   23  C25 UNL     1      51.060  11.168  -9.679  1.00  0.00     0.024 C 
ATOM     24  H3  UNL     1      51.958  13.284  -5.376  1.00  0.00     0.164 HD
BRANCH  22  25
HETATM   25  C14 UNL     1      49.998  13.132 -10.771  1.00  0.00     0.005 C 
BRANCH  25  26
HETATM   26  C15 UNL     1      50.536  14.374 -11.384  1.00  0.00     0.010 C 
BRANCH  26  27
HETATM   27  C16 UNL     1      49.390  15.338 -11.671  1.00  0.00     0.103 C 
BRANCH  27  28
HETATM   28  C17 UNL     1      49.455  16.497 -10.760  1.00  0.00     0.217 C 
HETATM   29  O2  UNL     1      49.421  17.652 -11.250  1.00  0.00    -0.274 OA
HETATM   30  N5  UNL     1      49.554  16.344  -9.367  1.00  0.00    -0.356 N 
ATOM     31  H5  UNL     1      49.586  15.400  -8.983  1.00  0.00     0.162 HD
BRANCH  30  32
HETATM   32  C18 UNL     1      49.612  17.471  -8.448  1.00  0.00     0.097 C 
HETATM   33  C19 UNL     1      48.954  17.158  -7.154  1.00  0.00     0.026 C 
HETATM   34  C20 UNL     1      50.019  17.204  -6.108  1.00  0.00     0.003 C 
HETATM   35  C21 UNL     1      51.356  17.311  -6.765  1.00  0.00     0.016 C 
HETATM   36  C22 UNL     1      51.013  17.887  -8.114  1.00  0.00     0.100 C 
BRANCH  36  37
HETATM   37  C23 UNL     1      51.072  19.356  -8.170  1.00  0.00     0.223 C 
HETATM   38  O3  UNL     1      51.873  19.978  -7.446  1.00  0.00    -0.273 OA
HETATM   39  N6  UNL     1      50.225  20.078  -9.035  1.00  0.00    -0.365 N 
HETATM   40  C24 UNL     1      50.260  21.544  -9.105  1.00  0.00     0.149 C 
ATOM     41  H6  UNL     1      49.570  19.568  -9.628  1.00  0.00     0.161 HD
ENDBRANCH  36  37
ENDBRANCH  30  32
ENDBRANCH  27  28
ENDBRANCH  26  27
ENDBRANCH  25  26
ENDBRANCH  22  25
ENDBRANCH  14  15
ENDBRANCH  13  14
ENDBRANCH  12  13
ENDBRANCH  11  12
ENDBRANCH  10  11
ENDBRANCH   6  10
ENDBRANCH   4   6
ENDBRANCH   3   4
TORSDOF 14
ENDMDL
MODEL 3
REMARK VINA RESULT: -6.945220066      3.801      8.694
REMARK  14 active torsions:
REMARK  status: ('A' for Active; 'I' for Inactive)
REMARK    1  A    between atoms: C3_3  and  N1_4 
REMARK    2  A    between atoms: N1_4  and  C4_6 
REMARK    3  A    between atoms: C4_6  and  C5_10 
REMARK    4  A    between atoms: C5_10  and  C6_11 
REMARK    5  A    between atoms: C6_11  and  C7_12 
REMARK    6  A    between atoms: C7_12  and  C8_13 
REMARK    7  A    between atoms: C8_13  and  C9_14 
REMARK    8  A    between atoms: C9_14  and  N3_15 
REMARK       I    between atoms: N3_15  and  C10_17 
REMARK       I    between atoms: C10_17  and  N4_19 
REMARK    9  A    between atoms: C13_22  and  C14_23 
REMARK   10  A    between atoms: C14_23  and  C15_24 
REMARK   11  A    between atoms: C15_24  and  C16_25 
REMARK   12  A    between atoms: C16_25  and  C17_26 
REMARK       I    between atoms: C17_26  and  N5_28 
REMARK   13  A    between atoms: N5_28  and  C18_30 
REMARK   14  A    between atoms: C22_34  and  C23_35 
REMARK       I    between atoms: C23_35  and  N6_37 
ROOT
HETATM    1  C1  UNL     1      53.158  18.268   0.436  1.00  0.00     0.014 C 
HETATM    2  C2  UNL     1      53.748  18.411  -0.608  1.00  0.00    -0.098 C 
HETATM    3  C3  UNL     1      54.483  18.600  -1.867  1.00  0.00     0.214 C 
ENDROOT
BRANCH   3   4
HETATM    4  N1  UNL     1      53.722  19.346  -2.841  1.00  0.00    -0.370 N 
ATOM      5  H1  UNL     1      53.854  20.353  -2.926  1.00  0.00     0.161 HD
BRANCH   4   6
HETATM    6  C4  UNL     1      52.794  18.680  -3.678  1.00  0.00     0.071 C 
HETATM    7  N2  UNL     1      51.656  18.330  -3.180  1.00  0.00    -0.389 N 
ATOM      8  H22 UNL     1      51.393  18.515  -2.212  1.00  0.00     0.157 HD
ATOM      9  H21 UNL     1      50.988  17.851  -3.783  1.00  0.00     0.157 HD
BRANCH   6  10
HETATM   10  C5  UNL     1      53.172  18.413  -5.076  1.00  0.00     0.075 C 
BRANCH  10  11
HETATM   11  C6  UNL     1      52.063  18.970  -5.961  1.00  0.00     0.007 C 
BRANCH  11  12
HETATM   12  C7  UNL     1      51.625  17.950  -6.961  1.00  0.00     0.002 C 
BRANCH  12  13
HETATM   13  C8  UNL     1      50.673  16.935  -6.348  1.00  0.00     0.020 C 
BRANCH  13  14
HETATM   14  C9  UNL     1      51.259  15.570  -6.313  1.00  0.00     0.124 C 
BRANCH  14  15
HETATM   15  N3  UNL     1      51.963  15.338  -5.091  1.00  0.00    -0.343 N 
HETATM   16  C10 UNL     1      52.892  14.303  -4.919  1.00  0.00     0.318 C 
HETATM   17  O1  UNL     1      53.097  13.529  -5.927  1.00  0.00    -0.247 OA
HETATM   18  N4  UNL     1      53.582  14.092  -3.717  1.00  0.00    -0.334 N 
HETATM   19  C11 UNL     1      53.394  14.911  -2.566  1.00  0.00     0.128 C 
HETATM   20  C26 UNL     1      54.526  13.001  -3.606  1.00  0.00     0.128 C 
HETATM   21  C12 UNL     1      52.565  14.037  -1.602  1.00  0.00     0.024 C 
HETATM   22  C13 UNL     1      53.071  12.615  -1.626  1.00  0.00    -0.012 C 
HETATM   23  C25 UNL     1      54.449  12.481  -2.162  1.00  0.00     0.024 C 
ATOM     24  H3  UNL     1      51.779  15.958  -4.302  1.00  0.00     0.164 HD
BRANCH  22  25
HETATM   25  C14 UNL     1      52.898  12.020  -0.276  1.00  0.00     0.005 C 
BRANCH  25  26
HETATM   26  C15 UNL     1      52.470  10.598  -0.343  1.00  0.00     0.010 C 
BRANCH  26  27
HETATM   27  C16 UNL     1      51.049  10.468   0.197  1.00  0.00     0.103 C 
BRANCH  27  28
HETATM   28  C17 UNL     1      50.106  10.195  -0.904  1.00  0.00     0.217 C 
HETATM   29  O2  UNL     1      50.455   9.405  -1.815  1.00  0.00    -0.274 OA
HETATM   30  N5  UNL     1      48.836  10.791  -0.961  1.00  0.00    -0.356 N 
ATOM     31  H5  UNL     1      48.568  11.436  -0.217  1.00  0.00     0.162 HD
BRANCH  30  32
HETATM   32  C18 UNL     1      47.885  10.532  -2.032  1.00  0.00     0.097 C 
HETATM   33  C19 UNL     1      46.896   9.493  -1.649  1.00  0.00     0.026 C 
HETATM   34  C20 UNL     1      45.560  10.159  -1.627  1.00  0.00     0.003 C 
HETATM   35  C21 UNL     1      45.737  11.635  -1.763  1.00  0.00     0.016 C 
HETATM   36  C22 UNL     1      47.089  11.743  -2.419  1.00  0.00     0.100 C 
BRANCH  36  37
HETATM   37  C23 UNL     1      47.039  11.798  -3.889  1.00  0.00     0.223 C 
HETATM   38  O3  UNL     1      47.919  11.233  -4.565  1.00  0.00    -0.273 OA
HETATM   39  N6  UNL     1      46.002  12.488  -4.548  1.00  0.00    -0.365 N 
HETATM   40  C24 UNL     1      45.933  12.562  -6.013  1.00  0.00     0.149 C 
ATOM     41  H6  UNL     1      45.281  12.948  -3.993  1.00  0.00     0.161 HD
ENDBRANCH  36  37
ENDBRANCH  30  32
ENDBRANCH  27  28
ENDBRANCH  26  27
ENDBRANCH  25  26
ENDBRANCH  22  25
ENDBRANCH  14  15
ENDBRANCH  13  14
ENDBRANCH  12  13
ENDBRANCH  11  12
ENDBRANCH  10  11
ENDBRANCH   6  10
ENDBRANCH   4   6
ENDBRANCH   3   4
TORSDOF 14
ENDMDL
MODEL 4
REMARK VINA RESULT: -6.825233440      3.201      9.014
REMARK  14 active torsions:
REMARK  status: ('A' for Active; 'I' for Inactive)
REMARK    1  A    between atoms: C3_3  and  N1_4 
REMARK    2  A    between atoms: N1_4  and  C4_6 
REMARK    3  A    between atoms: C4_6  and  C5_10 
REMARK    4  A    between atoms: C5_10  and  C6_11 
REMARK    5  A    between atoms: C6_11  and  C7_12 
REMARK    6  A    between atoms: C7_12  and  C8_13 
REMARK    7  A    between atoms: C8_13  and  C9_14 
REMARK    8  A    between atoms: C9_14  and  N3_15 
REMARK       I    between atoms: N3_15  and  C10_17 
REMARK       I    between atoms: C10_17  and  N4_19 
REMARK    9  A    between atoms: C13_22  and  C14_23 
REMARK   10  A    between atoms: C14_23  and  C15_24 
REMARK   11  A    between atoms: C15_24  and  C16_25 
REMARK   12  A    between atoms: C16_25  and  C17_26 
REMARK       I    between atoms: C17_26  and  N5_28 
REMARK   13  A    between atoms: N5_28  and  C18_30 
REMARK   14  A    between atoms: C22_34  and  C23_35 
REMARK       I    between atoms: C23_35  and  N6_37 
ROOT
HETATM    1  C1  UNL     1      53.168  17.971   0.519  1.00  0.00     0.014 C 
HETATM    2  C2  UNL     1      53.219  18.849  -0.309  1.00  0.00    -0.098 C 
HETATM    3  C3  UNL     1      53.256  19.919  -1.315  1.00  0.00     0.214 C 
ENDROOT
BRANCH   3   4
HETATM    4  N1  UNL     1      53.680  19.442  -2.610  1.00  0.00    -0.370 N 
ATOM      5  H1  UNL     1      54.499  19.850  -3.059  1.00  0.00     0.161 HD
BRANCH   4   6
HETATM    6  C4  UNL     1      52.960  18.407  -3.257  1.00  0.00     0.071 C 
HETATM    7  N2  UNL     1      51.670  18.458  -3.251  1.00  0.00    -0.389 N 
ATOM      8  H22 UNL     1      51.146  19.210  -2.804  1.00  0.00     0.157 HD
ATOM      9  H21 UNL     1      51.152  17.713  -3.717  1.00  0.00     0.157 HD
BRANCH   6  10
HETATM   10  C5  UNL     1      53.716  17.321  -3.902  1.00  0.00     0.075 C 
BRANCH  10  11
HETATM   11  C6  UNL     1      54.293  16.449  -2.793  1.00  0.00     0.007 C 
BRANCH  11  12
HETATM   12  C7  UNL     1      53.431  15.250  -2.563  1.00  0.00     0.002 C 
BRANCH  12  13
HETATM   13  C8  UNL     1      53.523  14.262  -3.715  1.00  0.00     0.020 C 
BRANCH  13  14
HETATM   14  C9  UNL     1      54.532  13.202  -3.462  1.00  0.00     0.124 C 
BRANCH  14  15
HETATM   15  N3  UNL     1      54.649  12.320  -4.581  1.00  0.00    -0.343 N 
HETATM   16  C10 UNL     1      54.172  11.002  -4.579  1.00  0.00     0.318 C 
HETATM   17  O1  UNL     1      53.612  10.585  -3.498  1.00  0.00    -0.247 OA
HETATM   18  N4  UNL     1      54.285  10.150  -5.687  1.00  0.00    -0.334 N 
HETATM   19  C11 UNL     1      54.900  10.552  -6.908  1.00  0.00     0.128 C 
HETATM   20  C26 UNL     1      53.775   8.798  -5.616  1.00  0.00     0.128 C 
HETATM   21  C12 UNL     1      56.263   9.830  -6.910  1.00  0.00     0.024 C 
HETATM   22  C13 UNL     1      56.105   8.418  -6.401  1.00  0.00    -0.012 C 
HETATM   23  C25 UNL     1      54.708   7.917  -6.461  1.00  0.00     0.024 C 
ATOM     24  H3  UNL     1      55.104  12.668  -5.425  1.00  0.00     0.164 HD
BRANCH  22  25
HETATM   25  C14 UNL     1      57.081   7.543  -7.097  1.00  0.00     0.005 C 
BRANCH  25  26
HETATM   26  C15 UNL     1      57.866   6.713  -6.146  1.00  0.00     0.010 C 
BRANCH  26  27
HETATM   27  C16 UNL     1      59.296   7.238  -6.072  1.00  0.00     0.103 C 
BRANCH  27  28
HETATM   28  C17 UNL     1      59.515   7.952  -4.800  1.00  0.00     0.217 C 
HETATM   29  O2  UNL     1      60.198   7.396  -3.906  1.00  0.00    -0.274 OA
HETATM   30  N5  UNL     1      58.983   9.230  -4.563  1.00  0.00    -0.356 N 
ATOM     31  H5  UNL     1      58.425   9.668  -5.296  1.00  0.00     0.162 HD
BRANCH  30  32
HETATM   32  C18 UNL     1      59.191   9.958  -3.320  1.00  0.00     0.097 C 
HETATM   33  C19 UNL     1      59.167  11.427  -3.533  1.00  0.00     0.026 C 
HETATM   34  C20 UNL     1      57.990  11.951  -2.778  1.00  0.00     0.003 C 
HETATM   35  C21 UNL     1      57.159  10.808  -2.295  1.00  0.00     0.016 C 
HETATM   36  C22 UNL     1      58.145   9.669  -2.285  1.00  0.00     0.100 C 
BRANCH  36  37
HETATM   37  C23 UNL     1      58.828   9.479  -0.995  1.00  0.00     0.223 C 
HETATM   38  O3  UNL     1      59.907   8.859  -0.945  1.00  0.00    -0.273 OA
HETATM   39  N6  UNL     1      58.273   9.991   0.195  1.00  0.00    -0.365 N 
HETATM   40  C24 UNL     1      58.931   9.811   1.494  1.00  0.00     0.149 C 
ATOM     41  H6  UNL     1      57.390  10.501   0.152  1.00  0.00     0.161 HD
ENDBRANCH  36  37
ENDBRANCH  30  32
ENDBRANCH  27  28
ENDBRANCH  26  27
ENDBRANCH  25  26
ENDBRANCH  22  25
ENDBRANCH  14  15
ENDBRANCH  13  14
ENDBRANCH  12  13
ENDBRANCH  11  12
ENDBRANCH  10  11
ENDBRANCH   6  10
ENDBRANCH   4   6
ENDBRANCH   3   4
TORSDOF 14
ENDMDL
MODEL 5
REMARK VINA RESULT: -6.555684800      5.670      8.947
REMARK  14 active torsions:
REMARK  status: ('A' for Active; 'I' for Inactive)
REMARK    1  A    between atoms: C3_3  and  N1_4 
REMARK    2  A    between atoms: N1_4  and  C4_6 
REMARK    3  A    between atoms: C4_6  and  C5_10 
REMARK    4  A    between atoms: C5_10  and  C6_11 
REMARK    5  A    between atoms: C6_11  and  C7_12 
REMARK    6  A    between atoms: C7_12  and  C8_13 
REMARK    7  A    between atoms: C8_13  and  C9_14 
REMARK    8  A    between atoms: C9_14  and  N3_15 
REMARK       I    between atoms: N3_15  and  C10_17 
REMARK       I    between atoms: C10_17  and  N4_19 
REMARK    9  A    between atoms: C13_22  and  C14_23 
REMARK   10  A    between atoms: C14_23  and  C15_24 
REMARK   11  A    between atoms: C15_24  and  C16_25 
REMARK   12  A    between atoms: C16_25  and  C17_26 
REMARK       I    between atoms: C17_26  and  N5_28 
REMARK   13  A    between atoms: N5_28  and  C18_30 
REMARK   14  A    between atoms: C22_34  and  C23_35 
REMARK       I    between atoms: C23_35  and  N6_37 
ROOT
HETATM    1  C1  UNL     1      48.233  16.637  -6.866  1.00  0.00     0.014 C 
HETATM    2  C2  UNL     1      49.396  16.944  -6.754  1.00  0.00    -0.098 C 
HETATM    3  C3  UNL     1      50.816  17.299  -6.636  1.00  0.00     0.214 C 
ENDROOT
BRANCH   3   4
HETATM    4  N1  UNL     1      51.349  17.005  -5.327  1.00  0.00    -0.370 N 
ATOM      5  H1  UNL     1      51.005  16.197  -4.808  1.00  0.00     0.161 HD
BRANCH   4   6
HETATM    6  C4  UNL     1      52.348  17.836  -4.763  1.00  0.00     0.071 C 
HETATM    7  N2  UNL     1      52.505  19.024  -5.242  1.00  0.00    -0.389 N 
ATOM      8  H22 UNL     1      51.939  19.392  -6.007  1.00  0.00     0.157 HD
ATOM      9  H21 UNL     1      53.223  19.621  -4.836  1.00  0.00     0.157 HD
BRANCH   6  10
HETATM   10  C5  UNL     1      53.165  17.304  -3.659  1.00  0.00     0.075 C 
BRANCH  10  11
HETATM   11  C6  UNL     1      53.622  15.907  -4.064  1.00  0.00     0.007 C 
BRANCH  11  12
HETATM   12  C7  UNL     1      53.260  14.909  -3.013  1.00  0.00     0.002 C 
BRANCH  12  13
HETATM   13  C8  UNL     1      54.259  13.765  -2.958  1.00  0.00     0.020 C 
BRANCH  13  14
HETATM   14  C9  UNL     1      54.580  13.238  -4.309  1.00  0.00     0.124 C 
BRANCH  14  15
HETATM   15  N3  UNL     1      53.398  12.829  -5.002  1.00  0.00    -0.343 N 
HETATM   16  C10 UNL     1      53.415  12.029  -6.153  1.00  0.00     0.318 C 
HETATM   17  O1  UNL     1      54.568  11.666  -6.595  1.00  0.00    -0.247 OA
HETATM   18  N4  UNL     1      52.247  11.628  -6.817  1.00  0.00    -0.334 N 
HETATM   19  C11 UNL     1      50.944  12.003  -6.380  1.00  0.00     0.128 C 
HETATM   20  C26 UNL     1      52.336  10.805  -8.004  1.00  0.00     0.128 C 
HETATM   21  C12 UNL     1      50.491  13.075  -7.392  1.00  0.00     0.024 C 
HETATM   22  C13 UNL     1      50.893  12.673  -8.790  1.00  0.00    -0.012 C 
HETATM   23  C25 UNL     1      51.185  11.224  -8.932  1.00  0.00     0.024 C 
ATOM     24  H3  UNL     1      52.495  13.136  -4.639  1.00  0.00     0.164 HD
BRANCH  22  25
HETATM   25  C14 UNL     1      49.872  13.171  -9.746  1.00  0.00     0.005 C 
BRANCH  25  26
HETATM   26  C15 UNL     1      49.468  14.571  -9.455  1.00  0.00     0.010 C 
BRANCH  26  27
HETATM   27  C16 UNL     1      50.170  15.515 -10.426  1.00  0.00     0.103 C 
BRANCH  27  28
HETATM   28  C17 UNL     1      49.470  16.813 -10.474  1.00  0.00     0.217 C 
HETATM   29  O2  UNL     1      48.257  16.832 -10.797  1.00  0.00    -0.274 OA
HETATM   30  N5  UNL     1      50.120  18.020 -10.170  1.00  0.00    -0.356 N 
ATOM     31  H5  UNL     1      51.107  17.991  -9.916  1.00  0.00     0.162 HD
BRANCH  30  32
HETATM   32  C18 UNL     1      49.449  19.312 -10.203  1.00  0.00     0.097 C 
HETATM   33  C19 UNL     1      49.512  19.997  -8.888  1.00  0.00     0.026 C 
HETATM   34  C20 UNL     1      50.314  21.241  -9.089  1.00  0.00     0.003 C 
HETATM   35  C21 UNL     1      50.938  21.216 -10.446  1.00  0.00     0.016 C 
HETATM   36  C22 UNL     1      50.047  20.261 -11.198  1.00  0.00     0.100 C 
BRANCH  36  37
HETATM   37  C23 UNL     1      48.943  20.914 -11.918  1.00  0.00     0.223 C 
HETATM   38  O3  UNL     1      47.962  20.246 -12.296  1.00  0.00    -0.273 OA
HETATM   39  N6  UNL     1      48.979  22.297 -12.191  1.00  0.00    -0.365 N 
HETATM   40  C24 UNL     1      47.893  22.971 -12.913  1.00  0.00     0.149 C 
ATOM     41  H6  UNL     1      49.782  22.844 -11.880  1.00  0.00     0.161 HD
ENDBRANCH  36  37
ENDBRANCH  30  32
ENDBRANCH  27  28
ENDBRANCH  26  27
ENDBRANCH  25  26
ENDBRANCH  22  25
ENDBRANCH  14  15
ENDBRANCH  13  14
ENDBRANCH  12  13
ENDBRANCH  11  12
ENDBRANCH  10  11
ENDBRANCH   6  10
ENDBRANCH   4   6
ENDBRANCH   3   4
TORSDOF 14
ENDMDL
