MODEL 1
REMARK VINA RESULT: -7.715687737      0.000      0.000
REMARK  14 active torsions:
REMARK  status: ('A' for Active; 'I' for Inactive)
REMARK    1  A    between atoms: C2_2  and  C3_3 
REMARK    2  A    between atoms: C3_3  and  C4_4 
REMARK    3  A    between atoms: C4_4  and  C5_5 
REMARK    4  A    between atoms: C5_5  and  C6_6 
REMARK    5  A    between atoms: C6_6  and  C7_7 
REMARK    6  A    between atoms: C7_7  and  C8_8 
REMARK       I    between atoms: C8_8  and  N1_10 
REMARK    7  A    between atoms: N1_10  and  C9_11 
REMARK    8  A    between atoms: C9_11  and  C10_12 
REMARK    9  A    between atoms: C10_12  and  C11_13 
REMARK   10  A    between atoms: C11_13  and  C12_14 
REMARK   11  A    between atoms: C12_14  and  C13_15 
REMARK   12  A    between atoms: C13_15  and  C14_16 
REMARK   13  A    between atoms: C14_16  and  N6_35 
REMARK       I    between atoms: N2_17  and  C15_19 
REMARK       I    between atoms: C15_19  and  N5_31 
REMARK       I    between atoms: N3_20  and  C16_22 
REMARK       I    between atoms: C16_22  and  N4_24 
REMARK   14  A    between atoms: N5_31  and  C23_33 
REMARK       I    between atoms: N6_35  and  C25_37 
ROOT
HETATM    1  C14 UNL     1      51.805  17.896  -5.105  1.00  0.00     0.099 C 
HETATM    2  N2  UNL     1      51.423  16.723  -5.270  1.00  0.00    -0.180 N 
ATOM      3  H2  UNL     1      51.051  16.475  -4.353  1.00  0.00     0.185 HD
HETATM    4  C15 UNL     1      51.234  15.625  -5.969  1.00  0.00     0.683 C 
HETATM    5  N3  UNL     1      51.939  14.537  -5.692  1.00  0.00    -0.141 N 
ATOM      6  H3  UNL     1      51.798  13.681  -6.230  1.00  0.00     0.189 HD
HETATM    7  C16 UNL     1      52.873  14.571  -4.662  1.00  0.00     0.337 C 
HETATM    8  O2  UNL     1      53.735  15.528  -4.733  1.00  0.00    -0.246 OA
HETATM    9  N4  UNL     1      52.949  13.666  -3.582  1.00  0.00    -0.325 N 
HETATM   10  C17 UNL     1      53.938  13.659  -2.531  1.00  0.00     0.137 C 
HETATM   11  C18 UNL     1      53.702  12.343  -1.816  1.00  0.00     0.028 C 
HETATM   12  C19 UNL     1      52.474  12.522  -1.030  1.00  0.00    -0.022 C 
HETATM   13  C20 UNL     1      51.489  12.665  -1.917  1.00  0.00    -0.005 C 
HETATM   14  C21 UNL     1      52.056  12.578  -3.302  1.00  0.00     0.112 C 
HETATM   15  C22 UNL     1      53.135  11.516  -2.989  1.00  0.00     0.039 C 
HETATM   16  N5  UNL     1      50.321  15.387  -7.062  1.00  0.00    -0.226 N 
ATOM     17  H5  UNL     1      49.465  15.935  -7.150  1.00  0.00     0.177 HD
ENDROOT
BRANCH   1  18
HETATM   18  C13 UNL     1      52.412  18.686  -6.202  1.00  0.00     0.077 C 
BRANCH  18  19
HETATM   19  C12 UNL     1      51.593  18.728  -7.418  1.00  0.00     0.007 C 
BRANCH  19  20
HETATM   20  C11 UNL     1      50.973  19.973  -7.890  1.00  0.00     0.003 C 
BRANCH  20  21
HETATM   21  C10 UNL     1      50.996  20.176  -9.393  1.00  0.00     0.033 C 
BRANCH  21  22
HETATM   22  C9  UNL     1      50.465  21.621  -9.700  1.00  0.00     0.221 C 
BRANCH  22  23
HETATM   23  N1  UNL     1      50.887  22.074 -10.903  1.00  0.00    -0.415 NA
HETATM   24  C8  UNL     1      51.312  22.533 -12.101  1.00  0.00     0.289 C 
HETATM   25  O1  UNL     1      51.957  23.592 -12.302  1.00  0.00    -0.257 OA
BRANCH  24  26
HETATM   26  C7  UNL     1      51.023  21.770 -13.371  1.00  0.00     0.146 C 
BRANCH  26  27
HETATM   27  C6  UNL     1      49.804  20.981 -13.369  1.00  0.00    -0.016 C 
BRANCH  27  28
HETATM   28  C5  UNL     1      49.639  19.582 -13.069  1.00  0.00    -0.004 C 
BRANCH  28  29
HETATM   29  C4  UNL     1      48.825  18.922 -12.074  1.00  0.00    -0.004 C 
BRANCH  29  30
HETATM   30  C3  UNL     1      47.775  19.500 -11.251  1.00  0.00    -0.027 C 
BRANCH  30  31
HETATM   31  C2  UNL     1      47.455  19.110  -9.877  1.00  0.00     0.022 C 
HETATM   32  C1  UNL     1      48.086  17.822  -9.391  1.00  0.00     0.009 C 
ENDBRANCH  30  31
ENDBRANCH  29  30
ENDBRANCH  28  29
ENDBRANCH  27  28
ENDBRANCH  26  27
ENDBRANCH  24  26
ENDBRANCH  22  23
ENDBRANCH  21  22
ENDBRANCH  20  21
ENDBRANCH  19  20
ENDBRANCH  18  19
ENDBRANCH   1  18
BRANCH   1  33
HETATM   33  N6  UNL     1      51.666  18.429  -3.786  1.00  0.00    -0.320 N 
HETATM   34  C25 UNL     1      52.703  18.561  -2.847  1.00  0.00     0.187 C 
HETATM   35  N7  UNL     1      53.759  19.238  -2.946  1.00  0.00    -0.373 N 
HETATM   36  N8  UNL     1      52.537  17.841  -1.603  1.00  0.00    -0.064 NA
ATOM     37  H72 UNL     1      53.876  19.747  -3.822  1.00  0.00     0.158 HD
ATOM     38  H71 UNL     1      54.512  19.334  -2.265  1.00  0.00     0.158 HD
ATOM     39  H6  UNL     1      50.737  18.738  -3.502  1.00  0.00     0.169 HD
ENDBRANCH   1  33
BRANCH  16  40
HETATM   40  C23 UNL     1      50.639  14.361  -8.030  1.00  0.00     0.133 C 
HETATM   41  C24 UNL     1      50.471  14.877  -9.438  1.00  0.00     0.027 C 
ENDBRANCH  16  40
TORSDOF 14
ENDMDL
MODEL 2
REMARK VINA RESULT: -7.588662118      1.526      2.850
REMARK  14 active torsions:
REMARK  status: ('A' for Active; 'I' for Inactive)
REMARK    1  A    between atoms: C2_2  and  C3_3 
REMARK    2  A    between atoms: C3_3  and  C4_4 
REMARK    3  A    between atoms: C4_4  and  C5_5 
REMARK    4  A    between atoms: C5_5  and  C6_6 
REMARK    5  A    between atoms: C6_6  and  C7_7 
REMARK    6  A    between atoms: C7_7  and  C8_8 
REMARK       I    between atoms: C8_8  and  N1_10 
REMARK    7  A    between atoms: N1_10  and  C9_11 
REMARK    8  A    between atoms: C9_11  and  C10_12 
REMARK    9  A    between atoms: C10_12  and  C11_13 
REMARK   10  A    between atoms: C11_13  and  C12_14 
REMARK   11  A    between atoms: C12_14  and  C13_15 
REMARK   12  A    between atoms: C13_15  and  C14_16 
REMARK   13  A    between atoms: C14_16  and  N6_35 
REMARK       I    between atoms: N2_17  and  C15_19 
REMARK       I    between atoms: C15_19  and  N5_31 
REMARK       I    between atoms: N3_20  and  C16_22 
REMARK       I    between atoms: C16_22  and  N4_24 
REMARK   14  A    between atoms: N5_31  and  C23_33 
REMARK       I    between atoms: N6_35  and  C25_37 
ROOT
HETATM    1  C14 UNL     1      51.802  17.745  -5.282  1.00  0.00     0.099 C 
HETATM    2  N2  UNL     1      51.426  16.563  -5.388  1.00  0.00    -0.180 N 
ATOM      3  H2  UNL     1      51.044  16.363  -4.463  1.00  0.00     0.185 HD
HETATM    4  C15 UNL     1      51.247  15.429  -6.029  1.00  0.00     0.683 C 
HETATM    5  N3  UNL     1      51.952  14.359  -5.685  1.00  0.00    -0.141 N 
ATOM      6  H3  UNL     1      51.819  13.475  -6.178  1.00  0.00     0.189 HD
HETATM    7  C16 UNL     1      52.874  14.451  -4.648  1.00  0.00     0.337 C 
HETATM    8  O2  UNL     1      53.735  15.405  -4.760  1.00  0.00    -0.246 OA
HETATM    9  N4  UNL     1      52.940  13.606  -3.520  1.00  0.00    -0.325 N 
HETATM   10  C17 UNL     1      53.917  13.659  -2.459  1.00  0.00     0.137 C 
HETATM   11  C18 UNL     1      53.676  12.382  -1.677  1.00  0.00     0.028 C 
HETATM   12  C19 UNL     1      52.439  12.600  -0.916  1.00  0.00    -0.022 C 
HETATM   13  C20 UNL     1      51.464  12.691  -1.821  1.00  0.00    -0.005 C 
HETATM   14  C21 UNL     1      52.046  12.532  -3.192  1.00  0.00     0.112 C 
HETATM   15  C22 UNL     1      53.124  11.491  -2.811  1.00  0.00     0.039 C 
HETATM   16  N5  UNL     1      50.348  15.129  -7.117  1.00  0.00    -0.226 N 
ATOM     17  H5  UNL     1      49.491  15.668  -7.244  1.00  0.00     0.177 HD
ENDROOT
BRANCH   1  18
HETATM   18  C13 UNL     1      52.420  18.475  -6.412  1.00  0.00     0.077 C 
BRANCH  18  19
HETATM   19  C12 UNL     1      51.607  19.593  -6.904  1.00  0.00     0.007 C 
BRANCH  19  20
HETATM   20  C11 UNL     1      50.359  19.373  -7.648  1.00  0.00     0.003 C 
BRANCH  20  21
HETATM   21  C10 UNL     1      50.395  18.233  -8.647  1.00  0.00     0.033 C 
BRANCH  21  22
HETATM   22  C9  UNL     1      48.917  17.863  -9.023  1.00  0.00     0.221 C 
BRANCH  22  23
HETATM   23  N1  UNL     1      48.463  18.583 -10.075  1.00  0.00    -0.415 NA
HETATM   24  C8  UNL     1      48.003  19.301 -11.123  1.00  0.00     0.289 C 
HETATM   25  O1  UNL     1      46.808  19.630 -11.327  1.00  0.00    -0.257 OA
BRANCH  24  26
HETATM   26  C7  UNL     1      48.939  19.787 -12.202  1.00  0.00     0.146 C 
BRANCH  26  27
HETATM   27  C6  UNL     1      50.290  20.102 -11.771  1.00  0.00    -0.016 C 
BRANCH  27  28
HETATM   28  C5  UNL     1      50.741  21.206 -10.963  1.00  0.00    -0.004 C 
BRANCH  28  29
HETATM   29  C4  UNL     1      50.558  22.629 -11.127  1.00  0.00    -0.004 C 
BRANCH  29  30
HETATM   30  C3  UNL     1      51.100  23.487 -12.167  1.00  0.00    -0.027 C 
BRANCH  30  31
HETATM   31  C2  UNL     1      52.140  23.114 -13.127  1.00  0.00     0.022 C 
HETATM   32  C1  UNL     1      51.652  22.522 -14.433  1.00  0.00     0.009 C 
ENDBRANCH  30  31
ENDBRANCH  29  30
ENDBRANCH  28  29
ENDBRANCH  27  28
ENDBRANCH  26  27
ENDBRANCH  24  26
ENDBRANCH  22  23
ENDBRANCH  21  22
ENDBRANCH  20  21
ENDBRANCH  19  20
ENDBRANCH  18  19
ENDBRANCH   1  18
BRANCH   1  33
HETATM   33  N6  UNL     1      51.647  18.347  -3.995  1.00  0.00    -0.320 N 
HETATM   34  C25 UNL     1      52.663  18.492  -3.035  1.00  0.00     0.187 C 
HETATM   35  N7  UNL     1      53.744  19.127  -3.137  1.00  0.00    -0.373 N 
HETATM   36  N8  UNL     1      52.440  17.840  -1.762  1.00  0.00    -0.064 NA
ATOM     37  H72 UNL     1      53.902  19.587  -4.034  1.00  0.00     0.158 HD
ATOM     38  H71 UNL     1      54.482  19.232  -2.441  1.00  0.00     0.158 HD
ATOM     39  H6  UNL     1      50.722  18.701  -3.752  1.00  0.00     0.169 HD
ENDBRANCH   1  33
BRANCH  16  40
HETATM   40  C23 UNL     1      50.679  14.053  -8.026  1.00  0.00     0.133 C 
HETATM   41  C24 UNL     1      50.462  14.471  -9.459  1.00  0.00     0.027 C 
ENDBRANCH  16  40
TORSDOF 14
ENDMDL
MODEL 3
REMARK VINA RESULT: -7.461859441      1.329      2.066
REMARK  14 active torsions:
REMARK  status: ('A' for Active; 'I' for Inactive)
REMARK    1  A    between atoms: C2_2  and  C3_3 
REMARK    2  A    between atoms: C3_3  and  C4_4 
REMARK    3  A    between atoms: C4_4  and  C5_5 
REMARK    4  A    between atoms: C5_5  and  C6_6 
REMARK    5  A    between atoms: C6_6  and  C7_7 
REMARK    6  A    between atoms: C7_7  and  C8_8 
REMARK       I    between atoms: C8_8  and  N1_10 
REMARK    7  A    between atoms: N1_10  and  C9_11 
REMARK    8  A    between atoms: C9_11  and  C10_12 
REMARK    9  A    between atoms: C10_12  and  C11_13 
REMARK   10  A    between atoms: C11_13  and  C12_14 
REMARK   11  A    between atoms: C12_14  and  C13_15 
REMARK   12  A    between atoms: C13_15  and  C14_16 
REMARK   13  A    between atoms: C14_16  and  N6_35 
REMARK       I    between atoms: N2_17  and  C15_19 
REMARK       I    between atoms: C15_19  and  N5_31 
REMARK       I    between atoms: N3_20  and  C16_22 
REMARK       I    between atoms: C16_22  and  N4_24 
REMARK   14  A    between atoms: N5_31  and  C23_33 
REMARK       I    between atoms: N6_35  and  C25_37 
ROOT
HETATM    1  C14 UNL     1      51.816  17.867  -5.120  1.00  0.00     0.099 C 
HETATM    2  N2  UNL     1      51.423  16.697  -5.281  1.00  0.00    -0.180 N 
ATOM      3  H2  UNL     1      51.041  16.458  -4.365  1.00  0.00     0.185 HD
HETATM    4  C15 UNL     1      51.225  15.598  -5.975  1.00  0.00     0.683 C 
HETATM    5  N3  UNL     1      51.916  14.503  -5.686  1.00  0.00    -0.141 N 
ATOM      6  H3  UNL     1      51.769  13.646  -6.220  1.00  0.00     0.189 HD
HETATM    7  C16 UNL     1      52.843  14.532  -4.650  1.00  0.00     0.337 C 
HETATM    8  O2  UNL     1      53.717  15.478  -4.720  1.00  0.00    -0.246 OA
HETATM    9  N4  UNL     1      52.902  13.633  -3.564  1.00  0.00    -0.325 N 
HETATM   10  C17 UNL     1      53.883  13.621  -2.506  1.00  0.00     0.137 C 
HETATM   11  C18 UNL     1      53.627  12.311  -1.786  1.00  0.00     0.028 C 
HETATM   12  C19 UNL     1      52.396  12.509  -1.009  1.00  0.00    -0.022 C 
HETATM   13  C20 UNL     1      51.419  12.658  -1.904  1.00  0.00    -0.005 C 
HETATM   14  C21 UNL     1      51.994  12.557  -3.284  1.00  0.00     0.112 C 
HETATM   15  C22 UNL     1      53.058  11.484  -2.958  1.00  0.00     0.039 C 
HETATM   16  N5  UNL     1      50.317  15.364  -7.072  1.00  0.00    -0.226 N 
ATOM     17  H5  UNL     1      49.468  15.920  -7.169  1.00  0.00     0.177 HD
ENDROOT
BRANCH   1  18
HETATM   18  C13 UNL     1      52.440  18.643  -6.216  1.00  0.00     0.077 C 
BRANCH  18  19
HETATM   19  C12 UNL     1      51.534  19.616  -6.836  1.00  0.00     0.007 C 
BRANCH  19  20
HETATM   20  C11 UNL     1      51.277  19.622  -8.283  1.00  0.00     0.003 C 
BRANCH  20  21
HETATM   21  C10 UNL     1      50.475  20.803  -8.791  1.00  0.00     0.033 C 
BRANCH  21  22
HETATM   22  C9  UNL     1      50.922  21.101 -10.266  1.00  0.00     0.221 C 
BRANCH  22  23
HETATM   23  N1  UNL     1      50.338  20.264 -11.155  1.00  0.00    -0.415 NA
HETATM   24  C8  UNL     1      49.756  19.434 -12.048  1.00  0.00     0.289 C 
HETATM   25  O1  UNL     1      49.597  19.659 -13.273  1.00  0.00    -0.257 OA
BRANCH  24  26
HETATM   26  C7  UNL     1      49.210  18.094 -11.620  1.00  0.00     0.146 C 
BRANCH  26  27
HETATM   27  C6  UNL     1      48.584  18.057 -10.310  1.00  0.00    -0.016 C 
BRANCH  27  28
HETATM   28  C5  UNL     1      47.422  18.771  -9.848  1.00  0.00    -0.004 C 
BRANCH  28  29
HETATM   29  C4  UNL     1      46.073  18.316  -9.602  1.00  0.00    -0.004 C 
BRANCH  29  30
HETATM   30  C3  UNL     1      45.636  16.992  -9.192  1.00  0.00    -0.027 C 
BRANCH  30  31
HETATM   31  C2  UNL     1      45.529  16.516  -7.812  1.00  0.00     0.022 C 
HETATM   32  C1  UNL     1      46.837  16.363  -7.062  1.00  0.00     0.009 C 
ENDBRANCH  30  31
ENDBRANCH  29  30
ENDBRANCH  28  29
ENDBRANCH  27  28
ENDBRANCH  26  27
ENDBRANCH  24  26
ENDBRANCH  22  23
ENDBRANCH  21  22
ENDBRANCH  20  21
ENDBRANCH  19  20
ENDBRANCH  18  19
ENDBRANCH   1  18
BRANCH   1  33
HETATM   33  N6  UNL     1      51.674  18.409  -3.804  1.00  0.00    -0.320 N 
HETATM   34  C25 UNL     1      52.710  18.549  -2.865  1.00  0.00     0.187 C 
HETATM   35  N7  UNL     1      53.765  19.227  -2.967  1.00  0.00    -0.373 N 
HETATM   36  N8  UNL     1      52.543  17.837  -1.616  1.00  0.00    -0.064 NA
ATOM     37  H72 UNL     1      53.882  19.729  -3.847  1.00  0.00     0.158 HD
ATOM     38  H71 UNL     1      54.517  19.329  -2.285  1.00  0.00     0.158 HD
ATOM     39  H6  UNL     1      50.744  18.718  -3.524  1.00  0.00     0.169 HD
ENDBRANCH   1  33
BRANCH  16  40
HETATM   40  C23 UNL     1      50.630  14.328  -8.033  1.00  0.00     0.133 C 
HETATM   41  C24 UNL     1      50.060  14.661  -9.390  1.00  0.00     0.027 C 
ENDBRANCH  16  40
TORSDOF 14
ENDMDL
MODEL 4
REMARK VINA RESULT: -7.265887381      2.413      5.782
REMARK  14 active torsions:
REMARK  status: ('A' for Active; 'I' for Inactive)
REMARK    1  A    between atoms: C2_2  and  C3_3 
REMARK    2  A    between atoms: C3_3  and  C4_4 
REMARK    3  A    between atoms: C4_4  and  C5_5 
REMARK    4  A    between atoms: C5_5  and  C6_6 
REMARK    5  A    between atoms: C6_6  and  C7_7 
REMARK    6  A    between atoms: C7_7  and  C8_8 
REMARK       I    between atoms: C8_8  and  N1_10 
REMARK    7  A    between atoms: N1_10  and  C9_11 
REMARK    8  A    between atoms: C9_11  and  C10_12 
REMARK    9  A    between atoms: C10_12  and  C11_13 
REMARK   10  A    between atoms: C11_13  and  C12_14 
REMARK   11  A    between atoms: C12_14  and  C13_15 
REMARK   12  A    between atoms: C13_15  and  C14_16 
REMARK   13  A    between atoms: C14_16  and  N6_35 
REMARK       I    between atoms: N2_17  and  C15_19 
REMARK       I    between atoms: C15_19  and  N5_31 
REMARK       I    between atoms: N3_20  and  C16_22 
REMARK       I    between atoms: C16_22  and  N4_24 
REMARK   14  A    between atoms: N5_31  and  C23_33 
REMARK       I    between atoms: N6_35  and  C25_37 
ROOT
HETATM    1  C14 UNL     1      52.226  14.813  -5.244  1.00  0.00     0.099 C 
HETATM    2  N2  UNL     1      52.242  14.979  -4.011  1.00  0.00    -0.180 N 
ATOM      3  H2  UNL     1      51.774  15.879  -3.897  1.00  0.00     0.185 HD
HETATM    4  C15 UNL     1      52.527  14.640  -2.772  1.00  0.00     0.683 C 
HETATM    5  N3  UNL     1      53.442  15.322  -2.096  1.00  0.00    -0.141 N 
ATOM      6  H3  UNL     1      53.669  15.065  -1.135  1.00  0.00     0.189 HD
HETATM    7  C16 UNL     1      54.089  16.390  -2.708  1.00  0.00     0.337 C 
HETATM    8  O2  UNL     1      54.635  16.124  -3.846  1.00  0.00    -0.246 OA
HETATM    9  N4  UNL     1      54.196  17.700  -2.193  1.00  0.00    -0.325 N 
HETATM   10  C17 UNL     1      54.903  18.807  -2.791  1.00  0.00     0.137 C 
HETATM   11  C18 UNL     1      54.912  19.865  -1.704  1.00  0.00     0.028 C 
HETATM   12  C19 UNL     1      53.548  20.409  -1.657  1.00  0.00    -0.022 C 
HETATM   13  C20 UNL     1      52.772  19.415  -1.225  1.00  0.00    -0.005 C 
HETATM   14  C21 UNL     1      53.616  18.201  -0.980  1.00  0.00     0.112 C 
HETATM   15  C22 UNL     1      54.864  18.951  -0.462  1.00  0.00     0.039 C 
HETATM   16  N5  UNL     1      51.971  13.579  -1.968  1.00  0.00    -0.226 N 
ATOM     17  H5  UNL     1      51.032  13.228  -2.152  1.00  0.00     0.177 HD
ENDROOT
BRANCH   1  18
HETATM   18  C13 UNL     1      52.796  13.602  -5.880  1.00  0.00     0.077 C 
BRANCH  18  19
HETATM   19  C12 UNL     1      51.790  12.746  -6.520  1.00  0.00     0.007 C 
BRANCH  19  20
HETATM   20  C11 UNL     1      52.038  12.098  -7.814  1.00  0.00     0.003 C 
BRANCH  20  21
HETATM   21  C10 UNL     1      51.568  12.876  -9.027  1.00  0.00     0.033 C 
BRANCH  21  22
HETATM   22  C9  UNL     1      50.267  13.661  -8.632  1.00  0.00     0.221 C 
BRANCH  22  23
HETATM   23  N1  UNL     1      50.336  14.968  -8.974  1.00  0.00    -0.415 NA
HETATM   24  C8  UNL     1      50.412  16.275  -9.310  1.00  0.00     0.289 C 
HETATM   25  O1  UNL     1      51.281  17.092  -8.915  1.00  0.00    -0.257 OA
BRANCH  24  26
HETATM   26  C7  UNL     1      49.396  16.898 -10.235  1.00  0.00     0.146 C 
BRANCH  26  27
HETATM   27  C6  UNL     1      49.617  18.295 -10.567  1.00  0.00    -0.016 C 
BRANCH  27  28
HETATM   28  C5  UNL     1      49.474  18.950 -11.841  1.00  0.00    -0.004 C 
BRANCH  28  29
HETATM   29  C4  UNL     1      49.940  20.240 -12.295  1.00  0.00    -0.004 C 
BRANCH  29  30
HETATM   30  C3  UNL     1      50.746  21.206 -11.567  1.00  0.00    -0.027 C 
BRANCH  30  31
HETATM   31  C2  UNL     1      51.556  22.267 -12.167  1.00  0.00     0.022 C 
HETATM   32  C1  UNL     1      51.379  22.472 -13.657  1.00  0.00     0.009 C 
ENDBRANCH  30  31
ENDBRANCH  29  30
ENDBRANCH  28  29
ENDBRANCH  27  28
ENDBRANCH  26  27
ENDBRANCH  24  26
ENDBRANCH  22  23
ENDBRANCH  21  22
ENDBRANCH  20  21
ENDBRANCH  19  20
ENDBRANCH  18  19
ENDBRANCH   1  18
BRANCH   1  33
HETATM   33  N6  UNL     1      51.668  15.875  -6.021  1.00  0.00    -0.320 N 
HETATM   34  C25 UNL     1      50.992  16.994  -5.504  1.00  0.00     0.187 C 
HETATM   35  N7  UNL     1      51.432  17.875  -4.722  1.00  0.00    -0.373 N 
HETATM   36  N8  UNL     1      49.620  17.166  -5.931  1.00  0.00    -0.064 NA
ATOM     37  H72 UNL     1      52.399  17.754  -4.421  1.00  0.00     0.158 HD
ATOM     38  H71 UNL     1      50.941  18.686  -4.346  1.00  0.00     0.158 HD
ATOM     39  H6  UNL     1      51.768  15.817  -7.034  1.00  0.00     0.169 HD
ENDBRANCH   1  33
BRANCH  16  40
HETATM   40  C23 UNL     1      52.766  13.022  -0.895  1.00  0.00     0.133 C 
HETATM   41  C24 UNL     1      52.358  11.599  -0.603  1.00  0.00     0.027 C 
ENDBRANCH  16  40
TORSDOF 14
ENDMDL
MODEL 5
REMARK VINA RESULT: -7.217225257      4.883     10.118
REMARK  14 active torsions:
REMARK  status: ('A' for Active; 'I' for Inactive)
REMARK    1  A    between atoms: C2_2  and  C3_3 
REMARK    2  A    between atoms: C3_3  and  C4_4 
REMARK    3  A    between atoms: C4_4  and  C5_5 
REMARK    4  A    between atoms: C5_5  and  C6_6 
REMARK    5  A    between atoms: C6_6  and  C7_7 
REMARK    6  A    between atoms: C7_7  and  C8_8 
REMARK       I    between atoms: C8_8  and  N1_10 
REMARK    7  A    between atoms: N1_10  and  C9_11 
REMARK    8  A    between atoms: C9_11  and  C10_12 
REMARK    9  A    between atoms: C10_12  and  C11_13 
REMARK   10  A    between atoms: C11_13  and  C12_14 
REMARK   11  A    between atoms: C12_14  and  C13_15 
REMARK   12  A    between atoms: C13_15  and  C14_16 
REMARK   13  A    between atoms: C14_16  and  N6_35 
REMARK       I    between atoms: N2_17  and  C15_19 
REMARK       I    between atoms: C15_19  and  N5_31 
REMARK       I    between atoms: N3_20  and  C16_22 
REMARK       I    between atoms: C16_22  and  N4_24 
REMARK   14  A    between atoms: N5_31  and  C23_33 
REMARK       I    between atoms: N6_35  and  C25_37 
ROOT
HETATM    1  C14 UNL     1      52.359  14.529  -5.206  1.00  0.00     0.099 C 
HETATM    2  N2  UNL     1      52.298  14.725  -3.978  1.00  0.00    -0.180 N 
ATOM      3  H2  UNL     1      51.802  15.614  -3.915  1.00  0.00     0.185 HD
HETATM    4  C15 UNL     1      52.516  14.422  -2.717  1.00  0.00     0.683 C 
HETATM    5  N3  UNL     1      53.372  15.142  -2.004  1.00  0.00    -0.141 N 
ATOM      6  H3  UNL     1      53.547  14.913  -1.025  1.00  0.00     0.189 HD
HETATM    7  C16 UNL     1      54.029  16.212  -2.603  1.00  0.00     0.337 C 
HETATM    8  O2  UNL     1      54.648  15.933  -3.700  1.00  0.00    -0.246 OA
HETATM    9  N4  UNL     1      54.074  17.535  -2.115  1.00  0.00    -0.325 N 
HETATM   10  C17 UNL     1      54.788  18.645  -2.697  1.00  0.00     0.137 C 
HETATM   11  C18 UNL     1      54.707  19.728  -1.638  1.00  0.00     0.028 C 
HETATM   12  C19 UNL     1      53.331  20.239  -1.685  1.00  0.00    -0.022 C 
HETATM   13  C20 UNL     1      52.554  19.235  -1.275  1.00  0.00    -0.005 C 
HETATM   14  C21 UNL     1      53.410  18.049  -0.951  1.00  0.00     0.112 C 
HETATM   15  C22 UNL     1      54.608  18.842  -0.378  1.00  0.00     0.039 C 
HETATM   16  N5  UNL     1      51.938  13.366  -1.920  1.00  0.00    -0.226 N 
ATOM     17  H5  UNL     1      51.020  12.987  -2.152  1.00  0.00     0.177 HD
ENDROOT
BRANCH   1  18
HETATM   18  C13 UNL     1      52.994  13.319  -5.777  1.00  0.00     0.077 C 
BRANCH  18  19
HETATM   19  C12 UNL     1      54.187  12.880  -5.044  1.00  0.00     0.007 C 
BRANCH  19  20
HETATM   20  C11 UNL     1      54.714  11.515  -5.170  1.00  0.00     0.003 C 
BRANCH  20  21
HETATM   21  C10 UNL     1      54.870  11.011  -6.592  1.00  0.00     0.033 C 
BRANCH  21  22
HETATM   22  C9  UNL     1      55.351   9.518  -6.533  1.00  0.00     0.221 C 
BRANCH  22  23
HETATM   23  N1  UNL     1      56.552   9.394  -5.923  1.00  0.00    -0.415 NA
HETATM   24  C8  UNL     1      57.750   9.263  -5.310  1.00  0.00     0.289 C 
HETATM   25  O1  UNL     1      58.075   8.353  -4.508  1.00  0.00    -0.257 OA
BRANCH  24  26
HETATM   26  C7  UNL     1      58.855  10.263  -5.546  1.00  0.00     0.146 C 
BRANCH  26  27
HETATM   27  C6  UNL     1      59.120  11.181  -4.452  1.00  0.00    -0.016 C 
BRANCH  27  28
HETATM   28  C5  UNL     1      58.225  12.123  -3.832  1.00  0.00    -0.004 C 
BRANCH  28  29
HETATM   29  C4  UNL     1      57.414  12.010  -2.642  1.00  0.00    -0.004 C 
BRANCH  29  30
HETATM   30  C3  UNL     1      56.916  10.799  -2.011  1.00  0.00    -0.027 C 
BRANCH  30  31
HETATM   31  C2  UNL     1      57.538  10.104  -0.883  1.00  0.00     0.022 C 
HETATM   32  C1  UNL     1      58.874   9.448  -1.166  1.00  0.00     0.009 C 
ENDBRANCH  30  31
ENDBRANCH  29  30
ENDBRANCH  28  29
ENDBRANCH  27  28
ENDBRANCH  26  27
ENDBRANCH  24  26
ENDBRANCH  22  23
ENDBRANCH  21  22
ENDBRANCH  20  21
ENDBRANCH  19  20
ENDBRANCH  18  19
ENDBRANCH   1  18
BRANCH   1  33
HETATM   33  N6  UNL     1      51.823  15.559  -6.040  1.00  0.00    -0.320 N 
HETATM   34  C25 UNL     1      51.107  16.682  -5.590  1.00  0.00     0.187 C 
HETATM   35  N7  UNL     1      51.497  17.593  -4.815  1.00  0.00    -0.373 N 
HETATM   36  N8  UNL     1      49.755  16.819  -6.086  1.00  0.00    -0.064 NA
ATOM     37  H72 UNL     1      52.450  17.496  -4.466  1.00  0.00     0.158 HD
ATOM     38  H71 UNL     1      50.977  18.407  -4.489  1.00  0.00     0.158 HD
ATOM     39  H6  UNL     1      51.973  15.472  -7.045  1.00  0.00     0.169 HD
ENDBRANCH   1  33
BRANCH  16  40
HETATM   40  C23 UNL     1      52.680  12.854  -0.789  1.00  0.00     0.133 C 
HETATM   41  C24 UNL     1      53.380  11.565  -1.142  1.00  0.00     0.027 C 
ENDBRANCH  16  40
TORSDOF 14
ENDMDL
