MODEL 1
REMARK VINA RESULT: -7.246082075      0.000      0.000
REMARK  15 active torsions:
REMARK  status: ('A' for Active; 'I' for Inactive)
REMARK    1  A    between atoms: N3_7  and  C5_8 
REMARK    2  A    between atoms: N3_7  and  C17_27 
REMARK    3  A    between atoms: C5_8  and  C6_9 
REMARK    4  A    between atoms: C6_9  and  C7_10 
REMARK    5  A    between atoms: C8_11  and  C9_12 
REMARK    6  A    between atoms: C9_12  and  C10_13 
REMARK    7  A    between atoms: C10_13  and  C11_14 
REMARK    8  A    between atoms: C11_14  and  C12_15 
REMARK    9  A    between atoms: C12_15  and  C13_16 
REMARK   10  A    between atoms: C13_16  and  C14_17 
REMARK       I    between atoms: C14_17  and  N4_19 
REMARK   11  A    between atoms: N4_19  and  C15_21 
REMARK   12  A    between atoms: C15_21  and  C16_22 
REMARK   13  A    between atoms: C16_22  and  N5_23 
REMARK   14  A    between atoms: C17_27  and  C18_28 
REMARK   15  A    between atoms: C20_32  and  N7_33 
ROOT
HETATM    1  C1  UNL     1      47.442  16.698 -12.766  1.00  0.00     0.146 C 
HETATM    2  N1  UNL     1      47.476  17.997 -12.196  1.00  0.00    -0.121 NA
HETATM    3  C2  UNL     1      48.810  18.373 -11.951  1.00  0.00     0.358 C 
HETATM    4  N2  UNL     1      49.023  19.665 -11.356  1.00  0.00    -0.047 N 
HETATM    5  C3  UNL     1      48.298  19.640 -10.099  1.00  0.00     0.269 C 
HETATM    6  C4  UNL     1      46.840  19.451 -10.466  1.00  0.00     0.287 C 
HETATM    7  N3  UNL     1      46.555  18.262 -11.196  1.00  0.00     0.008 N 
HETATM    8  C21 UNL     1      48.858  20.813 -12.185  1.00  0.00     0.246 C 
HETATM    9  C22 UNL     1      50.354  20.931 -12.392  1.00  0.00     0.043 C 
HETATM   10  C23 UNL     1      50.856  22.264 -11.928  1.00  0.00     0.008 C 
HETATM   11  C24 UNL     1      50.527  22.283 -10.453  1.00  0.00     0.002 C 
HETATM   12  C25 UNL     1      50.801  20.852 -10.068  1.00  0.00     0.034 C 
HETATM   13  C26 UNL     1      50.427  19.988 -11.235  1.00  0.00     0.197 C 
ENDROOT
BRANCH   7  14
HETATM   14  C5  UNL     1      46.426  17.082 -10.329  1.00  0.00     0.287 C 
BRANCH  14  15
HETATM   15  C6  UNL     1      45.505  17.204  -9.208  1.00  0.00     0.003 C 
BRANCH  15  16
HETATM   16  C7  UNL     1      45.600  16.383  -7.994  1.00  0.00    -0.003 C 
HETATM   17  C8  UNL     1      46.683  16.452  -7.041  1.00  0.00    -0.004 C 
BRANCH  17  18
HETATM   18  C9  UNL     1      48.065  16.089  -7.329  1.00  0.00    -0.027 C 
BRANCH  18  19
HETATM   19  C10 UNL     1      49.225  16.720  -6.694  1.00  0.00     0.027 C 
BRANCH  19  20
HETATM   20  C11 UNL     1      50.513  16.708  -7.380  1.00  0.00     0.004 C 
BRANCH  20  21
HETATM   21  C12 UNL     1      51.012  18.094  -7.771  1.00  0.00     0.010 C 
BRANCH  21  22
HETATM   22  C13 UNL     1      51.061  19.047  -6.617  1.00  0.00     0.103 C 
BRANCH  22  23
HETATM   23  C14 UNL     1      52.153  18.651  -5.692  1.00  0.00     0.217 C 
HETATM   24  O1  UNL     1      53.351  18.691  -6.077  1.00  0.00    -0.274 OA
HETATM   25  N4  UNL     1      51.878  18.225  -4.377  1.00  0.00    -0.359 N 
ATOM     26  H4  UNL     1      50.914  18.191  -4.047  1.00  0.00     0.162 HD
BRANCH  25  27
HETATM   27  C15 UNL     1      52.941  17.839  -3.502  1.00  0.00     0.150 C 
BRANCH  27  28
HETATM   28  C16 UNL     1      52.607  18.129  -2.041  1.00  0.00     0.249 C 
BRANCH  28  29
HETATM   29  N5  UNL     1      51.301  18.730  -1.934  1.00  0.00    -0.078 N 
ATOM     30  H53 UNL     1      51.357  19.741  -1.818  1.00  0.00     0.274 HD
ATOM     31  H52 UNL     1      50.798  18.707  -2.822  1.00  0.00     0.274 HD
ATOM     32  H51 UNL     1      50.768  18.290  -1.184  1.00  0.00     0.274 HD
ENDBRANCH  28  29
ENDBRANCH  27  28
ENDBRANCH  25  27
ENDBRANCH  22  23
ENDBRANCH  21  22
ENDBRANCH  20  21
ENDBRANCH  19  20
ENDBRANCH  18  19
ENDBRANCH  17  18
ENDBRANCH  15  16
ENDBRANCH  14  15
ENDBRANCH   7  14
BRANCH   7  33
HETATM   33  C17 UNL     1      45.263  18.357 -11.863  1.00  0.00     0.318 C 
BRANCH  33  34
HETATM   34  C18 UNL     1      45.003  19.576 -12.605  1.00  0.00     0.070 A 
HETATM   35  C19 UNL     1      43.986  20.479 -12.381  1.00  0.00     0.133 A 
HETATM   36  N6  UNL     1      44.064  21.464 -13.264  1.00  0.00    -0.200 N 
HETATM   37  C20 UNL     1      45.106  21.234 -14.064  1.00  0.00     0.676 A 
ATOM     38  H6  UNL     1      43.433  22.264 -13.322  1.00  0.00     0.183 HD
HETATM   39  N8  UNL     1      45.672  20.086 -13.658  1.00  0.00    -0.193 N 
ATOM     40  H8  UNL     1      46.493  19.659 -14.087  1.00  0.00     0.184 HD
BRANCH  37  41
HETATM   41  N7  UNL     1      45.534  21.951 -15.064  1.00  0.00    -0.234 N 
ATOM     42  H72 UNL     1      45.377  21.722 -16.045  1.00  0.00     0.174 HD
ATOM     43  H71 UNL     1      46.069  22.819 -15.040  1.00  0.00     0.174 HD
ENDBRANCH  37  41
ENDBRANCH  33  34
ENDBRANCH   7  33
TORSDOF 15
ENDMDL
MODEL 2
REMARK VINA RESULT: -7.209102305      7.035     12.800
REMARK  15 active torsions:
REMARK  status: ('A' for Active; 'I' for Inactive)
REMARK    1  A    between atoms: N3_7  and  C5_8 
REMARK    2  A    between atoms: N3_7  and  C17_27 
REMARK    3  A    between atoms: C5_8  and  C6_9 
REMARK    4  A    between atoms: C6_9  and  C7_10 
REMARK    5  A    between atoms: C8_11  and  C9_12 
REMARK    6  A    between atoms: C9_12  and  C10_13 
REMARK    7  A    between atoms: C10_13  and  C11_14 
REMARK    8  A    between atoms: C11_14  and  C12_15 
REMARK    9  A    between atoms: C12_15  and  C13_16 
REMARK   10  A    between atoms: C13_16  and  C14_17 
REMARK       I    between atoms: C14_17  and  N4_19 
REMARK   11  A    between atoms: N4_19  and  C15_21 
REMARK   12  A    between atoms: C15_21  and  C16_22 
REMARK   13  A    between atoms: C16_22  and  N5_23 
REMARK   14  A    between atoms: C17_27  and  C18_28 
REMARK   15  A    between atoms: C20_32  and  N7_33 
ROOT
HETATM    1  C1  UNL     1      54.439  13.119  -4.662  1.00  0.00     0.146 C 
HETATM    2  N1  UNL     1      54.877  11.773  -4.556  1.00  0.00    -0.121 NA
HETATM    3  C2  UNL     1      54.510  11.062  -5.713  1.00  0.00     0.358 C 
HETATM    4  N2  UNL     1      54.867   9.670  -5.762  1.00  0.00    -0.047 N 
HETATM    5  C3  UNL     1      54.228   9.063  -4.609  1.00  0.00     0.269 C 
HETATM    6  C4  UNL     1      54.842   9.733  -3.395  1.00  0.00     0.287 C 
HETATM    7  N3  UNL     1      54.668  11.145  -3.339  1.00  0.00     0.008 N 
HETATM    8  C21 UNL     1      56.234   9.343  -6.001  1.00  0.00     0.246 C 
HETATM    9  C22 UNL     1      55.956   9.073  -7.466  1.00  0.00     0.043 C 
HETATM   10  C23 UNL     1      56.334   7.671  -7.834  1.00  0.00     0.008 C 
HETATM   11  C24 UNL     1      55.443   6.814  -6.964  1.00  0.00     0.002 C 
HETATM   12  C25 UNL     1      54.162   7.607  -6.978  1.00  0.00     0.034 C 
HETATM   13  C26 UNL     1      54.527   9.061  -7.028  1.00  0.00     0.197 C 
ENDROOT
BRANCH   7  14
HETATM   14  C5  UNL     1      53.352  11.533  -2.812  1.00  0.00     0.287 C 
BRANCH  14  15
HETATM   15  C6  UNL     1      53.292  11.837  -1.389  1.00  0.00     0.003 C 
BRANCH  15  16
HETATM   16  C7  UNL     1      52.188  12.583  -0.770  1.00  0.00    -0.003 C 
HETATM   17  C8  UNL     1      51.726  13.878  -1.211  1.00  0.00    -0.004 C 
BRANCH  17  18
HETATM   18  C9  UNL     1      52.512  15.103  -1.152  1.00  0.00    -0.027 C 
BRANCH  18  19
HETATM   19  C10 UNL     1      52.059  16.334  -0.499  1.00  0.00     0.027 C 
BRANCH  19  20
HETATM   20  C11 UNL     1      53.006  17.426  -0.292  1.00  0.00     0.004 C 
BRANCH  20  21
HETATM   21  C12 UNL     1      52.501  18.777  -0.787  1.00  0.00     0.010 C 
BRANCH  21  22
HETATM   22  C13 UNL     1      53.578  19.614  -1.407  1.00  0.00     0.103 C 
BRANCH  22  23
HETATM   23  C14 UNL     1      53.854  19.128  -2.782  1.00  0.00     0.217 C 
HETATM   24  O1  UNL     1      55.040  18.947  -3.162  1.00  0.00    -0.274 OA
HETATM   25  N4  UNL     1      52.805  18.861  -3.687  1.00  0.00    -0.359 N 
ATOM     26  H4  UNL     1      51.838  18.997  -3.394  1.00  0.00     0.162 HD
BRANCH  25  27
HETATM   27  C15 UNL     1      53.089  18.402  -5.011  1.00  0.00     0.150 C 
BRANCH  27  28
HETATM   28  C16 UNL     1      51.813  18.084  -5.786  1.00  0.00     0.249 C 
BRANCH  28  29
HETATM   29  N5  UNL     1      50.954  19.240  -5.834  1.00  0.00    -0.078 N 
ATOM     30  H53 UNL     1      50.808  19.644  -4.909  1.00  0.00     0.274 HD
ATOM     31  H52 UNL     1      51.413  20.037  -6.277  1.00  0.00     0.274 HD
ATOM     32  H51 UNL     1      50.072  19.008  -6.290  1.00  0.00     0.274 HD
ENDBRANCH  28  29
ENDBRANCH  27  28
ENDBRANCH  25  27
ENDBRANCH  22  23
ENDBRANCH  21  22
ENDBRANCH  20  21
ENDBRANCH  19  20
ENDBRANCH  18  19
ENDBRANCH  17  18
ENDBRANCH  15  16
ENDBRANCH  14  15
ENDBRANCH   7  14
BRANCH   7  33
HETATM   33  C17 UNL     1      55.615  11.750  -2.412  1.00  0.00     0.318 C 
BRANCH  33  34
HETATM   34  C18 UNL     1      57.022  11.538  -2.692  1.00  0.00     0.070 A 
HETATM   35  C19 UNL     1      57.950  10.944  -1.862  1.00  0.00     0.133 A 
HETATM   36  N6  UNL     1      59.135  10.935  -2.455  1.00  0.00    -0.200 N 
HETATM   37  C20 UNL     1      59.013  11.507  -3.654  1.00  0.00     0.676 A 
ATOM     38  H6  UNL     1      59.996  10.554  -2.060  1.00  0.00     0.183 HD
HETATM   39  N8  UNL     1      57.728  11.871  -3.791  1.00  0.00    -0.193 N 
ATOM     40  H8  UNL     1      57.340  12.334  -4.613  1.00  0.00     0.184 HD
BRANCH  37  41
HETATM   41  N7  UNL     1      59.933  11.703  -4.555  1.00  0.00    -0.234 N 
ATOM     42  H72 UNL     1      60.362  10.963  -5.111  1.00  0.00     0.174 HD
ATOM     43  H71 UNL     1      60.358  12.583  -4.848  1.00  0.00     0.174 HD
ENDBRANCH  37  41
ENDBRANCH  33  34
ENDBRANCH   7  33
TORSDOF 15
ENDMDL
MODEL 3
REMARK VINA RESULT: -6.991672101      7.066     12.765
REMARK  15 active torsions:
REMARK  status: ('A' for Active; 'I' for Inactive)
REMARK    1  A    between atoms: N3_7  and  C5_8 
REMARK    2  A    between atoms: N3_7  and  C17_27 
REMARK    3  A    between atoms: C5_8  and  C6_9 
REMARK    4  A    between atoms: C6_9  and  C7_10 
REMARK    5  A    between atoms: C8_11  and  C9_12 
REMARK    6  A    between atoms: C9_12  and  C10_13 
REMARK    7  A    between atoms: C10_13  and  C11_14 
REMARK    8  A    between atoms: C11_14  and  C12_15 
REMARK    9  A    between atoms: C12_15  and  C13_16 
REMARK   10  A    between atoms: C13_16  and  C14_17 
REMARK       I    between atoms: C14_17  and  N4_19 
REMARK   11  A    between atoms: N4_19  and  C15_21 
REMARK   12  A    between atoms: C15_21  and  C16_22 
REMARK   13  A    between atoms: C16_22  and  N5_23 
REMARK   14  A    between atoms: C17_27  and  C18_28 
REMARK   15  A    between atoms: C20_32  and  N7_33 
ROOT
HETATM    1  C1  UNL     1      54.433  13.047  -4.655  1.00  0.00     0.146 C 
HETATM    2  N1  UNL     1      54.863  11.698  -4.566  1.00  0.00    -0.121 NA
HETATM    3  C2  UNL     1      54.530  11.014  -5.750  1.00  0.00     0.358 C 
HETATM    4  N2  UNL     1      54.883   9.622  -5.819  1.00  0.00    -0.047 N 
HETATM    5  C3  UNL     1      54.206   8.992  -4.700  1.00  0.00     0.269 C 
HETATM    6  C4  UNL     1      54.784   9.632  -3.454  1.00  0.00     0.287 C 
HETATM    7  N3  UNL     1      54.613  11.043  -3.371  1.00  0.00     0.008 N 
HETATM    8  C21 UNL     1      56.256   9.294  -6.023  1.00  0.00     0.246 C 
HETATM    9  C22 UNL     1      56.023   9.058  -7.502  1.00  0.00     0.043 C 
HETATM   10  C23 UNL     1      56.407   7.663  -7.889  1.00  0.00     0.008 C 
HETATM   11  C24 UNL     1      55.486   6.791  -7.067  1.00  0.00     0.002 C 
HETATM   12  C25 UNL     1      54.209   7.590  -7.103  1.00  0.00     0.034 C 
HETATM   13  C26 UNL     1      54.581   9.043  -7.109  1.00  0.00     0.197 C 
ENDROOT
BRANCH   7  14
HETATM   14  C5  UNL     1      53.283  11.425  -2.877  1.00  0.00     0.287 C 
BRANCH  14  15
HETATM   15  C6  UNL     1      53.119  11.462  -1.431  1.00  0.00     0.003 C 
BRANCH  15  16
HETATM   16  C7  UNL     1      52.154  12.336  -0.751  1.00  0.00    -0.003 C 
HETATM   17  C8  UNL     1      51.704  13.611  -1.259  1.00  0.00    -0.004 C 
BRANCH  17  18
HETATM   18  C9  UNL     1      52.555  14.780  -1.437  1.00  0.00    -0.027 C 
BRANCH  18  19
HETATM   19  C10 UNL     1      52.371  16.042  -0.714  1.00  0.00     0.027 C 
BRANCH  19  20
HETATM   20  C11 UNL     1      52.799  17.292  -1.334  1.00  0.00     0.004 C 
BRANCH  20  21
HETATM   21  C12 UNL     1      53.660  17.096  -2.577  1.00  0.00     0.010 C 
BRANCH  21  22
HETATM   22  C13 UNL     1      53.998  18.383  -3.265  1.00  0.00     0.103 C 
BRANCH  22  23
HETATM   23  C14 UNL     1      53.326  18.431  -4.588  1.00  0.00     0.217 C 
HETATM   24  O1  UNL     1      54.010  18.413  -5.645  1.00  0.00    -0.274 OA
HETATM   25  N4  UNL     1      51.922  18.497  -4.691  1.00  0.00    -0.359 N 
ATOM     26  H4  UNL     1      51.352  18.507  -3.846  1.00  0.00     0.162 HD
BRANCH  25  27
HETATM   27  C15 UNL     1      51.290  18.551  -5.973  1.00  0.00     0.150 C 
BRANCH  27  28
HETATM   28  C16 UNL     1      50.713  17.198  -6.378  1.00  0.00     0.249 C 
BRANCH  28  29
HETATM   29  N5  UNL     1      49.310  17.133  -6.055  1.00  0.00    -0.078 N 
ATOM     30  H53 UNL     1      49.101  17.607  -5.177  1.00  0.00     0.274 HD
ATOM     31  H52 UNL     1      48.749  17.715  -6.678  1.00  0.00     0.274 HD
ATOM     32  H51 UNL     1      48.990  16.165  -6.050  1.00  0.00     0.274 HD
ENDBRANCH  28  29
ENDBRANCH  27  28
ENDBRANCH  25  27
ENDBRANCH  22  23
ENDBRANCH  21  22
ENDBRANCH  20  21
ENDBRANCH  19  20
ENDBRANCH  18  19
ENDBRANCH  17  18
ENDBRANCH  15  16
ENDBRANCH  14  15
ENDBRANCH   7  14
BRANCH   7  33
HETATM   33  C17 UNL     1      55.533  11.623  -2.402  1.00  0.00     0.318 C 
BRANCH  33  34
HETATM   34  C18 UNL     1      56.949  11.436  -2.657  1.00  0.00     0.070 A 
HETATM   35  C19 UNL     1      57.866  10.831  -1.824  1.00  0.00     0.133 A 
HETATM   36  N6  UNL     1      59.064  10.852  -2.392  1.00  0.00    -0.200 N 
HETATM   37  C20 UNL     1      58.959  11.455  -3.578  1.00  0.00     0.676 A 
ATOM     38  H6  UNL     1      59.921  10.472  -1.990  1.00  0.00     0.183 HD
HETATM   39  N8  UNL     1      57.672  11.806  -3.732  1.00  0.00    -0.193 N 
ATOM     40  H8  UNL     1      57.295  12.287  -4.549  1.00  0.00     0.184 HD
BRANCH  37  41
HETATM   41  N7  UNL     1      59.895  11.687  -4.454  1.00  0.00    -0.234 N 
ATOM     42  H72 UNL     1      60.181  12.617  -4.759  1.00  0.00     0.174 HD
ATOM     43  H71 UNL     1      60.473  11.015  -4.958  1.00  0.00     0.174 HD
ENDBRANCH  37  41
ENDBRANCH  33  34
ENDBRANCH   7  33
TORSDOF 15
ENDMDL
MODEL 4
REMARK VINA RESULT: -6.844803398      5.513     11.261
REMARK  15 active torsions:
REMARK  status: ('A' for Active; 'I' for Inactive)
REMARK    1  A    between atoms: N3_7  and  C5_8 
REMARK    2  A    between atoms: N3_7  and  C17_27 
REMARK    3  A    between atoms: C5_8  and  C6_9 
REMARK    4  A    between atoms: C6_9  and  C7_10 
REMARK    5  A    between atoms: C8_11  and  C9_12 
REMARK    6  A    between atoms: C9_12  and  C10_13 
REMARK    7  A    between atoms: C10_13  and  C11_14 
REMARK    8  A    between atoms: C11_14  and  C12_15 
REMARK    9  A    between atoms: C12_15  and  C13_16 
REMARK   10  A    between atoms: C13_16  and  C14_17 
REMARK       I    between atoms: C14_17  and  N4_19 
REMARK   11  A    between atoms: N4_19  and  C15_21 
REMARK   12  A    between atoms: C15_21  and  C16_22 
REMARK   13  A    between atoms: C16_22  and  N5_23 
REMARK   14  A    between atoms: C17_27  and  C18_28 
REMARK   15  A    between atoms: C20_32  and  N7_33 
ROOT
HETATM    1  C1  UNL     1      52.392  10.840  -1.747  1.00  0.00     0.146 C 
HETATM    2  N1  UNL     1      53.346  11.424  -2.620  1.00  0.00    -0.121 NA
HETATM    3  C2  UNL     1      54.633  10.950  -2.302  1.00  0.00     0.358 C 
HETATM    4  N2  UNL     1      55.725  11.459  -3.087  1.00  0.00    -0.047 N 
HETATM    5  C3  UNL     1      55.693  12.899  -2.914  1.00  0.00     0.269 C 
HETATM    6  C4  UNL     1      54.364  13.355  -3.483  1.00  0.00     0.287 C 
HETATM    7  N3  UNL     1      53.218  12.782  -2.862  1.00  0.00     0.008 N 
HETATM    8  C21 UNL     1      55.876  10.962  -4.416  1.00  0.00     0.246 C 
HETATM    9  C22 UNL     1      56.959   9.997  -3.976  1.00  0.00     0.043 C 
HETATM   10  C23 UNL     1      58.233  10.245  -4.724  1.00  0.00     0.008 C 
HETATM   11  C24 UNL     1      58.606  11.660  -4.348  1.00  0.00     0.002 C 
HETATM   12  C25 UNL     1      58.202  11.699  -2.897  1.00  0.00     0.034 C 
HETATM   13  C26 UNL     1      56.984  10.838  -2.741  1.00  0.00     0.197 C 
ENDROOT
BRANCH   7  14
HETATM   14  C5  UNL     1      52.849  13.465  -1.614  1.00  0.00     0.287 C 
BRANCH  14  15
HETATM   15  C6  UNL     1      52.766  14.918  -1.675  1.00  0.00     0.003 C 
BRANCH  15  16
HETATM   16  C7  UNL     1      52.212  15.740  -0.592  1.00  0.00    -0.003 C 
HETATM   17  C8  UNL     1      52.122  17.181  -0.621  1.00  0.00    -0.004 C 
BRANCH  17  18
HETATM   18  C9  UNL     1      53.265  18.083  -0.646  1.00  0.00    -0.027 C 
BRANCH  18  19
HETATM   19  C10 UNL     1      53.378  19.234  -1.547  1.00  0.00     0.027 C 
BRANCH  19  20
HETATM   20  C11 UNL     1      54.404  19.234  -2.585  1.00  0.00     0.004 C 
BRANCH  20  21
HETATM   21  C12 UNL     1      54.135  18.242  -3.712  1.00  0.00     0.010 C 
BRANCH  21  22
HETATM   22  C13 UNL     1      52.686  18.156  -4.083  1.00  0.00     0.103 C 
BRANCH  22  23
HETATM   23  C14 UNL     1      52.500  18.651  -5.470  1.00  0.00     0.217 C 
HETATM   24  O1  UNL     1      53.438  18.559  -6.305  1.00  0.00    -0.274 OA
HETATM   25  N4  UNL     1      51.282  19.230  -5.882  1.00  0.00    -0.359 N 
ATOM     26  H4  UNL     1      50.510  19.307  -5.221  1.00  0.00     0.162 HD
BRANCH  25  27
HETATM   27  C15 UNL     1      51.122  19.709  -7.220  1.00  0.00     0.150 C 
BRANCH  27  28
HETATM   28  C16 UNL     1      50.332  18.730  -8.083  1.00  0.00     0.249 C 
BRANCH  28  29
HETATM   29  N5  UNL     1      51.182  17.656  -8.531  1.00  0.00    -0.078 N 
ATOM     30  H53 UNL     1      52.152  17.957  -8.629  1.00  0.00     0.274 HD
ATOM     31  H52 UNL     1      51.315  16.949  -7.808  1.00  0.00     0.274 HD
ATOM     32  H51 UNL     1      50.820  17.254  -9.396  1.00  0.00     0.274 HD
ENDBRANCH  28  29
ENDBRANCH  27  28
ENDBRANCH  25  27
ENDBRANCH  22  23
ENDBRANCH  21  22
ENDBRANCH  20  21
ENDBRANCH  19  20
ENDBRANCH  18  19
ENDBRANCH  17  18
ENDBRANCH  15  16
ENDBRANCH  14  15
ENDBRANCH   7  14
BRANCH   7  33
HETATM   33  C17 UNL     1      52.041  12.925  -3.709  1.00  0.00     0.318 C 
BRANCH  33  34
HETATM   34  C18 UNL     1      52.198  12.566  -5.105  1.00  0.00     0.070 A 
HETATM   35  C19 UNL     1      51.777  13.294  -6.198  1.00  0.00     0.133 A 
HETATM   36  N6  UNL     1      52.088  12.645  -7.311  1.00  0.00    -0.200 N 
HETATM   37  C20 UNL     1      52.704  11.508  -6.980  1.00  0.00     0.676 A 
ATOM     38  H6  UNL     1      51.891  12.961  -8.261  1.00  0.00     0.183 HD
HETATM   39  N8  UNL     1      52.768  11.467  -5.640  1.00  0.00    -0.193 N 
ATOM     40  H8  UNL     1      53.188  10.710  -5.101  1.00  0.00     0.184 HD
BRANCH  37  41
HETATM   41  N7  UNL     1      53.171  10.581  -7.767  1.00  0.00    -0.234 N 
ATOM     42  H72 UNL     1      54.120  10.567  -8.140  1.00  0.00     0.174 HD
ATOM     43  H71 UNL     1      52.696   9.753  -8.124  1.00  0.00     0.174 HD
ENDBRANCH  37  41
ENDBRANCH  33  34
ENDBRANCH   7  33
TORSDOF 15
ENDMDL
MODEL 5
REMARK VINA RESULT: -6.803863336      2.651      6.405
REMARK  15 active torsions:
REMARK  status: ('A' for Active; 'I' for Inactive)
REMARK    1  A    between atoms: N3_7  and  C5_8 
REMARK    2  A    between atoms: N3_7  and  C17_27 
REMARK    3  A    between atoms: C5_8  and  C6_9 
REMARK    4  A    between atoms: C6_9  and  C7_10 
REMARK    5  A    between atoms: C8_11  and  C9_12 
REMARK    6  A    between atoms: C9_12  and  C10_13 
REMARK    7  A    between atoms: C10_13  and  C11_14 
REMARK    8  A    between atoms: C11_14  and  C12_15 
REMARK    9  A    between atoms: C12_15  and  C13_16 
REMARK   10  A    between atoms: C13_16  and  C14_17 
REMARK       I    between atoms: C14_17  and  N4_19 
REMARK   11  A    between atoms: N4_19  and  C15_21 
REMARK   12  A    between atoms: C15_21  and  C16_22 
REMARK   13  A    between atoms: C16_22  and  N5_23 
REMARK   14  A    between atoms: C17_27  and  C18_28 
REMARK   15  A    between atoms: C20_32  and  N7_33 
ROOT
HETATM    1  C1  UNL     1      48.159  15.572 -12.493  1.00  0.00     0.146 C 
HETATM    2  N1  UNL     1      47.706  15.945 -11.202  1.00  0.00    -0.121 NA
HETATM    3  C2  UNL     1      46.311  15.777 -11.120  1.00  0.00     0.358 C 
HETATM    4  N2  UNL     1      45.685  16.127  -9.874  1.00  0.00    -0.047 N 
HETATM    5  C3  UNL     1      46.009  17.525  -9.654  1.00  0.00     0.269 C 
HETATM    6  C4  UNL     1      47.519  17.586  -9.533  1.00  0.00     0.287 C 
HETATM    7  N3  UNL     1      48.230  17.113 -10.672  1.00  0.00     0.008 N 
HETATM    8  C21 UNL     1      45.852  15.235  -8.773  1.00  0.00     0.246 C 
HETATM    9  C22 UNL     1      44.486  14.624  -9.008  1.00  0.00     0.043 C 
HETATM   10  C23 UNL     1      43.619  14.767  -7.795  1.00  0.00     0.008 C 
HETATM   11  C24 UNL     1      43.499  16.262  -7.608  1.00  0.00     0.002 C 
HETATM   12  C25 UNL     1      43.414  16.735  -9.035  1.00  0.00     0.034 C 
HETATM   13  C26 UNL     1      44.271  15.828  -9.867  1.00  0.00     0.197 C 
ENDROOT
BRANCH   7  14
HETATM   14  C5  UNL     1      48.335  18.123 -11.735  1.00  0.00     0.287 C 
BRANCH  14  15
HETATM   15  C6  UNL     1      49.606  18.826 -11.832  1.00  0.00     0.003 C 
BRANCH  15  16
HETATM   16  C7  UNL     1      49.832  19.963 -12.734  1.00  0.00    -0.003 C 
HETATM   17  C8  UNL     1      50.575  21.151 -12.385  1.00  0.00    -0.004 C 
BRANCH  17  18
HETATM   18  C9  UNL     1      50.172  22.111 -11.366  1.00  0.00    -0.027 C 
BRANCH  18  19
HETATM   19  C10 UNL     1      50.548  22.007  -9.953  1.00  0.00     0.027 C 
BRANCH  19  20
HETATM   20  C11 UNL     1      49.914  20.993  -9.115  1.00  0.00     0.004 C 
BRANCH  20  21
HETATM   21  C12 UNL     1      50.895  19.981  -8.533  1.00  0.00     0.010 C 
BRANCH  21  22
HETATM   22  C13 UNL     1      50.565  19.587  -7.126  1.00  0.00     0.103 C 
BRANCH  22  23
HETATM   23  C14 UNL     1      51.765  18.998  -6.481  1.00  0.00     0.217 C 
HETATM   24  O1  UNL     1      52.789  18.741  -7.167  1.00  0.00    -0.274 OA
HETATM   25  N4  UNL     1      51.787  18.713  -5.100  1.00  0.00    -0.359 N 
ATOM     26  H4  UNL     1      50.968  18.920  -4.528  1.00  0.00     0.162 HD
BRANCH  25  27
HETATM   27  C15 UNL     1      52.948  18.137  -4.496  1.00  0.00     0.150 C 
BRANCH  27  28
HETATM   28  C16 UNL     1      52.844  18.118  -2.974  1.00  0.00     0.249 C 
BRANCH  28  29
HETATM   29  N5  UNL     1      51.507  18.456  -2.556  1.00  0.00    -0.078 N 
ATOM     30  H53 UNL     1      51.399  19.459  -2.408  1.00  0.00     0.274 HD
ATOM     31  H52 UNL     1      50.832  18.341  -3.313  1.00  0.00     0.274 HD
ATOM     32  H51 UNL     1      51.247  17.920  -1.729  1.00  0.00     0.274 HD
ENDBRANCH  28  29
ENDBRANCH  27  28
ENDBRANCH  25  27
ENDBRANCH  22  23
ENDBRANCH  21  22
ENDBRANCH  20  21
ENDBRANCH  19  20
ENDBRANCH  18  19
ENDBRANCH  17  18
ENDBRANCH  15  16
ENDBRANCH  14  15
ENDBRANCH   7  14
BRANCH   7  33
HETATM   33  C17 UNL     1      49.614  16.809 -10.332  1.00  0.00     0.318 C 
BRANCH  33  34
HETATM   34  C18 UNL     1      49.824  15.827  -9.286  1.00  0.00     0.070 A 
HETATM   35  C19 UNL     1      50.505  16.014  -8.102  1.00  0.00     0.133 A 
HETATM   36  N6  UNL     1      50.496  14.888  -7.402  1.00  0.00    -0.200 N 
HETATM   37  C20 UNL     1      49.827  13.964  -8.094  1.00  0.00     0.676 A 
ATOM     38  H6  UNL     1      50.929  14.751  -6.487  1.00  0.00     0.183 HD
HETATM   39  N8  UNL     1      49.422  14.541  -9.237  1.00  0.00    -0.193 N 
ATOM     40  H8  UNL     1      48.885  14.072  -9.966  1.00  0.00     0.184 HD
BRANCH  37  41
HETATM   41  N7  UNL     1      49.588  12.725  -7.770  1.00  0.00    -0.234 N 
ATOM     42  H72 UNL     1      49.273  12.010  -8.425  1.00  0.00     0.174 HD
ATOM     43  H71 UNL     1      49.671  12.280  -6.856  1.00  0.00     0.174 HD
ENDBRANCH  37  41
ENDBRANCH  33  34
ENDBRANCH   7  33
TORSDOF 15
ENDMDL
