MODEL 1
REMARK VINA RESULT: -4.598051918      0.000      0.000
REMARK  1 active torsions:
REMARK  status: ('A' for Active; 'I' for Inactive)
REMARK    1  A    between atoms: C3_4  and  C4_5 
ROOT
HETATM    1  C4  UNL     1      28.996  14.769  17.580  1.00  0.00    -0.004 A 
HETATM    2  C5  UNL     1      29.690  14.732  16.400  1.00  0.00     0.031 A 
HETATM    3  C6  UNL     1      29.116  15.694  15.562  1.00  0.00     0.088 A 
HETATM    4  N2  UNL     1      28.114  16.274  16.236  1.00  0.00    -0.374 N 
ATOM      5  H2  UNL     1      27.519  17.016  15.866  1.00  0.00     0.164 HD
HETATM    6  C7  UNL     1      28.003  15.752  17.453  1.00  0.00     0.100 A 
ENDROOT
BRANCH   1   7
HETATM    7  C3  UNL     1      29.219  13.962  18.747  1.00  0.00     0.097 C 
HETATM    8  N1  UNL     1      28.757  12.845  19.107  1.00  0.00    -0.398 N 
HETATM    9  C1  UNL     1      29.196  12.265  20.398  1.00  0.00     0.148 C 
HETATM   10  C2  UNL     1      27.822  12.082  18.344  1.00  0.00     0.148 C 
ENDBRANCH   1   7
TORSDOF 1
ENDMDL
MODEL 2
REMARK VINA RESULT: -4.323781541      1.509      1.921
REMARK  1 active torsions:
REMARK  status: ('A' for Active; 'I' for Inactive)
REMARK    1  A    between atoms: C3_4  and  C4_5 
ROOT
HETATM    1  C4  UNL     1      29.197  14.728  17.311  1.00  0.00    -0.004 A 
HETATM    2  C5  UNL     1      28.180  15.271  18.050  1.00  0.00     0.031 A 
HETATM    3  C6  UNL     1      27.582  16.254  17.255  1.00  0.00     0.088 A 
HETATM    4  N2  UNL     1      28.233  16.283  16.085  1.00  0.00    -0.374 N 
ATOM      5  H2  UNL     1      28.008  16.909  15.312  1.00  0.00     0.164 HD
HETATM    6  C7  UNL     1      29.212  15.385  16.071  1.00  0.00     0.100 A 
ENDROOT
BRANCH   1   7
HETATM    7  C3  UNL     1      30.098  13.681  17.705  1.00  0.00     0.097 C 
HETATM    8  N1  UNL     1      30.039  12.426  17.597  1.00  0.00    -0.398 N 
HETATM    9  C1  UNL     1      31.158  11.604  18.115  1.00  0.00     0.148 C 
HETATM   10  C2  UNL     1      28.948  11.724  17.000  1.00  0.00     0.148 C 
ENDBRANCH   1   7
TORSDOF 1
ENDMDL
MODEL 3
REMARK VINA RESULT: -4.253854570      1.417      1.723
REMARK  1 active torsions:
REMARK  status: ('A' for Active; 'I' for Inactive)
REMARK    1  A    between atoms: C3_4  and  C4_5 
ROOT
HETATM    1  C4  UNL     1      28.907  14.175  17.565  1.00  0.00    -0.004 A 
HETATM    2  C5  UNL     1      28.413  15.242  16.863  1.00  0.00     0.031 A 
HETATM    3  C6  UNL     1      29.388  15.595  15.925  1.00  0.00     0.088 A 
HETATM    4  N2  UNL     1      30.422  14.758  16.076  1.00  0.00    -0.374 N 
ATOM      5  H2  UNL     1      31.277  14.785  15.520  1.00  0.00     0.164 HD
HETATM    6  C7  UNL     1      30.180  13.887  17.050  1.00  0.00     0.100 A 
ENDROOT
BRANCH   1   7
HETATM    7  C3  UNL     1      28.266  13.463  18.635  1.00  0.00     0.097 C 
HETATM    8  N1  UNL     1      27.781  12.301  18.711  1.00  0.00    -0.398 N 
HETATM    9  C1  UNL     1      27.176  11.853  19.987  1.00  0.00     0.148 C 
HETATM   10  C2  UNL     1      27.774  11.366  17.632  1.00  0.00     0.148 C 
ENDBRANCH   1   7
TORSDOF 1
ENDMDL
MODEL 4
REMARK VINA RESULT: -4.213052120      1.253      1.558
REMARK  1 active torsions:
REMARK  status: ('A' for Active; 'I' for Inactive)
REMARK    1  A    between atoms: C3_4  and  C4_5 
ROOT
HETATM    1  C4  UNL     1      28.546  14.022  17.957  1.00  0.00    -0.004 A 
HETATM    2  C5  UNL     1      29.055  13.736  16.718  1.00  0.00     0.031 A 
HETATM    3  C6  UNL     1      29.675  14.902  16.257  1.00  0.00     0.088 A 
HETATM    4  N2  UNL     1      29.530  15.841  17.200  1.00  0.00    -0.374 N 
ATOM      5  H2  UNL     1      29.887  16.794  17.130  1.00  0.00     0.164 HD
HETATM    6  C7  UNL     1      28.858  15.360  18.241  1.00  0.00     0.100 A 
ENDROOT
BRANCH   1   7
HETATM    7  C3  UNL     1      27.821  13.137  18.826  1.00  0.00     0.097 C 
HETATM    8  N1  UNL     1      28.194  12.208  19.593  1.00  0.00    -0.398 N 
HETATM    9  C1  UNL     1      27.177  11.467  20.376  1.00  0.00     0.148 C 
HETATM   10  C2  UNL     1      29.555  11.811  19.766  1.00  0.00     0.148 C 
ENDBRANCH   1   7
TORSDOF 1
ENDMDL
MODEL 5
REMARK VINA RESULT: -4.185757462      1.056      4.224
REMARK  1 active torsions:
REMARK  status: ('A' for Active; 'I' for Inactive)
REMARK    1  A    between atoms: C3_4  and  C4_5 
ROOT
HETATM    1  C4  UNL     1      28.652  13.231  18.329  1.00  0.00    -0.004 A 
HETATM    2  C5  UNL     1      27.685  12.282  18.530  1.00  0.00     0.031 A 
HETATM    3  C6  UNL     1      27.726  11.942  19.886  1.00  0.00     0.088 A 
HETATM    4  N2  UNL     1      28.691  12.672  20.459  1.00  0.00    -0.374 N 
ATOM      5  H2  UNL     1      28.942  12.628  21.447  1.00  0.00     0.164 HD
HETATM    6  C7  UNL     1      29.276  13.461  19.564  1.00  0.00     0.100 A 
ENDROOT
BRANCH   1   7
HETATM    7  C3  UNL     1      28.989  13.885  17.096  1.00  0.00     0.097 C 
HETATM    8  N1  UNL     1      28.695  15.020  16.630  1.00  0.00    -0.398 N 
HETATM    9  C1  UNL     1      29.212  15.408  15.297  1.00  0.00     0.148 C 
HETATM   10  C2  UNL     1      27.884  15.979  17.310  1.00  0.00     0.148 C 
ENDBRANCH   1   7
TORSDOF 1
ENDMDL
