MODEL 1
REMARK VINA RESULT: -4.170112051      0.000      0.000
REMARK  1 active torsions:
REMARK  status: ('A' for Active; 'I' for Inactive)
REMARK    1  A    between atoms: C3_4  and  C4_5 
ROOT
HETATM    1  C4  UNL     1      29.802  14.345  16.862  1.00  0.00     0.047 A 
HETATM    2  C5  UNL     1      28.679  15.053  17.238  1.00  0.00     0.032 A 
HETATM    3  C6  UNL     1      28.443  15.982  16.222  1.00  0.00     0.019 A 
HETATM    4  C7  UNL     1      29.404  15.815  15.283  1.00  0.00     0.088 A 
HETATM    5  N2  UNL     1      30.220  14.837  15.660  1.00  0.00    -0.365 N 
ATOM      6  H2  UNL     1      31.030  14.507  15.134  1.00  0.00     0.165 HD
ENDROOT
BRANCH   1   7
HETATM    7  C3  UNL     1      30.458  13.265  17.575  1.00  0.00     0.114 C 
HETATM    8  N1  UNL     1      30.406  12.020  17.429  1.00  0.00    -0.397 N 
HETATM    9  C1  UNL     1      31.216  11.174  18.341  1.00  0.00     0.148 C 
HETATM   10  C2  UNL     1      29.626  11.346  16.448  1.00  0.00     0.148 C 
ENDBRANCH   1   7
TORSDOF 1
ENDMDL
MODEL 2
REMARK VINA RESULT: -4.084096716      1.591      1.591
REMARK  1 active torsions:
REMARK  status: ('A' for Active; 'I' for Inactive)
REMARK    1  A    between atoms: C3_4  and  C4_5 
ROOT
HETATM    1  C4  UNL     1      29.275  14.522  17.343  1.00  0.00     0.047 A 
HETATM    2  C5  UNL     1      28.410  15.584  17.181  1.00  0.00     0.032 A 
HETATM    3  C6  UNL     1      28.602  16.051  15.879  1.00  0.00     0.019 A 
HETATM    4  C7  UNL     1      29.554  15.279  15.303  1.00  0.00     0.088 A 
HETATM    5  N2  UNL     1      29.960  14.362  16.174  1.00  0.00    -0.365 N 
ATOM      6  H2  UNL     1      30.671  13.652  15.996  1.00  0.00     0.165 HD
ENDROOT
BRANCH   1   7
HETATM    7  C3  UNL     1      29.462  13.693  18.519  1.00  0.00     0.114 C 
HETATM    8  N1  UNL     1      28.899  12.634  18.887  1.00  0.00    -0.397 N 
HETATM    9  C1  UNL     1      29.330  12.021  20.169  1.00  0.00     0.148 C 
HETATM   10  C2  UNL     1      27.870  11.964  18.166  1.00  0.00     0.148 C 
ENDBRANCH   1   7
TORSDOF 1
ENDMDL
MODEL 3
REMARK VINA RESULT: -4.070319279      2.081      4.358
REMARK  1 active torsions:
REMARK  status: ('A' for Active; 'I' for Inactive)
REMARK    1  A    between atoms: C3_4  and  C4_5 
ROOT
HETATM    1  C4  UNL     1      28.881  13.055  18.041  1.00  0.00     0.047 A 
HETATM    2  C5  UNL     1      29.672  12.943  19.166  1.00  0.00     0.032 A 
HETATM    3  C6  UNL     1      29.010  12.062  20.024  1.00  0.00     0.019 A 
HETATM    4  C7  UNL     1      27.866  11.675  19.410  1.00  0.00     0.088 A 
HETATM    5  N2  UNL     1      27.783  12.265  18.224  1.00  0.00    -0.365 N 
ATOM      6  H2  UNL     1      27.021  12.147  17.556  1.00  0.00     0.165 HD
ENDROOT
BRANCH   1   7
HETATM    7  C3  UNL     1      29.125  13.852  16.853  1.00  0.00     0.114 C 
HETATM    8  N1  UNL     1      28.765  15.013  16.543  1.00  0.00    -0.397 N 
HETATM    9  C1  UNL     1      29.190  15.549  15.225  1.00  0.00     0.148 C 
HETATM   10  C2  UNL     1      27.974  15.868  17.362  1.00  0.00     0.148 C 
ENDBRANCH   1   7
TORSDOF 1
ENDMDL
MODEL 4
REMARK VINA RESULT: -4.064785624      2.144      4.305
REMARK  1 active torsions:
REMARK  status: ('A' for Active; 'I' for Inactive)
REMARK    1  A    between atoms: C3_4  and  C4_5 
ROOT
HETATM    1  C4  UNL     1      28.896  13.122  18.114  1.00  0.00     0.047 A 
HETATM    2  C5  UNL     1      27.891  12.209  18.358  1.00  0.00     0.032 A 
HETATM    3  C6  UNL     1      28.077  11.764  19.669  1.00  0.00     0.019 A 
HETATM    4  C7  UNL     1      29.161  12.403  20.168  1.00  0.00     0.088 A 
HETATM    5  N2  UNL     1      29.655  13.218  19.243  1.00  0.00    -0.365 N 
ATOM      6  H2  UNL     1      30.472  13.818  19.359  1.00  0.00     0.165 HD
ENDROOT
BRANCH   1   7
HETATM    7  C3  UNL     1      29.144  13.873  16.897  1.00  0.00     0.114 C 
HETATM    8  N1  UNL     1      28.778  15.017  16.537  1.00  0.00    -0.397 N 
HETATM    9  C1  UNL     1      29.211  15.504  15.203  1.00  0.00     0.148 C 
HETATM   10  C2  UNL     1      27.972  15.897  17.314  1.00  0.00     0.148 C 
ENDBRANCH   1   7
TORSDOF 1
ENDMDL
MODEL 5
REMARK VINA RESULT: -3.992228902      3.013      4.770
REMARK  1 active torsions:
REMARK  status: ('A' for Active; 'I' for Inactive)
REMARK    1  A    between atoms: C3_4  and  C4_5 
ROOT
HETATM    1  C4  UNL     1      28.100  12.994  19.460  1.00  0.00     0.047 A 
HETATM    2  C5  UNL     1      29.123  12.369  20.143  1.00  0.00     0.032 A 
HETATM    3  C6  UNL     1      28.533  11.331  20.868  1.00  0.00     0.019 A 
HETATM    4  C7  UNL     1      27.204  11.356  20.611  1.00  0.00     0.088 A 
HETATM    5  N2  UNL     1      26.938  12.348  19.769  1.00  0.00    -0.365 N 
ATOM      6  H2  UNL     1      26.014  12.589  19.411  1.00  0.00     0.165 HD
ENDROOT
BRANCH   1   7
HETATM    7  C3  UNL     1      28.188  14.132  18.564  1.00  0.00     0.114 C 
HETATM    8  N1  UNL     1      28.635  14.238  17.396  1.00  0.00    -0.397 N 
HETATM    9  C1  UNL     1      28.578  15.570  16.743  1.00  0.00     0.148 C 
HETATM   10  C2  UNL     1      29.197  13.172  16.639  1.00  0.00     0.148 C 
ENDBRANCH   1   7
TORSDOF 1
ENDMDL
