MODEL 1
REMARK VINA RESULT: -5.210002051      0.000      0.000
REMARK  1 active torsions:
REMARK  status: ('A' for Active; 'I' for Inactive)
REMARK       I    between atoms: N1_2  and  C2_4 
REMARK    1  A    between atoms: C2_4  and  C3_6 
ROOT
HETATM    1  C3  UNL     1      28.303  14.139  18.194  1.00  0.00     0.100 A 
HETATM    2  C4  UNL     1      28.518  12.904  17.594  1.00  0.00     0.036 A 
HETATM    3  C5  UNL     1      27.914  11.948  18.376  1.00  0.00     0.019 A 
HETATM    4  C6  UNL     1      27.332  12.584  19.448  1.00  0.00     0.088 A 
HETATM    5  N2  UNL     1      27.589  13.891  19.302  1.00  0.00    -0.361 N 
ATOM      6  H2  UNL     1      27.278  14.612  19.954  1.00  0.00     0.165 HD
ENDROOT
BRANCH   1   7
HETATM    7  C2  UNL     1      28.763  15.428  17.714  1.00  0.00     0.271 C 
HETATM    8  N1  UNL     1      28.374  15.861  16.427  1.00  0.00    -0.342 N 
HETATM    9  C1  UNL     1      29.120  15.804  15.391  1.00  0.00     0.121 C 
ATOM     10  H1  UNL     1      27.435  16.245  16.317  1.00  0.00     0.167 HD
HETATM   11  O1  UNL     1      29.494  16.139  18.436  1.00  0.00    -0.266 OA
ENDBRANCH   1   7
TORSDOF 1
ENDMDL
MODEL 2
REMARK VINA RESULT: -5.046283152      0.942      1.249
REMARK  1 active torsions:
REMARK  status: ('A' for Active; 'I' for Inactive)
REMARK       I    between atoms: N1_2  and  C2_4 
REMARK    1  A    between atoms: C2_4  and  C3_6 
ROOT
HETATM    1  C3  UNL     1      28.433  14.085  17.944  1.00  0.00     0.100 A 
HETATM    2  C4  UNL     1      27.780  13.771  19.131  1.00  0.00     0.036 A 
HETATM    3  C5  UNL     1      27.569  12.413  19.145  1.00  0.00     0.019 A 
HETATM    4  C6  UNL     1      28.086  11.891  17.982  1.00  0.00     0.088 A 
HETATM    5  N2  UNL     1      28.592  12.923  17.293  1.00  0.00    -0.361 N 
ATOM      6  H2  UNL     1      29.043  12.836  16.381  1.00  0.00     0.165 HD
ENDROOT
BRANCH   1   7
HETATM    7  C2  UNL     1      28.853  15.403  17.508  1.00  0.00     0.271 C 
HETATM    8  N1  UNL     1      28.489  15.850  16.219  1.00  0.00    -0.342 N 
HETATM    9  C1  UNL     1      29.271  15.848  15.208  1.00  0.00     0.121 C 
ATOM     10  H1  UNL     1      27.539  16.197  16.086  1.00  0.00     0.167 HD
HETATM   11  O1  UNL     1      29.529  16.126  18.271  1.00  0.00    -0.266 OA
ENDBRANCH   1   7
TORSDOF 1
ENDMDL
MODEL 3
REMARK VINA RESULT: -4.796494573      1.751      3.669
REMARK  1 active torsions:
REMARK  status: ('A' for Active; 'I' for Inactive)
REMARK       I    between atoms: N1_2  and  C2_4 
REMARK    1  A    between atoms: C2_4  and  C3_6 
ROOT
HETATM    1  C3  UNL     1      28.678  15.059  17.909  1.00  0.00     0.100 A 
HETATM    2  C4  UNL     1      29.724  14.524  17.166  1.00  0.00     0.036 A 
HETATM    3  C5  UNL     1      29.678  15.087  15.913  1.00  0.00     0.019 A 
HETATM    4  C6  UNL     1      28.616  15.961  15.880  1.00  0.00     0.088 A 
HETATM    5  N2  UNL     1      28.045  15.913  17.092  1.00  0.00    -0.361 N 
ATOM      6  H2  UNL     1      27.227  16.461  17.361  1.00  0.00     0.165 HD
ENDROOT
BRANCH   1   7
HETATM    7  C2  UNL     1      28.346  14.749  19.287  1.00  0.00     0.271 C 
HETATM    8  N1  UNL     1      29.257  13.998  20.062  1.00  0.00    -0.342 N 
HETATM    9  C1  UNL     1      29.135  12.750  20.309  1.00  0.00     0.121 C 
ATOM     10  H1  UNL     1      30.066  14.484  20.449  1.00  0.00     0.167 HD
HETATM   11  O1  UNL     1      27.266  15.147  19.773  1.00  0.00    -0.266 OA
ENDBRANCH   1   7
TORSDOF 1
ENDMDL
MODEL 4
REMARK VINA RESULT: -4.775950349      1.765      1.984
REMARK  1 active torsions:
REMARK  status: ('A' for Active; 'I' for Inactive)
REMARK       I    between atoms: N1_2  and  C2_4 
REMARK    1  A    between atoms: C2_4  and  C3_6 
ROOT
HETATM    1  C3  UNL     1      29.637  13.883  18.171  1.00  0.00     0.100 A 
HETATM    2  C4  UNL     1      29.225  13.289  19.358  1.00  0.00     0.036 A 
HETATM    3  C5  UNL     1      29.817  12.051  19.433  1.00  0.00     0.019 A 
HETATM    4  C6  UNL     1      30.588  11.880  18.306  1.00  0.00     0.088 A 
HETATM    5  N2  UNL     1      30.451  12.998  17.578  1.00  0.00    -0.361 N 
ATOM      6  H2  UNL     1      30.911  13.156  16.681  1.00  0.00     0.165 HD
ENDROOT
BRANCH   1   7
HETATM    7  C2  UNL     1      29.257  15.195  17.680  1.00  0.00     0.271 C 
HETATM    8  N1  UNL     1      28.613  15.302  16.428  1.00  0.00    -0.342 N 
HETATM    9  C1  UNL     1      29.196  15.651  15.345  1.00  0.00     0.121 C 
ATOM     10  H1  UNL     1      27.617  15.086  16.385  1.00  0.00     0.167 HD
HETATM   11  O1  UNL     1      29.502  16.212  18.365  1.00  0.00    -0.266 OA
ENDBRANCH   1   7
TORSDOF 1
ENDMDL
MODEL 5
REMARK VINA RESULT: -4.590083305      2.615      4.059
REMARK  1 active torsions:
REMARK  status: ('A' for Active; 'I' for Inactive)
REMARK       I    between atoms: N1_2  and  C2_4 
REMARK    1  A    between atoms: C2_4  and  C3_6 
ROOT
HETATM    1  C3  UNL     1      29.751  14.078  16.817  1.00  0.00     0.100 A 
HETATM    2  C4  UNL     1      28.673  14.818  17.291  1.00  0.00     0.036 A 
HETATM    3  C5  UNL     1      28.469  15.862  16.421  1.00  0.00     0.019 A 
HETATM    4  C6  UNL     1      29.409  15.770  15.419  1.00  0.00     0.088 A 
HETATM    5  N2  UNL     1      30.155  14.691  15.695  1.00  0.00    -0.361 N 
ATOM      6  H2  UNL     1      30.936  14.375  15.121  1.00  0.00     0.165 HD
ENDROOT
BRANCH   1   7
HETATM    7  C2  UNL     1      30.317  12.887  17.421  1.00  0.00     0.271 C 
HETATM    8  N1  UNL     1      30.598  11.769  16.605  1.00  0.00    -0.342 N 
HETATM    9  C1  UNL     1      29.857  10.731  16.522  1.00  0.00     0.121 C 
ATOM     10  H1  UNL     1      31.450  11.792  16.044  1.00  0.00     0.167 HD
HETATM   11  O1  UNL     1      30.547  12.859  18.649  1.00  0.00    -0.266 OA
ENDBRANCH   1   7
TORSDOF 1
ENDMDL
