MODEL 1
REMARK VINA RESULT: -4.583361109      0.000      0.000
REMARK  1 active torsions:
REMARK  status: ('A' for Active; 'I' for Inactive)
REMARK    1  A    between atoms: C2_2  and  C3_3 
ROOT
HETATM    1  C3  UNL     1      28.557  14.197  17.566  1.00  0.00     0.050 A 
HETATM    2  C4  UNL     1      28.031  15.040  18.521  1.00  0.00     0.119 A 
HETATM    3  N1  UNL     1      27.478  14.255  19.456  1.00  0.00    -0.354 N 
ATOM      4  H1  UNL     1      27.006  14.595  20.295  1.00  0.00     0.166 HD
HETATM    5  C5  UNL     1      27.631  12.948  19.133  1.00  0.00     0.079 A 
HETATM    6  C6  UNL     1      27.157  11.758  19.913  1.00  0.00     0.089 C 
HETATM    7  N2  UNL     1      28.297  12.949  17.969  1.00  0.00    -0.340 N 
HETATM    8  C7  UNL     1      28.677  11.731  17.252  1.00  0.00     0.158 C 
ENDROOT
BRANCH   1   9
HETATM    9  C2  UNL     1      29.268  14.599  16.337  1.00  0.00     0.021 C 
HETATM   10  C1  UNL     1      28.925  15.701  15.707  1.00  0.00     0.013 C 
ENDBRANCH   1   9
TORSDOF 1
ENDMDL
MODEL 2
REMARK VINA RESULT: -4.539823615      1.369      3.488
REMARK  1 active torsions:
REMARK  status: ('A' for Active; 'I' for Inactive)
REMARK    1  A    between atoms: C2_2  and  C3_3 
ROOT
HETATM    1  C3  UNL     1      28.226  13.979  18.257  1.00  0.00     0.050 A 
HETATM    2  C4  UNL     1      27.833  15.286  18.445  1.00  0.00     0.119 A 
HETATM    3  N1  UNL     1      28.205  15.956  17.345  1.00  0.00    -0.354 N 
ATOM      4  H1  UNL     1      28.048  16.952  17.190  1.00  0.00     0.166 HD
HETATM    5  C5  UNL     1      28.818  15.126  16.466  1.00  0.00     0.079 A 
HETATM    6  C6  UNL     1      29.379  15.482  15.121  1.00  0.00     0.089 C 
HETATM    7  N2  UNL     1      28.813  13.923  17.057  1.00  0.00    -0.340 N 
HETATM    8  C7  UNL     1      29.384  12.719  16.449  1.00  0.00     0.158 C 
ENDROOT
BRANCH   1   9
HETATM    9  C2  UNL     1      28.033  12.861  19.200  1.00  0.00     0.021 C 
HETATM   10  C1  UNL     1      28.965  12.577  20.085  1.00  0.00     0.013 C 
ENDBRANCH   1   9
TORSDOF 1
ENDMDL
MODEL 3
REMARK VINA RESULT: -4.434839663      1.156      4.049
REMARK  1 active torsions:
REMARK  status: ('A' for Active; 'I' for Inactive)
REMARK    1  A    between atoms: C2_2  and  C3_3 
ROOT
HETATM    1  C3  UNL     1      28.479  13.110  17.824  1.00  0.00     0.050 A 
HETATM    2  C4  UNL     1      29.167  12.321  16.929  1.00  0.00     0.119 A 
HETATM    3  N1  UNL     1      29.563  13.129  15.936  1.00  0.00    -0.354 N 
ATOM      4  H1  UNL     1      30.098  12.829  15.121  1.00  0.00     0.166 HD
HETATM    5  C5  UNL     1      29.153  14.401  16.165  1.00  0.00     0.079 A 
HETATM    6  C6  UNL     1      29.390  15.601  15.297  1.00  0.00     0.089 C 
HETATM    7  N2  UNL     1      28.492  14.352  17.330  1.00  0.00    -0.340 N 
HETATM    8  C7  UNL     1      27.873  15.521  17.959  1.00  0.00     0.158 C 
ENDROOT
BRANCH   1   9
HETATM    9  C2  UNL     1      27.850  12.666  19.083  1.00  0.00     0.021 C 
HETATM   10  C1  UNL     1      27.048  11.624  19.087  1.00  0.00     0.013 C 
ENDBRANCH   1   9
TORSDOF 1
ENDMDL
MODEL 4
REMARK VINA RESULT: -4.358260758      1.884      2.960
REMARK  1 active torsions:
REMARK  status: ('A' for Active; 'I' for Inactive)
REMARK    1  A    between atoms: C2_2  and  C3_3 
ROOT
HETATM    1  C3  UNL     1      28.471  15.437  17.184  1.00  0.00     0.050 A 
HETATM    2  C4  UNL     1      29.356  15.529  16.132  1.00  0.00     0.119 A 
HETATM    3  N1  UNL     1      30.222  14.517  16.276  1.00  0.00    -0.354 N 
ATOM      4  H1  UNL     1      30.999  14.323  15.644  1.00  0.00     0.166 HD
HETATM    5  C5  UNL     1      29.923  13.786  17.378  1.00  0.00     0.079 A 
HETATM    6  C6  UNL     1      30.646  12.575  17.888  1.00  0.00     0.089 C 
HETATM    7  N2  UNL     1      28.844  14.378  17.909  1.00  0.00    -0.340 N 
HETATM    8  C7  UNL     1      28.180  13.909  19.127  1.00  0.00     0.158 C 
ENDROOT
BRANCH   1   9
HETATM    9  C2  UNL     1      27.332  16.337  17.454  1.00  0.00     0.021 C 
HETATM   10  C1  UNL     1      26.999  17.259  16.577  1.00  0.00     0.013 C 
ENDBRANCH   1   9
TORSDOF 1
ENDMDL
MODEL 5
REMARK VINA RESULT: -4.340988459      1.677      4.080
REMARK  1 active torsions:
REMARK  status: ('A' for Active; 'I' for Inactive)
REMARK    1  A    between atoms: C2_2  and  C3_3 
ROOT
HETATM    1  C3  UNL     1      29.451  13.791  18.391  1.00  0.00     0.050 A 
HETATM    2  C4  UNL     1      30.422  13.135  17.666  1.00  0.00     0.119 A 
HETATM    3  N1  UNL     1      30.414  13.679  16.441  1.00  0.00    -0.354 N 
ATOM      4  H1  UNL     1      31.028  13.398  15.677  1.00  0.00     0.166 HD
HETATM    5  C5  UNL     1      29.477  14.655  16.359  1.00  0.00     0.079 A 
HETATM    6  C6  UNL     1      29.151  15.503  15.166  1.00  0.00     0.089 C 
HETATM    7  N2  UNL     1      28.906  14.697  17.571  1.00  0.00    -0.340 N 
HETATM    8  C7  UNL     1      27.828  15.621  17.928  1.00  0.00     0.158 C 
ENDROOT
BRANCH   1   9
HETATM    9  C2  UNL     1      29.087  13.541  19.799  1.00  0.00     0.021 C 
HETATM   10  C1  UNL     1      29.147  12.321  20.288  1.00  0.00     0.013 C 
ENDBRANCH   1   9
TORSDOF 1
ENDMDL
