MODEL 1
REMARK VINA RESULT: -4.339869502      0.000      0.000
REMARK  1 active torsions:
REMARK  status: ('A' for Active; 'I' for Inactive)
REMARK    1  A    between atoms: C1_2  and  C2_4 
ROOT
HETATM    1  C2  UNL     1      28.607  14.358  17.764  1.00  0.00     0.123 A 
HETATM    2 CL1  UNL     1      30.134  13.927  16.888  1.00  0.00    -0.108 Cl
HETATM    3  C3  UNL     1      27.966  13.388  18.667  1.00  0.00     0.025 A 
HETATM    4  C4  UNL     1      28.895  12.937  19.805  1.00  0.00     0.015 A 
HETATM    5  C5  UNL     1      28.863  14.372  19.303  1.00  0.00     0.025 A 
ENDROOT
BRANCH   1   6
HETATM    6  C1  UNL     1      28.018  15.651  17.340  1.00  0.00     0.255 C 
HETATM    7  N1  UNL     1      28.803  16.259  16.255  1.00  0.00    -0.060 NA
HETATM    8  O1  UNL     1      27.057  16.229  17.698  1.00  0.00    -0.275 OA
ENDBRANCH   1   6
TORSDOF 1
ENDMDL
MODEL 2
REMARK VINA RESULT: -4.233382020      1.960      2.150
REMARK  1 active torsions:
REMARK  status: ('A' for Active; 'I' for Inactive)
REMARK    1  A    between atoms: C1_2  and  C2_4 
ROOT
HETATM    1  C2  UNL     1      29.138  14.718  17.806  1.00  0.00     0.123 A 
HETATM    2 CL1  UNL     1      28.683  15.079  19.523  1.00  0.00    -0.108 Cl
HETATM    3  C3  UNL     1      30.099  13.646  17.499  1.00  0.00     0.025 A 
HETATM    4  C4  UNL     1      29.644  12.275  18.026  1.00  0.00     0.015 A 
HETATM    5  C5  UNL     1      28.672  13.279  17.424  1.00  0.00     0.025 A 
ENDROOT
BRANCH   1   6
HETATM    6  C1  UNL     1      28.606  15.696  16.827  1.00  0.00     0.255 C 
HETATM    7  N1  UNL     1      27.391  16.348  17.338  1.00  0.00    -0.060 NA
HETATM    8  O1  UNL     1      28.994  16.035  15.768  1.00  0.00    -0.275 OA
ENDBRANCH   1   6
TORSDOF 1
ENDMDL
MODEL 3
REMARK VINA RESULT: -4.181747921      1.622      1.850
REMARK  1 active torsions:
REMARK  status: ('A' for Active; 'I' for Inactive)
REMARK    1  A    between atoms: C1_2  and  C2_4 
ROOT
HETATM    1  C2  UNL     1      29.007  14.868  17.892  1.00  0.00     0.123 A 
HETATM    2 CL1  UNL     1      28.744  15.070  19.674  1.00  0.00    -0.108 Cl
HETATM    3  C3  UNL     1      30.015  13.921  17.389  1.00  0.00     0.025 A 
HETATM    4  C4  UNL     1      29.757  12.480  17.860  1.00  0.00     0.015 A 
HETATM    5  C5  UNL     1      28.629  13.418  17.460  1.00  0.00     0.025 A 
ENDROOT
BRANCH   1   6
HETATM    6  C1  UNL     1      28.267  15.851  17.064  1.00  0.00     0.255 C 
HETATM    7  N1  UNL     1      28.963  16.101  15.793  1.00  0.00    -0.060 NA
HETATM    8  O1  UNL     1      27.250  16.416  17.241  1.00  0.00    -0.275 OA
ENDBRANCH   1   6
TORSDOF 1
ENDMDL
MODEL 4
REMARK VINA RESULT: -4.172493684      2.205      2.370
REMARK  1 active torsions:
REMARK  status: ('A' for Active; 'I' for Inactive)
REMARK    1  A    between atoms: C1_2  and  C2_4 
ROOT
HETATM    1  C2  UNL     1      28.945  14.163  17.182  1.00  0.00     0.123 A 
HETATM    2 CL1  UNL     1      29.181  14.908  15.546  1.00  0.00    -0.108 Cl
HETATM    3  C3  UNL     1      28.734  12.713  17.318  1.00  0.00     0.025 A 
HETATM    4  C4  UNL     1      29.895  11.890  16.733  1.00  0.00     0.015 A 
HETATM    5  C5  UNL     1      30.121  13.187  17.496  1.00  0.00     0.025 A 
ENDROOT
BRANCH   1   6
HETATM    6  C1  UNL     1      28.808  15.154  18.276  1.00  0.00     0.255 C 
HETATM    7  N1  UNL     1      27.901  14.663  19.324  1.00  0.00    -0.060 NA
HETATM    8  O1  UNL     1      29.302  16.210  18.443  1.00  0.00    -0.275 OA
ENDBRANCH   1   6
TORSDOF 1
ENDMDL
MODEL 5
REMARK VINA RESULT: -4.147303936      1.186      1.186
REMARK  1 active torsions:
REMARK  status: ('A' for Active; 'I' for Inactive)
REMARK    1  A    between atoms: C1_2  and  C2_4 
ROOT
HETATM    1  C2  UNL     1      28.701  13.939  17.740  1.00  0.00     0.123 A 
HETATM    2 CL1  UNL     1      29.248  12.908  16.353  1.00  0.00    -0.108 Cl
HETATM    3  C3  UNL     1      27.853  13.374  18.801  1.00  0.00     0.025 A 
HETATM    4  C4  UNL     1      28.509  12.175  19.506  1.00  0.00     0.015 A 
HETATM    5  C5  UNL     1      29.303  13.398  19.074  1.00  0.00     0.025 A 
ENDROOT
BRANCH   1   6
HETATM    6  C1  UNL     1      29.033  15.376  17.584  1.00  0.00     0.255 C 
HETATM    7  N1  UNL     1      28.973  15.783  16.173  1.00  0.00    -0.060 NA
HETATM    8  O1  UNL     1      29.301  16.208  18.373  1.00  0.00    -0.275 OA
ENDBRANCH   1   6
TORSDOF 1
ENDMDL
