MODEL 1
REMARK VINA RESULT: -4.342827428      0.000      0.000
REMARK  1 active torsions:
REMARK  status: ('A' for Active; 'I' for Inactive)
REMARK    1  A    between atoms: C1_2  and  C2_4 
ROOT
HETATM    1  C2  UNL     1      28.919  14.030  19.097  1.00  0.00     0.271 C 
HETATM    2  C3  UNL     1      29.596  12.703  18.839  1.00  0.00     0.044 C 
HETATM    3  C4  UNL     1      28.909  11.860  19.909  1.00  0.00     0.030 C 
HETATM    4  C5  UNL     1      27.459  12.301  19.656  1.00  0.00     0.233 C 
HETATM    5  N1  UNL     1      27.553  13.713  19.358  1.00  0.00    -0.063 N 
ATOM      6  H11 UNL     1      26.933  13.994  18.599  1.00  0.00     0.278 HD
ATOM      7  H12 UNL     1      27.149  14.295  20.092  1.00  0.00     0.278 HD
ENDROOT
BRANCH   1   8
HETATM    8  C1  UNL     1      29.111  14.981  17.988  1.00  0.00     0.249 C 
HETATM    9  O1  UNL     1      29.300  16.149  18.259  1.00  0.00    -0.278 OA
HETATM   10 CL1  UNL     1      29.080  14.502  16.308  1.00  0.00    -0.042 Cl
ENDBRANCH   1   8
TORSDOF 1
ENDMDL
MODEL 2
REMARK VINA RESULT: -4.319238285      1.165      1.207
REMARK  1 active torsions:
REMARK  status: ('A' for Active; 'I' for Inactive)
REMARK    1  A    between atoms: C1_2  and  C2_4 
ROOT
HETATM    1  C2  UNL     1      28.531  14.623  18.619  1.00  0.00     0.271 C 
HETATM    2  C3  UNL     1      29.394  13.498  18.092  1.00  0.00     0.044 C 
HETATM    3  C4  UNL     1      29.359  12.569  19.301  1.00  0.00     0.030 C 
HETATM    4  C5  UNL     1      27.851  12.614  19.585  1.00  0.00     0.233 C 
HETATM    5  N1  UNL     1      27.470  13.984  19.327  1.00  0.00    -0.063 N 
ATOM      6  H11 UNL     1      26.576  14.058  18.842  1.00  0.00     0.278 HD
ATOM      7  H12 UNL     1      27.209  14.484  20.177  1.00  0.00     0.278 HD
ENDROOT
BRANCH   1   8
HETATM    8  C1  UNL     1      28.078  15.530  17.550  1.00  0.00     0.249 C 
HETATM    9  O1  UNL     1      27.080  16.193  17.744  1.00  0.00    -0.278 OA
HETATM   10 CL1  UNL     1      28.912  15.691  16.024  1.00  0.00    -0.042 Cl
ENDBRANCH   1   8
TORSDOF 1
ENDMDL
MODEL 3
REMARK VINA RESULT: -4.308462066      3.027      3.865
REMARK  1 active torsions:
REMARK  status: ('A' for Active; 'I' for Inactive)
REMARK    1  A    between atoms: C1_2  and  C2_4 
ROOT
HETATM    1  C2  UNL     1      29.978  14.089  17.196  1.00  0.00     0.271 C 
HETATM    2  C3  UNL     1      28.526  14.379  17.504  1.00  0.00     0.044 C 
HETATM    3  C4  UNL     1      28.425  15.787  16.928  1.00  0.00     0.030 C 
HETATM    4  C5  UNL     1      29.125  15.539  15.584  1.00  0.00     0.233 C 
HETATM    5  N1  UNL     1      30.203  14.628  15.894  1.00  0.00    -0.063 N 
ATOM      6  H11 UNL     1      30.320  13.904  15.186  1.00  0.00     0.278 HD
ATOM      7  H12 UNL     1      31.121  15.062  15.803  1.00  0.00     0.278 HD
ENDROOT
BRANCH   1   8
HETATM    8  C1  UNL     1      30.301  12.656  17.315  1.00  0.00     0.249 C 
HETATM    9  O1  UNL     1      31.030  12.305  18.220  1.00  0.00    -0.278 OA
HETATM   10 CL1  UNL     1      29.682  11.447  16.216  1.00  0.00    -0.042 Cl
ENDBRANCH   1   8
TORSDOF 1
ENDMDL
MODEL 4
REMARK VINA RESULT: -4.242795166      1.332      1.744
REMARK  1 active torsions:
REMARK  status: ('A' for Active; 'I' for Inactive)
REMARK    1  A    between atoms: C1_2  and  C2_4 
ROOT
HETATM    1  C2  UNL     1      28.666  13.993  17.587  1.00  0.00     0.271 C 
HETATM    2  C3  UNL     1      27.889  14.023  18.884  1.00  0.00     0.044 C 
HETATM    3  C4  UNL     1      28.015  12.556  19.284  1.00  0.00     0.030 C 
HETATM    4  C5  UNL     1      29.519  12.374  19.030  1.00  0.00     0.233 C 
HETATM    5  N1  UNL     1      29.784  13.143  17.835  1.00  0.00    -0.063 N 
ATOM      6  H11 UNL     1      30.663  13.658  17.888  1.00  0.00     0.278 HD
ATOM      7  H12 UNL     1      30.015  12.555  17.034  1.00  0.00     0.278 HD
ENDROOT
BRANCH   1   8
HETATM    8  C1  UNL     1      29.030  15.343  17.121  1.00  0.00     0.249 C 
HETATM    9  O1  UNL     1      29.305  16.183  17.953  1.00  0.00    -0.278 OA
HETATM   10 CL1  UNL     1      29.084  15.784  15.431  1.00  0.00    -0.042 Cl
ENDBRANCH   1   8
TORSDOF 1
ENDMDL
MODEL 5
REMARK VINA RESULT: -4.178613033      2.456      3.565
REMARK  1 active torsions:
REMARK  status: ('A' for Active; 'I' for Inactive)
REMARK    1  A    between atoms: C1_2  and  C2_4 
ROOT
HETATM    1  C2  UNL     1      29.118  15.108  18.154  1.00  0.00     0.271 C 
HETATM    2  C3  UNL     1      28.061  15.744  17.280  1.00  0.00     0.044 C 
HETATM    3  C4  UNL     1      28.852  15.867  15.982  1.00  0.00     0.030 C 
HETATM    4  C5  UNL     1      29.456  14.456  15.943  1.00  0.00     0.233 C 
HETATM    5  N1  UNL     1      29.776  14.156  17.320  1.00  0.00    -0.063 N 
ATOM      6  H11 UNL     1      29.553  13.194  17.574  1.00  0.00     0.278 HD
ATOM      7  H12 UNL     1      30.781  14.116  17.489  1.00  0.00     0.278 HD
ENDROOT
BRANCH   1   8
HETATM    8  C1  UNL     1      28.553  14.535  19.389  1.00  0.00     0.249 C 
HETATM    9  O1  UNL     1      28.633  15.182  20.412  1.00  0.00    -0.278 OA
HETATM   10 CL1  UNL     1      27.777  12.971  19.441  1.00  0.00    -0.042 Cl
ENDBRANCH   1   8
TORSDOF 1
ENDMDL
