MODEL 1
REMARK VINA RESULT: -4.330999691      0.000      0.000
REMARK  3 active torsions:
REMARK  status: ('A' for Active; 'I' for Inactive)
REMARK    1  A    between atoms: C2_2  and  C3_3 
REMARK    2  A    between atoms: C3_3  and  N1_4 
REMARK    3  A    between atoms: C4_6  and  C5_7 
ROOT
HETATM    1  C3  UNL     1      28.757  12.853  18.043  1.00  0.00     0.046 C 
HETATM    2  C7  UNL     1      28.115  11.628  17.441  1.00  0.00     0.035 C 
HETATM    3  C8  UNL     1      27.020  11.192  18.371  1.00  0.00     0.003 C 
HETATM    4  C9  UNL     1      27.337  11.928  19.656  1.00  0.00     0.003 C 
HETATM    5  C10 UNL     1      27.765  13.285  19.125  1.00  0.00     0.035 C 
ENDROOT
BRANCH   1   6
HETATM    6  C2  UNL     1      30.055  12.538  18.689  1.00  0.00    -0.006 C 
HETATM    7  C1  UNL     1      30.915  11.759  18.061  1.00  0.00     0.009 C 
ENDBRANCH   1   6
BRANCH   1   8
HETATM    8  N1  UNL     1      28.870  13.837  17.022  1.00  0.00    -0.390 N 
HETATM    9  C4  UNL     1      28.645  15.084  17.206  1.00  0.00     0.056 C 
ATOM     10  H1  UNL     1      29.145  13.532  16.089  1.00  0.00     0.159 HD
BRANCH   9  11
HETATM   11  C5  UNL     1      28.786  16.048  16.082  1.00  0.00     0.039 C 
HETATM   12  C6  UNL     1      29.411  15.401  14.865  1.00  0.00     0.010 C 
ENDBRANCH   9  11
ENDBRANCH   1   8
TORSDOF 3
ENDMDL
MODEL 2
REMARK VINA RESULT: -4.273105382      1.398      4.217
REMARK  3 active torsions:
REMARK  status: ('A' for Active; 'I' for Inactive)
REMARK    1  A    between atoms: C2_2  and  C3_3 
REMARK    2  A    between atoms: C3_3  and  N1_4 
REMARK    3  A    between atoms: C4_6  and  C5_7 
ROOT
HETATM    1  C3  UNL     1      28.561  12.968  18.199  1.00  0.00     0.046 C 
HETATM    2  C7  UNL     1      27.891  14.153  18.850  1.00  0.00     0.035 C 
HETATM    3  C8  UNL     1      28.263  15.372  18.055  1.00  0.00     0.003 C 
HETATM    4  C9  UNL     1      29.446  14.906  17.232  1.00  0.00     0.003 C 
HETATM    5  C10 UNL     1      29.004  13.508  16.837  1.00  0.00     0.035 C 
ENDROOT
BRANCH   1   6
HETATM    6  C2  UNL     1      29.763  12.530  18.949  1.00  0.00    -0.006 C 
HETATM    7  C1  UNL     1      30.557  11.618  18.419  1.00  0.00     0.009 C 
ENDBRANCH   1   6
BRANCH   1   8
HETATM    8  N1  UNL     1      27.590  11.939  18.055  1.00  0.00    -0.390 N 
HETATM    9  C4  UNL     1      26.861  11.507  19.015  1.00  0.00     0.056 C 
ATOM     10  H1  UNL     1      27.467  11.519  17.134  1.00  0.00     0.159 HD
BRANCH   9  11
HETATM   11  C5  UNL     1      25.868  10.425  18.779  1.00  0.00     0.039 C 
HETATM   12  C6  UNL     1      24.635  10.600  19.638  1.00  0.00     0.010 C 
ENDBRANCH   9  11
ENDBRANCH   1   8
TORSDOF 3
ENDMDL
MODEL 3
REMARK VINA RESULT: -4.267401488      2.327      4.933
REMARK  3 active torsions:
REMARK  status: ('A' for Active; 'I' for Inactive)
REMARK    1  A    between atoms: C2_2  and  C3_3 
REMARK    2  A    between atoms: C3_3  and  N1_4 
REMARK    3  A    between atoms: C4_6  and  C5_7 
ROOT
HETATM    1  C3  UNL     1      27.566  11.888  19.097  1.00  0.00     0.046 C 
HETATM    2  C7  UNL     1      27.865  13.364  19.000  1.00  0.00     0.035 C 
HETATM    3  C8  UNL     1      28.518  13.603  17.668  1.00  0.00     0.003 C 
HETATM    4  C9  UNL     1      28.935  12.215  17.228  1.00  0.00     0.003 C 
HETATM    5  C10 UNL     1      27.734  11.391  17.660  1.00  0.00     0.035 C 
ENDROOT
BRANCH   1   6
HETATM    6  C2  UNL     1      28.541  11.180  19.961  1.00  0.00    -0.006 C 
HETATM    7  C1  UNL     1      28.900  11.725  21.109  1.00  0.00     0.009 C 
ENDBRANCH   1   6
BRANCH   1   8
HETATM    8  N1  UNL     1      26.222  11.741  19.540  1.00  0.00    -0.390 N 
HETATM    9  C4  UNL     1      25.510  10.699  19.325  1.00  0.00     0.056 C 
ATOM     10  H1  UNL     1      25.800  12.511  20.059  1.00  0.00     0.159 HD
BRANCH   9  11
HETATM   11  C5  UNL     1      24.111  10.627  19.825  1.00  0.00     0.039 C 
HETATM   12  C6  UNL     1      23.841   9.324  20.546  1.00  0.00     0.010 C 
ENDBRANCH   9  11
ENDBRANCH   1   8
TORSDOF 3
ENDMDL
MODEL 4
REMARK VINA RESULT: -4.258575153      0.864      1.003
REMARK  3 active torsions:
REMARK  status: ('A' for Active; 'I' for Inactive)
REMARK    1  A    between atoms: C2_2  and  C3_3 
REMARK    2  A    between atoms: C3_3  and  N1_4 
REMARK    3  A    between atoms: C4_6  and  C5_7 
ROOT
HETATM    1  C3  UNL     1      29.117  12.776  18.005  1.00  0.00     0.046 C 
HETATM    2  C7  UNL     1      27.872  11.927  18.076  1.00  0.00     0.035 C 
HETATM    3  C8  UNL     1      27.496  11.802  19.525  1.00  0.00     0.003 C 
HETATM    4  C9  UNL     1      28.752  12.235  20.252  1.00  0.00     0.003 C 
HETATM    5  C10 UNL     1      29.204  13.406  19.397  1.00  0.00     0.035 C 
ENDROOT
BRANCH   1   6
HETATM    6  C2  UNL     1      30.334  11.958  17.778  1.00  0.00    -0.006 C 
HETATM    7  C1  UNL     1      30.403  11.189  16.708  1.00  0.00     0.009 C 
ENDBRANCH   1   6
BRANCH   1   8
HETATM    8  N1  UNL     1      28.918  13.765  17.002  1.00  0.00    -0.390 N 
HETATM    9  C4  UNL     1      29.011  15.024  17.213  1.00  0.00     0.056 C 
ATOM     10  H1  UNL     1      28.687  13.453  16.059  1.00  0.00     0.159 HD
BRANCH   9  11
HETATM   11  C5  UNL     1      28.788  15.992  16.106  1.00  0.00     0.039 C 
HETATM   12  C6  UNL     1      29.386  15.503  14.806  1.00  0.00     0.010 C 
ENDBRANCH   9  11
ENDBRANCH   1   8
TORSDOF 3
ENDMDL
MODEL 5
REMARK VINA RESULT: -4.252311645      1.315      4.019
REMARK  3 active torsions:
REMARK  status: ('A' for Active; 'I' for Inactive)
REMARK    1  A    between atoms: C2_2  and  C3_3 
REMARK    2  A    between atoms: C3_3  and  N1_4 
REMARK    3  A    between atoms: C4_6  and  C5_7 
ROOT
HETATM    1  C3  UNL     1      28.831  12.948  17.765  1.00  0.00     0.046 C 
HETATM    2  C7  UNL     1      27.860  13.742  18.605  1.00  0.00     0.035 C 
HETATM    3  C8  UNL     1      27.982  15.181  18.192  1.00  0.00     0.003 C 
HETATM    4  C9  UNL     1      29.291  15.218  17.430  1.00  0.00     0.003 C 
HETATM    5  C10 UNL     1      29.218  13.918  16.647  1.00  0.00     0.035 C 
ENDROOT
BRANCH   1   6
HETATM    6  C2  UNL     1      30.053  12.587  18.524  1.00  0.00    -0.006 C 
HETATM    7  C1  UNL     1      30.950  11.798  17.963  1.00  0.00     0.009 C 
ENDBRANCH   1   6
BRANCH   1   8
HETATM    8  N1  UNL     1      28.142  11.815  17.251  1.00  0.00    -0.390 N 
HETATM    9  C4  UNL     1      27.298  11.127  17.924  1.00  0.00     0.056 C 
ATOM     10  H1  UNL     1      28.331  11.534  16.289  1.00  0.00     0.159 HD
BRANCH   9  11
HETATM   11  C5  UNL     1      26.621   9.954  17.309  1.00  0.00     0.039 C 
HETATM   12  C6  UNL     1      25.364   9.576  18.060  1.00  0.00     0.010 C 
ENDBRANCH   9  11
ENDBRANCH   1   8
TORSDOF 3
ENDMDL
