MODEL 1
REMARK VINA RESULT: -3.872262322      0.000      0.000
REMARK  3 active torsions:
REMARK  status: ('A' for Active; 'I' for Inactive)
REMARK    1  A    between atoms: N1_2  and  C4_5 
REMARK    2  A    between atoms: C4_5  and  C5_6 
REMARK    3  A    between atoms: C6_7  and  C7_8 
ROOT
HETATM    1  C4  UNL     1      28.031  12.490  17.995  1.00  0.00     0.263 C 
ENDROOT
BRANCH   1   2
HETATM    2  N1  UNL     1      28.741  13.690  18.379  1.00  0.00    -0.075 N 
HETATM    3  C1  UNL     1      27.922  14.866  18.329  1.00  0.00     0.272 C 
HETATM    4  C2  UNL     1      29.897  13.904  17.532  1.00  0.00     0.272 C 
HETATM    5  C3  UNL     1      29.202  13.468  19.757  1.00  0.00     0.272 C 
ENDBRANCH   1   2
BRANCH   1   6
HETATM    6  C5  UNL     1      27.202  11.936  19.068  1.00  0.00    -0.003 C 
HETATM    7  C6  UNL     1      26.313  10.994  18.809  1.00  0.00    -0.024 C 
BRANCH   7   8
HETATM    8  C7  UNL     1      25.433  10.379  19.835  1.00  0.00     0.008 A 
HETATM    9  C8  UNL     1      24.499   9.327  19.276  1.00  0.00     0.009 A 
HETATM   10  C9  UNL     1      23.976  10.630  19.843  1.00  0.00     0.009 A 
ENDBRANCH   7   8
ENDBRANCH   1   6
TORSDOF 3
ENDMDL
MODEL 2
REMARK VINA RESULT: -3.842742475      0.152      1.243
REMARK  3 active torsions:
REMARK  status: ('A' for Active; 'I' for Inactive)
REMARK    1  A    between atoms: N1_2  and  C4_5 
REMARK    2  A    between atoms: C4_5  and  C5_6 
REMARK    3  A    between atoms: C6_7  and  C7_8 
ROOT
HETATM    1  C4  UNL     1      28.041  12.429  17.982  1.00  0.00     0.263 C 
ENDROOT
BRANCH   1   2
HETATM    2  N1  UNL     1      28.797  13.599  18.372  1.00  0.00    -0.075 N 
HETATM    3  C1  UNL     1      29.170  13.590  19.757  1.00  0.00     0.272 C 
HETATM    4  C2  UNL     1      28.048  14.812  18.110  1.00  0.00     0.272 C 
HETATM    5  C3  UNL     1      30.004  13.601  17.535  1.00  0.00     0.272 C 
ENDBRANCH   1   2
BRANCH   1   6
HETATM    6  C5  UNL     1      27.166  11.922  19.043  1.00  0.00    -0.003 C 
HETATM    7  C6  UNL     1      26.380  10.883  18.823  1.00  0.00    -0.024 C 
BRANCH   7   8
HETATM    8  C7  UNL     1      25.465  10.306  19.840  1.00  0.00     0.008 A 
HETATM    9  C8  UNL     1      24.488   9.300  19.270  1.00  0.00     0.009 A 
HETATM   10  C9  UNL     1      24.021  10.623  19.838  1.00  0.00     0.009 A 
ENDBRANCH   7   8
ENDBRANCH   1   6
TORSDOF 3
ENDMDL
MODEL 3
REMARK VINA RESULT: -3.829290541      0.106      1.324
REMARK  3 active torsions:
REMARK  status: ('A' for Active; 'I' for Inactive)
REMARK    1  A    between atoms: N1_2  and  C4_5 
REMARK    2  A    between atoms: C4_5  and  C5_6 
REMARK    3  A    between atoms: C6_7  and  C7_8 
ROOT
HETATM    1  C4  UNL     1      27.983  12.458  17.983  1.00  0.00     0.263 C 
ENDROOT
BRANCH   1   2
HETATM    2  N1  UNL     1      28.800  13.586  18.375  1.00  0.00    -0.075 N 
HETATM    3  C1  UNL     1      29.988  13.720  17.584  1.00  0.00     0.272 C 
HETATM    4  C2  UNL     1      29.190  13.485  19.768  1.00  0.00     0.272 C 
HETATM    5  C3  UNL     1      27.957  14.777  18.208  1.00  0.00     0.272 C 
ENDBRANCH   1   2
BRANCH   1   6
HETATM    6  C5  UNL     1      27.140  11.946  19.066  1.00  0.00    -0.003 C 
HETATM    7  C6  UNL     1      26.312  10.939  18.852  1.00  0.00    -0.024 C 
BRANCH   7   8
HETATM    8  C7  UNL     1      25.425  10.360  19.892  1.00  0.00     0.008 A 
HETATM    9  C8  UNL     1      24.507   9.277  19.366  1.00  0.00     0.009 A 
HETATM   10  C9  UNL     1      23.965  10.597  19.871  1.00  0.00     0.009 A 
ENDBRANCH   7   8
ENDBRANCH   1   6
TORSDOF 3
ENDMDL
MODEL 4
REMARK VINA RESULT: -3.629425131      1.967      4.975
REMARK  3 active torsions:
REMARK  status: ('A' for Active; 'I' for Inactive)
REMARK    1  A    between atoms: N1_2  and  C4_5 
REMARK    2  A    between atoms: C4_5  and  C5_6 
REMARK    3  A    between atoms: C6_7  and  C7_8 
ROOT
HETATM    1  C4  UNL     1      28.995  12.192  19.986  1.00  0.00     0.263 C 
ENDROOT
BRANCH   1   2
HETATM    2  N1  UNL     1      28.088  11.190  19.471  1.00  0.00    -0.075 N 
HETATM    3  C1  UNL     1      28.070  11.134  18.038  1.00  0.00     0.272 C 
HETATM    4  C2  UNL     1      26.735  11.426  19.934  1.00  0.00     0.272 C 
HETATM    5  C3  UNL     1      28.552   9.905  20.010  1.00  0.00     0.272 C 
ENDBRANCH   1   2
BRANCH   1   6
HETATM    6  C5  UNL     1      29.333  13.229  19.008  1.00  0.00    -0.003 C 
HETATM    7  C6  UNL     1      28.826  14.444  19.117  1.00  0.00    -0.024 C 
BRANCH   7   8
HETATM    8  C7  UNL     1      29.115  15.551  18.171  1.00  0.00     0.008 A 
HETATM    9  C8  UNL     1      27.915  15.970  17.348  1.00  0.00     0.009 A 
HETATM   10  C9  UNL     1      29.128  15.326  16.710  1.00  0.00     0.009 A 
ENDBRANCH   7   8
ENDBRANCH   1   6
TORSDOF 3
ENDMDL
MODEL 5
REMARK VINA RESULT: -3.621910487      2.003      4.972
REMARK  3 active torsions:
REMARK  status: ('A' for Active; 'I' for Inactive)
REMARK    1  A    between atoms: N1_2  and  C4_5 
REMARK    2  A    between atoms: C4_5  and  C5_6 
REMARK    3  A    between atoms: C6_7  and  C7_8 
ROOT
HETATM    1  C4  UNL     1      28.969  12.241  20.086  1.00  0.00     0.263 C 
ENDROOT
BRANCH   1   2
HETATM    2  N1  UNL     1      28.173  11.152  19.563  1.00  0.00    -0.075 N 
HETATM    3  C1  UNL     1      28.582   9.870  20.058  1.00  0.00     0.272 C 
HETATM    4  C2  UNL     1      28.225  11.120  18.115  1.00  0.00     0.272 C 
HETATM    5  C3  UNL     1      26.790  11.424  19.978  1.00  0.00     0.272 C 
ENDBRANCH   1   2
BRANCH   1   6
HETATM    6  C5  UNL     1      29.307  13.249  19.079  1.00  0.00    -0.003 C 
HETATM    7  C6  UNL     1      28.812  14.471  19.163  1.00  0.00    -0.024 C 
BRANCH   7   8
HETATM    8  C7  UNL     1      29.103  15.552  18.187  1.00  0.00     0.008 A 
HETATM    9  C8  UNL     1      27.896  15.970  17.373  1.00  0.00     0.009 A 
HETATM   10  C9  UNL     1      29.089  15.293  16.731  1.00  0.00     0.009 A 
ENDBRANCH   7   8
ENDBRANCH   1   6
TORSDOF 3
ENDMDL
