MODEL 1
REMARK VINA RESULT: -4.603976424      0.000      0.000
REMARK  4 active torsions:
REMARK  status: ('A' for Active; 'I' for Inactive)
REMARK    1  A    between atoms: C2_2  and  C3_3 
REMARK    2  A    between atoms: C2_2  and  C8_9 
REMARK    3  A    between atoms: C4_4  and  N1_5 
REMARK    4  A    between atoms: C8_9  and  C9_10 
ROOT
HETATM    1  C1  UNL     1      28.948  15.561  18.512  1.00  0.00     0.014 C 
HETATM    2  C2  UNL     1      28.510  14.615  17.414  1.00  0.00     0.010 C 
ENDROOT
BRANCH   2   3
HETATM    3  C3  UNL     1      28.459  13.248  18.035  1.00  0.00     0.003 C 
HETATM    4  C4  UNL     1      27.811  12.982  19.134  1.00  0.00     0.197 C 
BRANCH   4   5
HETATM    5  N1  UNL     1      27.829  11.649  19.635  1.00  0.00    -0.059 N 
HETATM    6  C5  UNL     1      28.642  11.616  20.841  1.00  0.00     0.277 C 
HETATM    7  C6  UNL     1      26.458  11.272  19.959  1.00  0.00     0.277 C 
HETATM    8  C7  UNL     1      28.333  10.690  18.702  1.00  0.00     0.277 C 
ENDBRANCH   4   5
ENDBRANCH   2   3
BRANCH   2   9
HETATM    9  C8  UNL     1      29.575  14.567  16.353  1.00  0.00     0.052 C 
BRANCH   9  10
HETATM   10  C9  UNL     1      29.267  15.390  15.182  1.00  0.00     0.053 C 
HETATM   11  N2  UNL     1      29.526  16.640  15.138  1.00  0.00    -0.411 N 
ATOM     12  H22 UNL     1      29.961  17.065  15.957  1.00  0.00     0.155 HD
ATOM     13  H21 UNL     1      29.311  17.214  14.322  1.00  0.00     0.155 HD
ENDBRANCH   9  10
ENDBRANCH   2   9
TORSDOF 4
ENDMDL
MODEL 2
REMARK VINA RESULT: -4.598482010      0.078      1.238
REMARK  4 active torsions:
REMARK  status: ('A' for Active; 'I' for Inactive)
REMARK    1  A    between atoms: C2_2  and  C3_3 
REMARK    2  A    between atoms: C2_2  and  C8_9 
REMARK    3  A    between atoms: C4_4  and  N1_5 
REMARK    4  A    between atoms: C8_9  and  C9_10 
ROOT
HETATM    1  C1  UNL     1      28.957  15.582  18.521  1.00  0.00     0.014 C 
HETATM    2  C2  UNL     1      28.495  14.641  17.429  1.00  0.00     0.010 C 
ENDROOT
BRANCH   2   3
HETATM    3  C3  UNL     1      28.424  13.277  18.054  1.00  0.00     0.003 C 
HETATM    4  C4  UNL     1      27.757  13.020  19.144  1.00  0.00     0.197 C 
BRANCH   4   5
HETATM    5  N1  UNL     1      27.756  11.689  19.651  1.00  0.00    -0.059 N 
HETATM    6  C5  UNL     1      26.382  11.294  19.917  1.00  0.00     0.277 C 
HETATM    7  C6  UNL     1      28.328  10.819  18.631  1.00  0.00     0.277 C 
HETATM    8  C7  UNL     1      28.531  11.527  20.842  1.00  0.00     0.277 C 
ENDBRANCH   4   5
ENDBRANCH   2   3
BRANCH   2   9
HETATM    9  C8  UNL     1      29.553  14.571  16.362  1.00  0.00     0.052 C 
BRANCH   9  10
HETATM   10  C9  UNL     1      29.255  15.399  15.192  1.00  0.00     0.053 C 
HETATM   11  N2  UNL     1      29.516  16.650  15.156  1.00  0.00    -0.411 N 
ATOM     12  H22 UNL     1      29.947  17.070  15.980  1.00  0.00     0.155 HD
ATOM     13  H21 UNL     1      29.309  17.227  14.342  1.00  0.00     0.155 HD
ENDBRANCH   9  10
ENDBRANCH   2   9
TORSDOF 4
ENDMDL
MODEL 3
REMARK VINA RESULT: -4.565656722      0.883      1.574
REMARK  4 active torsions:
REMARK  status: ('A' for Active; 'I' for Inactive)
REMARK    1  A    between atoms: C2_2  and  C3_3 
REMARK    2  A    between atoms: C2_2  and  C8_9 
REMARK    3  A    between atoms: C4_4  and  N1_5 
REMARK    4  A    between atoms: C8_9  and  C9_10 
ROOT
HETATM    1  C1  UNL     1      29.055  15.625  18.449  1.00  0.00     0.014 C 
HETATM    2  C2  UNL     1      28.570  14.839  17.249  1.00  0.00     0.010 C 
ENDROOT
BRANCH   2   3
HETATM    3  C3  UNL     1      28.444  13.414  17.707  1.00  0.00     0.003 C 
HETATM    4  C4  UNL     1      27.805  13.059  18.785  1.00  0.00     0.197 C 
BRANCH   4   5
HETATM    5  N1  UNL     1      27.747  11.677  19.126  1.00  0.00    -0.059 N 
HETATM    6  C5  UNL     1      27.222  10.939  17.988  1.00  0.00     0.277 C 
HETATM    7  C6  UNL     1      29.103  11.228  19.418  1.00  0.00     0.277 C 
HETATM    8  C7  UNL     1      26.942  11.402  20.276  1.00  0.00     0.277 C 
ENDBRANCH   4   5
ENDBRANCH   2   3
BRANCH   2   9
HETATM    9  C8  UNL     1      29.634  14.858  16.187  1.00  0.00     0.052 C 
BRANCH   9  10
HETATM   10  C9  UNL     1      29.268  15.649  15.011  1.00  0.00     0.053 C 
HETATM   11  N2  UNL     1      29.546  15.274  13.821  1.00  0.00    -0.411 N 
ATOM     12  H22 UNL     1      30.040  14.389  13.705  1.00  0.00     0.155 HD
ATOM     13  H21 UNL     1      29.291  15.825  13.001  1.00  0.00     0.155 HD
ENDBRANCH   9  10
ENDBRANCH   2   9
TORSDOF 4
ENDMDL
MODEL 4
REMARK VINA RESULT: -4.468817768      1.567      2.296
REMARK  4 active torsions:
REMARK  status: ('A' for Active; 'I' for Inactive)
REMARK    1  A    between atoms: C2_2  and  C3_3 
REMARK    2  A    between atoms: C2_2  and  C8_9 
REMARK    3  A    between atoms: C4_4  and  N1_5 
REMARK    4  A    between atoms: C8_9  and  C9_10 
ROOT
HETATM    1  C1  UNL     1      29.362  14.965  15.699  1.00  0.00     0.014 C 
HETATM    2  C2  UNL     1      29.204  15.058  17.202  1.00  0.00     0.010 C 
ENDROOT
BRANCH   2   3
HETATM    3  C3  UNL     1      28.969  13.655  17.685  1.00  0.00     0.003 C 
HETATM    4  C4  UNL     1      28.060  13.341  18.565  1.00  0.00     0.197 C 
BRANCH   4   5
HETATM    5  N1  UNL     1      27.922  11.977  18.953  1.00  0.00    -0.059 N 
HETATM    6  C5  UNL     1      27.513  11.203  17.792  1.00  0.00     0.277 C 
HETATM    7  C6  UNL     1      29.222  11.509  19.421  1.00  0.00     0.277 C 
HETATM    8  C7  UNL     1      26.982  11.773  20.010  1.00  0.00     0.277 C 
ENDBRANCH   4   5
ENDBRANCH   2   3
BRANCH   2   9
HETATM    9  C8  UNL     1      27.956  15.837  17.517  1.00  0.00     0.052 C 
BRANCH   9  10
HETATM   10  C9  UNL     1      27.603  16.814  16.485  1.00  0.00     0.053 C 
HETATM   11  N2  UNL     1      26.542  17.523  16.549  1.00  0.00    -0.411 N 
ATOM     12  H22 UNL     1      25.930  17.391  17.355  1.00  0.00     0.155 HD
ATOM     13  H21 UNL     1      26.296  18.203  15.831  1.00  0.00     0.155 HD
ENDBRANCH   9  10
ENDBRANCH   2   9
TORSDOF 4
ENDMDL
MODEL 5
REMARK VINA RESULT: -4.459683270      0.730      1.389
REMARK  4 active torsions:
REMARK  status: ('A' for Active; 'I' for Inactive)
REMARK    1  A    between atoms: C2_2  and  C3_3 
REMARK    2  A    between atoms: C2_2  and  C8_9 
REMARK    3  A    between atoms: C4_4  and  N1_5 
REMARK    4  A    between atoms: C8_9  and  C9_10 
ROOT
HETATM    1  C1  UNL     1      28.977  15.610  18.694  1.00  0.00     0.014 C 
HETATM    2  C2  UNL     1      28.333  14.686  17.683  1.00  0.00     0.010 C 
ENDROOT
BRANCH   2   3
HETATM    3  C3  UNL     1      28.090  13.388  18.399  1.00  0.00     0.003 C 
HETATM    4  C4  UNL     1      28.751  13.017  19.459  1.00  0.00     0.197 C 
BRANCH   4   5
HETATM    5  N1  UNL     1      28.438  11.764  20.059  1.00  0.00    -0.059 N 
HETATM    6  C5  UNL     1      29.016  10.703  19.250  1.00  0.00     0.277 C 
HETATM    7  C6  UNL     1      29.032  11.743  21.391  1.00  0.00     0.277 C 
HETATM    8  C7  UNL     1      27.035  11.531  20.207  1.00  0.00     0.277 C 
ENDBRANCH   4   5
ENDBRANCH   2   3
BRANCH   2   9
HETATM    9  C8  UNL     1      29.320  14.395  16.586  1.00  0.00     0.052 C 
BRANCH   9  10
HETATM   10  C9  UNL     1      29.250  15.344  15.473  1.00  0.00     0.053 C 
HETATM   11  N2  UNL     1      30.229  15.532  14.673  1.00  0.00    -0.411 N 
ATOM     12  H22 UNL     1      31.082  14.994  14.830  1.00  0.00     0.155 HD
ATOM     13  H21 UNL     1      30.181  16.193  13.898  1.00  0.00     0.155 HD
ENDBRANCH   9  10
ENDBRANCH   2   9
TORSDOF 4
ENDMDL
