MODEL 1
REMARK VINA RESULT: -4.951531187      0.000      0.000
REMARK  3 active torsions:
REMARK  status: ('A' for Active; 'I' for Inactive)
REMARK    1  A    between atoms: C5_5  and  C6_6 
REMARK    2  A    between atoms: C6_6  and  C7_7 
REMARK    3  A    between atoms: C7_7  and  N1_8 
REMARK       I    between atoms: N1_8  and  C8_10 
ROOT
HETATM    1  C1  UNL     1      29.241  15.632  14.846  1.00  0.00     0.012 C 
HETATM    2  C2  UNL     1      29.225  15.503  16.055  1.00  0.00    -0.112 C 
HETATM    3  C3  UNL     1      29.206  15.347  17.504  1.00  0.00     0.068 A 
HETATM    4  C4  UNL     1      27.807  15.299  18.116  1.00  0.00     0.023 A 
HETATM    5  C5  UNL     1      28.690  14.082  18.095  1.00  0.00     0.004 A 
ENDROOT
BRANCH   5   6
HETATM    6  C6  UNL     1      29.180  13.630  19.450  1.00  0.00     0.025 C 
BRANCH   6   7
HETATM    7  C7  UNL     1      29.213  12.130  19.567  1.00  0.00     0.123 C 
BRANCH   7   8
HETATM    8  N1  UNL     1      27.921  11.597  19.246  1.00  0.00    -0.361 N 
HETATM    9  C8  UNL     1      26.868  11.354  20.154  1.00  0.00     0.213 C 
HETATM   10  C9  UNL     1      25.557  10.790  19.709  1.00  0.00     0.117 C 
HETATM   11  O1  UNL     1      26.970  11.596  21.388  1.00  0.00    -0.274 OA
ATOM     12  H1  UNL     1      27.745  11.372  18.267  1.00  0.00     0.162 HD
ENDBRANCH   7   8
ENDBRANCH   6   7
ENDBRANCH   5   6
TORSDOF 3
ENDMDL
MODEL 2
REMARK VINA RESULT: -4.845593827      0.929      1.015
REMARK  3 active torsions:
REMARK  status: ('A' for Active; 'I' for Inactive)
REMARK    1  A    between atoms: C5_5  and  C6_6 
REMARK    2  A    between atoms: C6_6  and  C7_7 
REMARK    3  A    between atoms: C7_7  and  N1_8 
REMARK       I    between atoms: N1_8  and  C8_10 
ROOT
HETATM    1  C1  UNL     1      29.261  15.653  14.711  1.00  0.00     0.012 C 
HETATM    2  C2  UNL     1      29.245  15.227  15.851  1.00  0.00    -0.112 C 
HETATM    3  C3  UNL     1      29.224  14.717  17.215  1.00  0.00     0.068 A 
HETATM    4  C4  UNL     1      29.146  15.797  18.293  1.00  0.00     0.023 A 
HETATM    5  C5  UNL     1      27.991  14.870  18.033  1.00  0.00     0.004 A 
ENDROOT
BRANCH   5   6
HETATM    6  C6  UNL     1      27.699  13.892  19.147  1.00  0.00     0.025 C 
BRANCH   6   7
HETATM    7  C7  UNL     1      27.970  12.469  18.735  1.00  0.00     0.123 C 
BRANCH   7   8
HETATM    8  N1  UNL     1      26.761  11.704  18.840  1.00  0.00    -0.361 N 
HETATM    9  C8  UNL     1      26.200  11.186  20.027  1.00  0.00     0.213 C 
HETATM   10  C9  UNL     1      24.932  10.395  20.021  1.00  0.00     0.117 C 
HETATM   11  O1  UNL     1      26.732  11.359  21.157  1.00  0.00    -0.274 OA
ATOM     12  H1  UNL     1      26.258  11.515  17.973  1.00  0.00     0.162 HD
ENDBRANCH   7   8
ENDBRANCH   6   7
ENDBRANCH   5   6
TORSDOF 3
ENDMDL
MODEL 3
REMARK VINA RESULT: -4.840397985      2.921      5.262
REMARK  3 active torsions:
REMARK  status: ('A' for Active; 'I' for Inactive)
REMARK    1  A    between atoms: C5_5  and  C6_6 
REMARK    2  A    between atoms: C6_6  and  C7_7 
REMARK    3  A    between atoms: C7_7  and  N1_8 
REMARK       I    between atoms: N1_8  and  C8_10 
ROOT
HETATM    1  C1  UNL     1      26.726  10.048  17.691  1.00  0.00     0.012 C 
HETATM    2  C2  UNL     1      27.001  11.054  18.317  1.00  0.00    -0.112 C 
HETATM    3  C3  UNL     1      27.332  12.259  19.066  1.00  0.00     0.068 A 
HETATM    4  C4  UNL     1      28.824  12.448  19.335  1.00  0.00     0.023 A 
HETATM    5  C5  UNL     1      28.081  13.354  18.392  1.00  0.00     0.004 A 
ENDROOT
BRANCH   5   6
HETATM    6  C6  UNL     1      27.926  14.778  18.871  1.00  0.00     0.025 C 
BRANCH   6   7
HETATM    7  C7  UNL     1      29.092  15.641  18.465  1.00  0.00     0.123 C 
BRANCH   7   8
HETATM    8  N1  UNL     1      29.456  15.345  17.110  1.00  0.00    -0.361 N 
HETATM    9  C8  UNL     1      28.920  15.945  15.950  1.00  0.00     0.213 C 
HETATM   10  C9  UNL     1      29.372  15.556  14.580  1.00  0.00     0.117 C 
HETATM   11  O1  UNL     1      28.033  16.840  16.001  1.00  0.00    -0.274 OA
ATOM     12  H1  UNL     1      30.171  14.632  16.970  1.00  0.00     0.162 HD
ENDBRANCH   7   8
ENDBRANCH   6   7
ENDBRANCH   5   6
TORSDOF 3
ENDMDL
MODEL 4
REMARK VINA RESULT: -4.752219375      1.577      1.684
REMARK  3 active torsions:
REMARK  status: ('A' for Active; 'I' for Inactive)
REMARK    1  A    between atoms: C5_5  and  C6_6 
REMARK    2  A    between atoms: C6_6  and  C7_7 
REMARK    3  A    between atoms: C7_7  and  N1_8 
REMARK       I    between atoms: N1_8  and  C8_10 
ROOT
HETATM    1  C1  UNL     1      29.275  15.633  14.902  1.00  0.00     0.012 C 
HETATM    2  C2  UNL     1      29.328  15.173  16.027  1.00  0.00    -0.112 C 
HETATM    3  C3  UNL     1      29.391  14.623  17.375  1.00  0.00     0.068 A 
HETATM    4  C4  UNL     1      28.980  15.598  18.476  1.00  0.00     0.023 A 
HETATM    5  C5  UNL     1      28.129  14.406  18.134  1.00  0.00     0.004 A 
ENDROOT
BRANCH   5   6
HETATM    6  C6  UNL     1      28.067  13.342  19.204  1.00  0.00     0.025 C 
BRANCH   6   7
HETATM    7  C7  UNL     1      27.489  12.052  18.686  1.00  0.00     0.123 C 
BRANCH   7   8
HETATM    8  N1  UNL     1      26.283  11.749  19.400  1.00  0.00    -0.361 N 
HETATM    9  C8  UNL     1      25.410  10.669  19.146  1.00  0.00     0.213 C 
HETATM   10  C9  UNL     1      24.172  10.448  19.955  1.00  0.00     0.117 C 
HETATM   11  O1  UNL     1      25.621   9.832  18.227  1.00  0.00    -0.274 OA
ATOM     12  H1  UNL     1      26.031  12.373  20.166  1.00  0.00     0.162 HD
ENDBRANCH   7   8
ENDBRANCH   6   7
ENDBRANCH   5   6
TORSDOF 3
ENDMDL
MODEL 5
REMARK VINA RESULT: -4.742001525      2.505      5.403
REMARK  3 active torsions:
REMARK  status: ('A' for Active; 'I' for Inactive)
REMARK    1  A    between atoms: C5_5  and  C6_6 
REMARK    2  A    between atoms: C6_6  and  C7_7 
REMARK    3  A    between atoms: C7_7  and  N1_8 
REMARK       I    between atoms: N1_8  and  C8_10 
ROOT
HETATM    1  C1  UNL     1      24.391  10.534  19.644  1.00  0.00     0.012 C 
HETATM    2  C2  UNL     1      25.579  10.764  19.517  1.00  0.00    -0.112 C 
HETATM    3  C3  UNL     1      27.001  11.041  19.365  1.00  0.00     0.068 A 
HETATM    4  C4  UNL     1      27.461  11.213  17.919  1.00  0.00     0.023 A 
HETATM    5  C5  UNL     1      27.436  12.376  18.872  1.00  0.00     0.004 A 
ENDROOT
BRANCH   5   6
HETATM    6  C6  UNL     1      28.795  12.913  19.253  1.00  0.00     0.025 C 
BRANCH   6   7
HETATM    7  C7  UNL     1      28.932  14.379  18.940  1.00  0.00     0.123 C 
BRANCH   7   8
HETATM    8  N1  UNL     1      29.300  14.541  17.563  1.00  0.00    -0.361 N 
HETATM    9  C8  UNL     1      28.794  15.510  16.670  1.00  0.00     0.213 C 
HETATM   10  C9  UNL     1      29.248  15.586  15.248  1.00  0.00     0.117 C 
HETATM   11  O1  UNL     1      27.934  16.365  17.017  1.00  0.00    -0.274 OA
ATOM     12  H1  UNL     1      29.995  13.892  17.193  1.00  0.00     0.162 HD
ENDBRANCH   7   8
ENDBRANCH   6   7
ENDBRANCH   5   6
TORSDOF 3
ENDMDL
