MODEL 1
REMARK VINA RESULT: -5.098749806      0.000      0.000
REMARK  3 active torsions:
REMARK  status: ('A' for Active; 'I' for Inactive)
REMARK    1  A    between atoms: C3_3  and  C4_4 
REMARK    2  A    between atoms: C4_4  and  N1_5 
REMARK    3  A    between atoms: N1_5  and  C5_8 
ROOT
HETATM    1  N1  UNL     1      77.433  54.241  33.527  1.00  0.00    -0.070 N 
ATOM      2  H11 UNL     1      76.604  54.420  32.961  1.00  0.00     0.277 HD
ATOM      3  H12 UNL     1      78.021  53.855  32.789  1.00  0.00     0.277 HD
ENDROOT
BRANCH   1   4
HETATM    4  C4  UNL     1      77.191  53.313  34.583  1.00  0.00     0.237 C 
BRANCH   4   5
HETATM    5  C3  UNL     1      78.401  52.807  35.288  1.00  0.00     0.011 A 
HETATM    6  C1  UNL     1      79.262  51.773  34.630  1.00  0.00     0.007 A 
HETATM    7  C2  UNL     1      78.490  51.463  35.877  1.00  0.00     0.007 A 
ENDBRANCH   4   5
ENDBRANCH   1   4
BRANCH   1   8
HETATM    8  C5  UNL     1      77.979  55.436  34.104  1.00  0.00     0.194 C 
HETATM    9  C6  UNL     1      78.997  56.214  33.372  1.00  0.00     0.017 C 
HETATM   10  C7  UNL     1      79.155  57.468  34.209  1.00  0.00     0.007 C 
HETATM   11  C10 UNL     1      77.865  56.680  32.455  1.00  0.00     0.013 C 
HETATM   12  C8  UNL     1      77.673  57.696  34.567  1.00  0.00     0.007 C 
HETATM   13  C9  UNL     1      77.060  56.629  33.732  1.00  0.00     0.017 C 
ENDBRANCH   1   8
TORSDOF 3
ENDMDL
MODEL 2
REMARK VINA RESULT: -5.097069726      2.558      3.817
REMARK  3 active torsions:
REMARK  status: ('A' for Active; 'I' for Inactive)
REMARK    1  A    between atoms: C3_3  and  C4_4 
REMARK    2  A    between atoms: C4_4  and  N1_5 
REMARK    3  A    between atoms: N1_5  and  C5_8 
ROOT
HETATM    1  N1  UNL     1      76.561  54.382  34.426  1.00  0.00    -0.070 N 
ATOM      2  H11 UNL     1      76.631  55.341  34.087  1.00  0.00     0.277 HD
ATOM      3  H12 UNL     1      76.631  54.584  35.422  1.00  0.00     0.277 HD
ENDROOT
BRANCH   1   4
HETATM    4  C4  UNL     1      77.622  53.552  33.955  1.00  0.00     0.237 C 
BRANCH   4   5
HETATM    5  C3  UNL     1      78.494  52.960  35.007  1.00  0.00     0.011 A 
HETATM    6  C1  UNL     1      79.317  51.749  34.690  1.00  0.00     0.007 A 
HETATM    7  C2  UNL     1      78.196  51.690  35.683  1.00  0.00     0.007 A 
ENDBRANCH   4   5
ENDBRANCH   1   4
BRANCH   1   8
HETATM    8  C5  UNL     1      75.319  53.757  34.072  1.00  0.00     0.194 C 
HETATM    9  C6  UNL     1      74.041  54.442  34.341  1.00  0.00     0.017 C 
HETATM   10  C7  UNL     1      73.015  53.564  33.655  1.00  0.00     0.007 C 
HETATM   11  C10 UNL     1      74.384  55.367  33.173  1.00  0.00     0.013 C 
HETATM   12  C8  UNL     1      73.813  53.229  32.379  1.00  0.00     0.007 C 
HETATM   13  C9  UNL     1      74.991  54.109  32.598  1.00  0.00     0.017 C 
ENDBRANCH   1   8
TORSDOF 3
ENDMDL
MODEL 3
REMARK VINA RESULT: -5.089371487      0.640      1.015
REMARK  3 active torsions:
REMARK  status: ('A' for Active; 'I' for Inactive)
REMARK    1  A    between atoms: C3_3  and  C4_4 
REMARK    2  A    between atoms: C4_4  and  N1_5 
REMARK    3  A    between atoms: N1_5  and  C5_8 
ROOT
HETATM    1  N1  UNL     1      77.636  54.011  33.482  1.00  0.00    -0.070 N 
ATOM      2  H11 UNL     1      77.147  53.669  32.655  1.00  0.00     0.277 HD
ATOM      3  H12 UNL     1      78.587  53.832  33.162  1.00  0.00     0.277 HD
ENDROOT
BRANCH   1   4
HETATM    4  C4  UNL     1      77.303  53.280  34.661  1.00  0.00     0.237 C 
BRANCH   4   5
HETATM    5  C3  UNL     1      78.452  52.681  35.395  1.00  0.00     0.011 A 
HETATM    6  C1  UNL     1      79.305  51.651  34.719  1.00  0.00     0.007 A 
HETATM    7  C2  UNL     1      78.455  51.302  35.904  1.00  0.00     0.007 A 
ENDBRANCH   4   5
ENDBRANCH   1   4
BRANCH   1   8
HETATM    8  C5  UNL     1      77.388  55.401  33.738  1.00  0.00     0.194 C 
HETATM    9  C6  UNL     1      78.428  56.236  34.370  1.00  0.00     0.017 C 
HETATM   10  C7  UNL     1      77.863  57.638  34.279  1.00  0.00     0.007 C 
HETATM   11  C10 UNL     1      79.166  56.188  33.032  1.00  0.00     0.013 C 
HETATM   12  C8  UNL     1      77.260  57.554  32.863  1.00  0.00     0.007 C 
HETATM   13  C9  UNL     1      77.765  56.211  32.470  1.00  0.00     0.017 C 
ENDBRANCH   1   8
TORSDOF 3
ENDMDL
MODEL 4
REMARK VINA RESULT: -5.081925595      2.344      3.057
REMARK  3 active torsions:
REMARK  status: ('A' for Active; 'I' for Inactive)
REMARK    1  A    between atoms: C3_3  and  C4_4 
REMARK    2  A    between atoms: C4_4  and  N1_5 
REMARK    3  A    between atoms: N1_5  and  C5_8 
ROOT
HETATM    1  N1  UNL     1      78.440  52.975  33.878  1.00  0.00    -0.070 N 
ATOM      2  H11 UNL     1      77.964  53.645  34.482  1.00  0.00     0.277 HD
ATOM      3  H12 UNL     1      77.613  52.597  33.417  1.00  0.00     0.277 HD
ENDROOT
BRANCH   1   4
HETATM    4  C4  UNL     1      79.163  51.987  34.611  1.00  0.00     0.237 C 
BRANCH   4   5
HETATM    5  C3  UNL     1      78.531  51.534  35.880  1.00  0.00     0.011 A 
HETATM    6  C1  UNL     1      79.347  51.482  37.136  1.00  0.00     0.007 A 
HETATM    7  C2  UNL     1      78.813  50.232  36.503  1.00  0.00     0.007 A 
ENDBRANCH   4   5
ENDBRANCH   1   4
BRANCH   1   8
HETATM    8  C5  UNL     1      79.349  53.601  32.963  1.00  0.00     0.194 C 
HETATM    9  C6  UNL     1      79.586  53.010  31.631  1.00  0.00     0.017 C 
HETATM   10  C7  UNL     1      80.426  54.054  30.923  1.00  0.00     0.007 C 
HETATM   11  C10 UNL     1      78.197  53.521  31.246  1.00  0.00     0.013 C 
HETATM   12  C8  UNL     1      79.702  55.317  31.430  1.00  0.00     0.007 C 
HETATM   13  C9  UNL     1      78.573  54.671  32.150  1.00  0.00     0.017 C 
ENDBRANCH   1   8
TORSDOF 3
ENDMDL
MODEL 5
REMARK VINA RESULT: -5.045378606      2.182      3.216
REMARK  3 active torsions:
REMARK  status: ('A' for Active; 'I' for Inactive)
REMARK    1  A    between atoms: C3_3  and  C4_4 
REMARK    2  A    between atoms: C4_4  and  N1_5 
REMARK    3  A    between atoms: N1_5  and  C5_8 
ROOT
HETATM    1  N1  UNL     1      78.582  53.261  34.114  1.00  0.00    -0.070 N 
ATOM      2  H11 UNL     1      78.960  54.075  34.599  1.00  0.00     0.277 HD
ATOM      3  H12 UNL     1      77.601  53.405  34.352  1.00  0.00     0.277 HD
ENDROOT
BRANCH   1   4
HETATM    4  C4  UNL     1      79.098  52.030  34.618  1.00  0.00     0.237 C 
BRANCH   4   5
HETATM    5  C3  UNL     1      78.498  51.553  35.895  1.00  0.00     0.011 A 
HETATM    6  C1  UNL     1      79.343  51.493  37.131  1.00  0.00     0.007 A 
HETATM    7  C2  UNL     1      78.807  50.247  36.493  1.00  0.00     0.007 A 
ENDBRANCH   4   5
ENDBRANCH   1   4
BRANCH   1   8
HETATM    8  C5  UNL     1      78.822  53.296  32.700  1.00  0.00     0.194 C 
HETATM    9  C6  UNL     1      78.290  54.405  31.885  1.00  0.00     0.017 C 
HETATM   10  C7  UNL     1      78.918  54.180  30.525  1.00  0.00     0.007 C 
HETATM   11  C10 UNL     1      79.379  55.279  32.509  1.00  0.00     0.013 C 
HETATM   12  C8  UNL     1      80.327  53.758  30.987  1.00  0.00     0.007 C 
HETATM   13  C9  UNL     1      80.180  54.000  32.446  1.00  0.00     0.017 C 
ENDBRANCH   1   8
TORSDOF 3
ENDMDL
