MODEL 1
REMARK VINA RESULT: -5.672733126      0.000      0.000
REMARK  3 active torsions:
REMARK  status: ('A' for Active; 'I' for Inactive)
REMARK    1  A    between atoms: C3_3  and  C4_4 
REMARK    2  A    between atoms: C5_5  and  C6_6 
REMARK    3  A    between atoms: C7_7  and  C8_8 
ROOT
HETATM    1  C6  UNL     1      78.324  54.880  33.055  1.00  0.00    -0.002 C 
HETATM    2  C7  UNL     1      78.883  55.465  32.012  1.00  0.00     0.008 C 
ENDROOT
BRANCH   2   3
HETATM    3  C8  UNL     1      79.910  54.841  31.165  1.00  0.00     0.239 A 
HETATM    4  N1  UNL     1      80.465  55.536  30.040  1.00  0.00    -0.059 N 
HETATM    5  C9  UNL     1      79.526  54.463  29.802  1.00  0.00     0.216 A 
ATOM      6  H12 UNL     1      80.513  56.516  29.761  1.00  0.00     0.278 HD
ATOM      7  H11 UNL     1      81.414  55.736  29.723  1.00  0.00     0.278 HD
HETATM    8  C10 UNL     1      78.230  54.887  29.183  1.00  0.00     0.042 C 
ENDBRANCH   2   3
BRANCH   1   9
HETATM    9  C5  UNL     1      78.711  53.537  33.436  1.00  0.00    -0.000 C 
HETATM   10  C4  UNL     1      78.463  53.105  34.654  1.00  0.00    -0.000 C 
BRANCH  10  11
HETATM   11  C3  UNL     1      78.847  51.749  35.056  1.00  0.00    -0.004 C 
HETATM   12  C2  UNL     1      78.464  51.274  36.218  1.00  0.00    -0.031 C 
HETATM   13  C1  UNL     1      78.853  49.899  36.627  1.00  0.00     0.036 C 
ENDBRANCH  10  11
ENDBRANCH   1   9
TORSDOF 3
ENDMDL
MODEL 2
REMARK VINA RESULT: -5.446892885      2.852      3.523
REMARK  3 active torsions:
REMARK  status: ('A' for Active; 'I' for Inactive)
REMARK    1  A    between atoms: C3_3  and  C4_4 
REMARK    2  A    between atoms: C5_5  and  C6_6 
REMARK    3  A    between atoms: C7_7  and  C8_8 
ROOT
HETATM    1  C6  UNL     1      77.112  55.225  33.479  1.00  0.00    -0.002 C 
HETATM    2  C7  UNL     1      77.526  56.478  33.453  1.00  0.00     0.008 C 
ENDROOT
BRANCH   2   3
HETATM    3  C8  UNL     1      78.884  56.908  33.819  1.00  0.00     0.239 A 
HETATM    4  N1  UNL     1      79.258  57.095  35.191  1.00  0.00    -0.059 N 
HETATM    5  C9  UNL     1      79.042  58.261  34.363  1.00  0.00     0.216 A 
ATOM      6  H12 UNL     1      78.881  56.774  36.082  1.00  0.00     0.278 HD
ATOM      7  H11 UNL     1      80.031  56.765  35.770  1.00  0.00     0.278 HD
HETATM    8  C10 UNL     1      77.876  59.110  34.763  1.00  0.00     0.042 C 
ENDBRANCH   2   3
BRANCH   1   9
HETATM    9  C5  UNL     1      78.010  54.165  33.886  1.00  0.00    -0.000 C 
HETATM   10  C4  UNL     1      77.619  53.283  34.780  1.00  0.00    -0.000 C 
BRANCH  10  11
HETATM   11  C3  UNL     1      78.515  52.202  35.202  1.00  0.00    -0.004 C 
HETATM   12  C2  UNL     1      78.138  51.363  36.138  1.00  0.00    -0.031 C 
HETATM   13  C1  UNL     1      79.045  50.266  36.567  1.00  0.00     0.036 C 
ENDBRANCH  10  11
ENDBRANCH   1   9
TORSDOF 3
ENDMDL
MODEL 3
REMARK VINA RESULT: -5.360983546      2.409      3.408
REMARK  3 active torsions:
REMARK  status: ('A' for Active; 'I' for Inactive)
REMARK    1  A    between atoms: C3_3  and  C4_4 
REMARK    2  A    between atoms: C5_5  and  C6_6 
REMARK    3  A    between atoms: C7_7  and  C8_8 
ROOT
HETATM    1  C6  UNL     1      78.810  54.939  32.357  1.00  0.00    -0.002 C 
HETATM    2  C7  UNL     1      78.012  55.989  32.399  1.00  0.00     0.008 C 
ENDROOT
BRANCH   2   3
HETATM    3  C8  UNL     1      76.999  56.216  33.440  1.00  0.00     0.239 A 
HETATM    4  N1  UNL     1      76.079  57.314  33.353  1.00  0.00    -0.059 N 
HETATM    5  C9  UNL     1      77.167  57.391  34.303  1.00  0.00     0.216 A 
ATOM      6  H12 UNL     1      75.754  57.911  32.593  1.00  0.00     0.278 HD
ATOM      7  H11 UNL     1      75.065  57.401  33.421  1.00  0.00     0.278 HD
HETATM    8  C10 UNL     1      78.175  58.460  34.021  1.00  0.00     0.042 C 
ENDBRANCH   2   3
BRANCH   1   9
HETATM    9  C5  UNL     1      78.726  53.913  33.375  1.00  0.00    -0.000 C 
HETATM   10  C4  UNL     1      79.496  52.849  33.297  1.00  0.00    -0.000 C 
BRANCH  10  11
HETATM   11  C3  UNL     1      79.424  51.801  34.319  1.00  0.00    -0.004 C 
HETATM   12  C2  UNL     1      78.616  51.936  35.345  1.00  0.00    -0.031 C 
HETATM   13  C1  UNL     1      78.543  50.874  36.382  1.00  0.00     0.036 C 
ENDBRANCH  10  11
ENDBRANCH   1   9
TORSDOF 3
ENDMDL
MODEL 4
REMARK VINA RESULT: -5.300458559      3.023      3.616
REMARK  3 active torsions:
REMARK  status: ('A' for Active; 'I' for Inactive)
REMARK    1  A    between atoms: C3_3  and  C4_4 
REMARK    2  A    between atoms: C5_5  and  C6_6 
REMARK    3  A    between atoms: C7_7  and  C8_8 
ROOT
HETATM    1  C6  UNL     1      77.916  54.982  33.832  1.00  0.00    -0.002 C 
HETATM    2  C7  UNL     1      76.723  55.441  33.506  1.00  0.00     0.008 C 
ENDROOT
BRANCH   2   3
HETATM    3  C8  UNL     1      75.462  54.736  33.783  1.00  0.00     0.239 A 
HETATM    4  N1  UNL     1      74.814  53.953  32.771  1.00  0.00    -0.059 N 
HETATM    5  C9  UNL     1      74.249  55.237  33.127  1.00  0.00     0.216 A 
ATOM      6  H12 UNL     1      75.118  53.527  31.896  1.00  0.00     0.278 HD
ATOM      7  H11 UNL     1      74.449  53.001  32.731  1.00  0.00     0.278 HD
HETATM    8  C10 UNL     1      74.287  56.264  32.039  1.00  0.00     0.042 C 
ENDBRANCH   2   3
BRANCH   1   9
HETATM    9  C5  UNL     1      78.053  53.708  34.506  1.00  0.00    -0.000 C 
HETATM   10  C4  UNL     1      78.993  52.867  34.134  1.00  0.00    -0.000 C 
BRANCH  10  11
HETATM   11  C3  UNL     1      79.147  51.574  34.807  1.00  0.00    -0.004 C 
HETATM   12  C2  UNL     1      78.594  51.372  35.980  1.00  0.00    -0.031 C 
HETATM   13  C1  UNL     1      78.749  50.061  36.663  1.00  0.00     0.036 C 
ENDBRANCH  10  11
ENDBRANCH   1   9
TORSDOF 3
ENDMDL
MODEL 5
REMARK VINA RESULT: -5.244842458      3.249      6.238
REMARK  3 active torsions:
REMARK  status: ('A' for Active; 'I' for Inactive)
REMARK    1  A    between atoms: C3_3  and  C4_4 
REMARK    2  A    between atoms: C5_5  and  C6_6 
REMARK    3  A    between atoms: C7_7  and  C8_8 
ROOT
HETATM    1  C6  UNL     1      78.545  53.033  33.958  1.00  0.00    -0.002 C 
HETATM    2  C7  UNL     1      78.913  52.106  34.821  1.00  0.00     0.008 C 
ENDROOT
BRANCH   2   3
HETATM    3  C8  UNL     1      78.933  52.294  36.279  1.00  0.00     0.239 A 
HETATM    4  N1  UNL     1      80.041  51.842  37.070  1.00  0.00    -0.059 N 
HETATM    5  C9  UNL     1      78.801  51.099  37.119  1.00  0.00     0.216 A 
ATOM      6  H12 UNL     1      81.009  51.598  36.865  1.00  0.00     0.278 HD
ATOM      7  H11 UNL     1      80.639  52.277  37.773  1.00  0.00     0.278 HD
HETATM    8  C10 UNL     1      78.877  49.711  36.563  1.00  0.00     0.042 C 
ENDBRANCH   2   3
BRANCH   1   9
HETATM    9  C5  UNL     1      78.125  54.339  34.419  1.00  0.00    -0.000 C 
HETATM   10  C4  UNL     1      78.368  55.403  33.685  1.00  0.00    -0.000 C 
BRANCH  10  11
HETATM   11  C3  UNL     1      77.949  56.733  34.137  1.00  0.00    -0.004 C 
HETATM   12  C2  UNL     1      78.830  57.565  34.640  1.00  0.00    -0.031 C 
HETATM   13  C1  UNL     1      78.406  58.914  35.098  1.00  0.00     0.036 C 
ENDBRANCH  10  11
ENDBRANCH   1   9
TORSDOF 3
ENDMDL
