MODEL 1
REMARK VINA RESULT: -5.351163319      0.000      0.000
REMARK  3 active torsions:
REMARK  status: ('A' for Active; 'I' for Inactive)
REMARK    1  A    between atoms: C2_2  and  N1_3 
REMARK    2  A    between atoms: C2_2  and  C6_8 
REMARK    3  A    between atoms: N1_3  and  C3_5 
ROOT
HETATM    1  C1  UNL     1      80.517  52.323  32.487  1.00  0.00     0.063 C 
HETATM    2  C2  UNL     1      79.681  52.519  33.737  1.00  0.00    -0.018 C 
ENDROOT
BRANCH   2   3
HETATM    3  N1  UNL     1      79.577  51.384  34.577  1.00  0.00    -0.392 N 
ATOM      4  H1  UNL     1      80.149  50.557  34.409  1.00  0.00     0.159 HD
BRANCH   3   5
HETATM    5  C3  UNL     1      78.660  51.425  35.658  1.00  0.00     0.081 A 
HETATM    6  C4  UNL     1      79.355  51.500  37.023  1.00  0.00     0.027 A 
HETATM    7  C5  UNL     1      78.719  50.226  36.598  1.00  0.00     0.027 A 
ENDBRANCH   3   5
ENDBRANCH   2   3
BRANCH   2   8
HETATM    8  C6  UNL     1      78.407  53.248  33.514  1.00  0.00     0.030 C 
HETATM    9  C7  UNL     1      78.112  53.714  32.139  1.00  0.00     0.010 C 
HETATM   10  C8  UNL     1      77.427  55.063  32.231  1.00  0.00     0.001 C 
HETATM   11  C9  UNL     1      77.092  55.179  33.697  1.00  0.00     0.001 C 
HETATM   12  C10 UNL     1      78.293  54.520  34.357  1.00  0.00     0.010 C 
ENDBRANCH   2   8
TORSDOF 3
ENDMDL
MODEL 2
REMARK VINA RESULT: -5.334766057      2.002      4.452
REMARK  3 active torsions:
REMARK  status: ('A' for Active; 'I' for Inactive)
REMARK    1  A    between atoms: C2_2  and  N1_3 
REMARK    2  A    between atoms: C2_2  and  C6_8 
REMARK    3  A    between atoms: N1_3  and  C3_5 
ROOT
HETATM    1  C1  UNL     1      81.548  51.727  32.414  1.00  0.00     0.063 C 
HETATM    2  C2  UNL     1      80.094  52.152  32.332  1.00  0.00    -0.018 C 
ENDROOT
BRANCH   2   3
HETATM    3  N1  UNL     1      79.749  52.907  31.185  1.00  0.00    -0.392 N 
ATOM      4  H1  UNL     1      78.989  52.607  30.573  1.00  0.00     0.159 HD
BRANCH   3   5
HETATM    5  C3  UNL     1      80.483  54.087  30.906  1.00  0.00     0.081 A 
HETATM    6  C4  UNL     1      79.587  55.323  30.761  1.00  0.00     0.027 A 
HETATM    7  C5  UNL     1      80.196  54.718  29.548  1.00  0.00     0.027 A 
ENDBRANCH   3   5
ENDBRANCH   2   3
BRANCH   2   8
HETATM    8  C6  UNL     1      79.534  52.665  33.607  1.00  0.00     0.030 C 
HETATM    9  C7  UNL     1      79.382  51.708  34.728  1.00  0.00     0.010 C 
HETATM   10  C8  UNL     1      78.104  52.043  35.470  1.00  0.00     0.001 C 
HETATM   11  C9  UNL     1      77.722  53.389  34.906  1.00  0.00     0.001 C 
HETATM   12  C10 UNL     1      78.132  53.257  33.448  1.00  0.00     0.010 C 
ENDBRANCH   2   8
TORSDOF 3
ENDMDL
MODEL 3
REMARK VINA RESULT: -5.315697493      2.233      4.729
REMARK  3 active torsions:
REMARK  status: ('A' for Active; 'I' for Inactive)
REMARK    1  A    between atoms: C2_2  and  N1_3 
REMARK    2  A    between atoms: C2_2  and  C6_8 
REMARK    3  A    between atoms: N1_3  and  C3_5 
ROOT
HETATM    1  C1  UNL     1      76.996  54.300  32.171  1.00  0.00     0.063 C 
HETATM    2  C2  UNL     1      77.141  54.501  33.667  1.00  0.00    -0.018 C 
ENDROOT
BRANCH   2   3
HETATM    3  N1  UNL     1      76.998  55.836  34.114  1.00  0.00    -0.392 N 
ATOM      4  H1  UNL     1      76.266  56.089  34.778  1.00  0.00     0.159 HD
BRANCH   3   5
HETATM    5  C3  UNL     1      77.897  56.815  33.618  1.00  0.00     0.081 A 
HETATM    6  C4  UNL     1      78.708  57.493  34.729  1.00  0.00     0.027 A 
HETATM    7  C5  UNL     1      77.608  58.242  34.069  1.00  0.00     0.027 A 
ENDBRANCH   3   5
ENDBRANCH   2   3
BRANCH   2   8
HETATM    8  C6  UNL     1      78.269  53.756  34.279  1.00  0.00     0.030 C 
HETATM    9  C7  UNL     1      79.221  53.077  33.368  1.00  0.00     0.010 C 
HETATM   10  C8  UNL     1      79.636  51.766  34.004  1.00  0.00     0.001 C 
HETATM   11  C9  UNL     1      79.118  51.890  35.416  1.00  0.00     0.001 C 
HETATM   12  C10 UNL     1      77.809  52.637  35.214  1.00  0.00     0.010 C 
ENDBRANCH   2   8
TORSDOF 3
ENDMDL
MODEL 4
REMARK VINA RESULT: -5.299161408      1.337      2.343
REMARK  3 active torsions:
REMARK  status: ('A' for Active; 'I' for Inactive)
REMARK    1  A    between atoms: C2_2  and  N1_3 
REMARK    2  A    between atoms: C2_2  and  C6_8 
REMARK    3  A    between atoms: N1_3  and  C3_5 
ROOT
HETATM    1  C1  UNL     1      77.469  53.713  34.433  1.00  0.00     0.063 C 
HETATM    2  C2  UNL     1      78.569  52.851  33.843  1.00  0.00    -0.018 C 
ENDROOT
BRANCH   2   3
HETATM    3  N1  UNL     1      79.174  51.942  34.744  1.00  0.00    -0.392 N 
ATOM      4  H1  UNL     1      80.094  51.549  34.548  1.00  0.00     0.159 HD
BRANCH   3   5
HETATM    5  C3  UNL     1      78.470  51.591  35.924  1.00  0.00     0.081 A 
HETATM    6  C4  UNL     1      79.389  51.460  37.145  1.00  0.00     0.027 A 
HETATM    7  C5  UNL     1      78.837  50.234  36.512  1.00  0.00     0.027 A 
ENDBRANCH   3   5
ENDBRANCH   2   3
BRANCH   2   8
HETATM    8  C6  UNL     1      79.516  53.583  32.966  1.00  0.00     0.030 C 
HETATM    9  C7  UNL     1      79.187  54.985  32.614  1.00  0.00     0.010 C 
HETATM   10  C8  UNL     1      79.608  55.227  31.179  1.00  0.00     0.001 C 
HETATM   11  C9  UNL     1      80.444  54.013  30.857  1.00  0.00     0.001 C 
HETATM   12  C10 UNL     1      79.714  52.910  31.607  1.00  0.00     0.010 C 
ENDBRANCH   2   8
TORSDOF 3
ENDMDL
MODEL 5
REMARK VINA RESULT: -5.194781499      2.230      4.684
REMARK  3 active torsions:
REMARK  status: ('A' for Active; 'I' for Inactive)
REMARK    1  A    between atoms: C2_2  and  N1_3 
REMARK    2  A    between atoms: C2_2  and  C6_8 
REMARK    3  A    between atoms: N1_3  and  C3_5 
ROOT
HETATM    1  C1  UNL     1      79.537  54.860  32.403  1.00  0.00     0.063 C 
HETATM    2  C2  UNL     1      78.318  54.602  33.269  1.00  0.00    -0.018 C 
ENDROOT
BRANCH   2   3
HETATM    3  N1  UNL     1      78.002  55.630  34.189  1.00  0.00    -0.392 N 
ATOM      4  H1  UNL     1      77.659  55.406  35.123  1.00  0.00     0.159 HD
BRANCH   3   5
HETATM    5  C3  UNL     1      78.173  56.978  33.782  1.00  0.00     0.081 A 
HETATM    6  C4  UNL     1      78.781  57.857  34.882  1.00  0.00     0.027 A 
HETATM    7  C5  UNL     1      77.338  57.994  34.553  1.00  0.00     0.027 A 
ENDBRANCH   3   5
ENDBRANCH   2   3
BRANCH   2   8
HETATM    8  C6  UNL     1      78.239  53.226  33.820  1.00  0.00     0.030 C 
HETATM    9  C7  UNL     1      77.698  53.063  35.190  1.00  0.00     0.010 C 
HETATM   10  C8  UNL     1      78.476  51.961  35.880  1.00  0.00     0.001 C 
HETATM   11  C9  UNL     1      79.253  51.330  34.751  1.00  0.00     0.001 C 
HETATM   12  C10 UNL     1      79.600  52.530  33.886  1.00  0.00     0.010 C 
ENDBRANCH   2   8
TORSDOF 3
ENDMDL
