MODEL 1
REMARK VINA RESULT: -8.686165048      0.000      0.000
REMARK  9 active torsions:
REMARK  status: ('A' for Active; 'I' for Inactive)
REMARK    1  A    between atoms: C3_3  and  C4_4 
REMARK    2  A    between atoms: C4_4  and  C5_5 
REMARK    3  A    between atoms: C6_6  and  C7_7 
REMARK    4  A    between atoms: C7_7  and  N1_8 
REMARK    5  A    between atoms: N1_8  and  C9_10 
REMARK    6  A    between atoms: N1_8  and  C16_24 
REMARK    7  A    between atoms: C9_10  and  C10_11 
REMARK       I    between atoms: C10_11  and  N2_13 
REMARK    8  A    between atoms: C13_17  and  C14_18 
REMARK    9  A    between atoms: C16_24  and  C17_25 
ROOT
HETATM    1  C1  UNL     1      20.565 -13.012  19.780  1.00  0.00     0.012 C 
HETATM    2  C2  UNL     1      20.396 -13.858  20.630  1.00  0.00    -0.117 C 
HETATM    3  C3  UNL     1      20.175 -14.868  21.674  1.00  0.00     0.105 C 
ENDROOT
BRANCH   3   4
HETATM    4  C4  UNL     1      19.567 -14.159  22.882  1.00  0.00     0.106 C 
BRANCH   4   5
HETATM    5  C5  UNL     1      18.148 -13.952  22.627  1.00  0.00    -0.104 C 
HETATM    6  C6  UNL     1      16.964 -13.799  22.418  1.00  0.00    -0.079 C 
BRANCH   6   7
HETATM    7  C7  UNL     1      15.512 -13.585  22.154  1.00  0.00     0.331 C 
BRANCH   7   8
HETATM    8  N1  UNL     1      15.120 -14.665  21.275  1.00  0.00    -0.050 N 
HETATM    9  C8  UNL     1      16.246 -15.605  21.278  1.00  0.00     0.274 C 
BRANCH   8  10
HETATM   10  C9  UNL     1      14.032 -15.338  21.966  1.00  0.00     0.340 C 
BRANCH  10  11
HETATM   11  C10 UNL     1      12.814 -14.502  21.942  1.00  0.00     0.249 C 
HETATM   12  O1  UNL     1      12.202 -14.296  20.887  1.00  0.00    -0.271 OA
HETATM   13  N2  UNL     1      12.287 -13.895  23.124  1.00  0.00    -0.311 N 
HETATM   14  C11 UNL     1      12.149 -12.599  23.162  1.00  0.00     0.124 A 
ATOM     15  H2  UNL     1      12.023 -14.467  23.926  1.00  0.00     0.170 HD
HETATM   16  C12 UNL     1      11.652 -11.904  24.246  1.00  0.00     0.080 A 
HETATM   17  N4  UNL     1      12.439 -11.692  22.216  1.00  0.00    -0.285 N 
HETATM   18  C13 UNL     1      11.664 -10.585  23.902  1.00  0.00     0.051 A 
HETATM   19  N3  UNL     1      12.157 -10.474  22.634  1.00  0.00    -0.299 N 
ATOM     20  H3  UNL     1      12.284  -9.610  22.107  1.00  0.00     0.187 HD
ATOM     21  H4  UNL     1      12.825 -11.916  21.298  1.00  0.00     0.188 HD
BRANCH  18  22
HETATM   22  C14 UNL     1      11.229  -9.470  24.730  1.00  0.00     0.021 C 
HETATM   23  C15 UNL     1      12.082  -8.507  25.005  1.00  0.00     0.013 C 
ENDBRANCH  18  22
ENDBRANCH  10  11
ENDBRANCH   8  10
BRANCH   8  24
HETATM   24  C16 UNL     1      14.684 -14.320  19.989  1.00  0.00     0.273 C 
BRANCH  24  25
HETATM   25  C17 UNL     1      15.625 -14.294  18.852  1.00  0.00     0.205 C 
HETATM   26  N5  UNL     1      15.233 -14.913  17.646  1.00  0.00    -0.328 N 
HETATM   27  C18 UNL     1      15.939 -14.264  16.599  1.00  0.00     0.325 C 
ATOM     28  H5  UNL     1      14.567 -15.679  17.546  1.00  0.00     0.165 HD
HETATM   29  O2  UNL     1      16.024 -14.687  15.403  1.00  0.00    -0.247 OA
HETATM   30  N6  UNL     1      16.538 -13.065  17.103  1.00  0.00    -0.273 N 
HETATM   31  C19 UNL     1      17.349 -12.125  16.324  1.00  0.00     0.164 C 
HETATM   32  C20 UNL     1      16.180 -13.004  18.468  1.00  0.00     0.252 C 
HETATM   33  O3  UNL     1      16.325 -12.001  19.196  1.00  0.00    -0.271 OA
ENDBRANCH  24  25
ENDBRANCH   8  24
ENDBRANCH   7   8
ENDBRANCH   6   7
ENDBRANCH   4   5
ENDBRANCH   3   4
TORSDOF 9
ENDMDL
MODEL 2
REMARK VINA RESULT: -8.427150651      2.431      6.216
REMARK  9 active torsions:
REMARK  status: ('A' for Active; 'I' for Inactive)
REMARK    1  A    between atoms: C3_3  and  C4_4 
REMARK    2  A    between atoms: C4_4  and  C5_5 
REMARK    3  A    between atoms: C6_6  and  C7_7 
REMARK    4  A    between atoms: C7_7  and  N1_8 
REMARK    5  A    between atoms: N1_8  and  C9_10 
REMARK    6  A    between atoms: N1_8  and  C16_24 
REMARK    7  A    between atoms: C9_10  and  C10_11 
REMARK       I    between atoms: C10_11  and  N2_13 
REMARK    8  A    between atoms: C13_17  and  C14_18 
REMARK    9  A    between atoms: C16_24  and  C17_25 
ROOT
HETATM    1  C1  UNL     1      20.591 -13.036  19.465  1.00  0.00     0.012 C 
HETATM    2  C2  UNL     1      19.942 -13.241  20.467  1.00  0.00    -0.117 C 
HETATM    3  C3  UNL     1      19.135 -13.474  21.673  1.00  0.00     0.105 C 
ENDROOT
BRANCH   3   4
HETATM    4  C4  UNL     1      18.054 -12.397  21.722  1.00  0.00     0.106 C 
BRANCH   4   5
HETATM    5  C5  UNL     1      16.933 -12.833  20.902  1.00  0.00    -0.104 C 
HETATM    6  C6  UNL     1      15.997 -13.177  20.213  1.00  0.00    -0.079 C 
BRANCH   6   7
HETATM    7  C7  UNL     1      14.846 -13.625  19.377  1.00  0.00     0.331 C 
BRANCH   7   8
HETATM    8  N1  UNL     1      13.663 -13.245  20.118  1.00  0.00    -0.050 N 
HETATM    9  C8  UNL     1      13.071 -12.131  19.370  1.00  0.00     0.274 C 
BRANCH   8  10
HETATM   10  C9  UNL     1      12.747 -14.363  19.965  1.00  0.00     0.340 C 
BRANCH  10  11
HETATM   11  C10 UNL     1      13.193 -15.507  20.787  1.00  0.00     0.249 C 
HETATM   12  O1  UNL     1      12.649 -15.769  21.867  1.00  0.00    -0.271 OA
HETATM   13  N2  UNL     1      14.267 -16.360  20.382  1.00  0.00    -0.311 N 
HETATM   14  C11 UNL     1      15.303 -16.488  21.163  1.00  0.00     0.124 A 
ATOM     15  H2  UNL     1      14.222 -16.861  19.494  1.00  0.00     0.170 HD
HETATM   16  C12 UNL     1      16.395 -17.281  20.876  1.00  0.00     0.080 A 
HETATM   17  N4  UNL     1      15.537 -15.915  22.353  1.00  0.00    -0.285 N 
HETATM   18  C13 UNL     1      17.258 -17.150  21.925  1.00  0.00     0.051 A 
HETATM   19  N3  UNL     1      16.704 -16.295  22.834  1.00  0.00    -0.299 N 
ATOM     20  H3  UNL     1      17.117 -16.005  23.720  1.00  0.00     0.187 HD
ATOM     21  H4  UNL     1      14.899 -15.272  22.822  1.00  0.00     0.188 HD
BRANCH  18  22
HETATM   22  C14 UNL     1      18.550 -17.802  22.069  1.00  0.00     0.021 C 
HETATM   23  C15 UNL     1      19.613 -17.068  22.323  1.00  0.00     0.013 C 
ENDBRANCH  18  22
ENDBRANCH  10  11
ENDBRANCH   8  10
BRANCH   8  24
HETATM   24  C16 UNL     1      13.819 -12.980  21.485  1.00  0.00     0.273 C 
BRANCH  24  25
HETATM   25  C17 UNL     1      12.758 -12.293  22.248  1.00  0.00     0.205 C 
HETATM   26  N5  UNL     1      12.150 -12.986  23.316  1.00  0.00    -0.328 N 
HETATM   27  C18 UNL     1      11.674 -12.007  24.228  1.00  0.00     0.325 C 
ATOM     28  H5  UNL     1      12.068 -13.998  23.415  1.00  0.00     0.165 HD
HETATM   29  O2  UNL     1      10.876 -12.232  25.191  1.00  0.00    -0.247 OA
HETATM   30  N6  UNL     1      12.234 -10.733  23.890  1.00  0.00    -0.273 N 
HETATM   31  C19 UNL     1      11.981  -9.475  24.598  1.00  0.00     0.164 C 
HETATM   32  C20 UNL     1      13.053 -10.963  22.762  1.00  0.00     0.252 C 
HETATM   33  O3  UNL     1      13.879 -10.147  22.306  1.00  0.00    -0.271 OA
ENDBRANCH  24  25
ENDBRANCH   8  24
ENDBRANCH   7   8
ENDBRANCH   6   7
ENDBRANCH   4   5
ENDBRANCH   3   4
TORSDOF 9
ENDMDL
MODEL 3
REMARK VINA RESULT: -8.264534545      2.434      5.869
REMARK  9 active torsions:
REMARK  status: ('A' for Active; 'I' for Inactive)
REMARK    1  A    between atoms: C3_3  and  C4_4 
REMARK    2  A    between atoms: C4_4  and  C5_5 
REMARK    3  A    between atoms: C6_6  and  C7_7 
REMARK    4  A    between atoms: C7_7  and  N1_8 
REMARK    5  A    between atoms: N1_8  and  C9_10 
REMARK    6  A    between atoms: N1_8  and  C16_24 
REMARK    7  A    between atoms: C9_10  and  C10_11 
REMARK       I    between atoms: C10_11  and  N2_13 
REMARK    8  A    between atoms: C13_17  and  C14_18 
REMARK    9  A    between atoms: C16_24  and  C17_25 
ROOT
HETATM    1  C1  UNL     1      20.531 -13.014  19.451  1.00  0.00     0.012 C 
HETATM    2  C2  UNL     1      20.614 -13.490  20.561  1.00  0.00    -0.117 C 
HETATM    3  C3  UNL     1      20.706 -14.091  21.899  1.00  0.00     0.105 C 
ENDROOT
BRANCH   3   4
HETATM    4  C4  UNL     1      19.910 -15.393  21.877  1.00  0.00     0.106 C 
BRANCH   4   5
HETATM    5  C5  UNL     1      18.503 -15.069  21.689  1.00  0.00    -0.104 C 
HETATM    6  C6  UNL     1      17.327 -14.815  21.545  1.00  0.00    -0.079 C 
BRANCH   6   7
HETATM    7  C7  UNL     1      15.886 -14.484  21.348  1.00  0.00     0.331 C 
BRANCH   7   8
HETATM    8  N1  UNL     1      15.874 -13.167  20.750  1.00  0.00    -0.050 N 
HETATM    9  C8  UNL     1      17.020 -12.460  21.330  1.00  0.00     0.274 C 
BRANCH   8  10
HETATM   10  C9  UNL     1      16.201 -13.384  19.351  1.00  0.00     0.340 C 
BRANCH  10  11
HETATM   11  C10 UNL     1      15.009 -13.849  18.612  1.00  0.00     0.249 C 
HETATM   12  O1  UNL     1      14.232 -13.046  18.082  1.00  0.00    -0.271 OA
HETATM   13  N2  UNL     1      14.696 -15.237  18.473  1.00  0.00    -0.311 N 
HETATM   14  C11 UNL     1      13.547 -15.673  18.909  1.00  0.00     0.124 A 
ATOM     15  H2  UNL     1      15.362 -15.877  18.041  1.00  0.00     0.170 HD
HETATM   16  C12 UNL     1      13.137 -16.989  18.830  1.00  0.00     0.080 A 
HETATM   17  N4  UNL     1      12.555 -14.990  19.500  1.00  0.00    -0.285 N 
HETATM   18  C13 UNL     1      11.893 -17.044  19.386  1.00  0.00     0.051 A 
HETATM   19  N3  UNL     1      11.549 -15.788  19.797  1.00  0.00    -0.299 N 
ATOM     20  H3  UNL     1      10.676 -15.518  20.249  1.00  0.00     0.187 HD
ATOM     21  H4  UNL     1      12.576 -13.988  19.693  1.00  0.00     0.188 HD
BRANCH  18  22
HETATM   22  C14 UNL     1      11.059 -18.227  19.526  1.00  0.00     0.021 C 
HETATM   23  C15 UNL     1      11.211 -18.995  20.585  1.00  0.00     0.013 C 
ENDBRANCH  18  22
ENDBRANCH  10  11
ENDBRANCH   8  10
BRANCH   8  24
HETATM   24  C16 UNL     1      14.677 -12.442  20.820  1.00  0.00     0.273 C 
BRANCH  24  25
HETATM   25  C17 UNL     1      14.101 -12.055  22.124  1.00  0.00     0.205 C 
HETATM   26  N5  UNL     1      13.813 -10.691  22.347  1.00  0.00    -0.328 N 
HETATM   27  C18 UNL     1      12.769 -10.641  23.308  1.00  0.00     0.325 C 
ATOM     28  H5  UNL     1      14.268  -9.894  21.903  1.00  0.00     0.165 HD
HETATM   29  O2  UNL     1      12.397  -9.596  23.929  1.00  0.00    -0.247 OA
HETATM   30  N6  UNL     1      12.205 -11.949  23.465  1.00  0.00    -0.273 N 
HETATM   31  C19 UNL     1      11.106 -12.300  24.367  1.00  0.00     0.164 C 
HETATM   32  C20 UNL     1      12.927 -12.783  22.583  1.00  0.00     0.252 C 
HETATM   33  O3  UNL     1      12.592 -13.943  22.270  1.00  0.00    -0.271 OA
ENDBRANCH  24  25
ENDBRANCH   8  24
ENDBRANCH   7   8
ENDBRANCH   6   7
ENDBRANCH   4   5
ENDBRANCH   3   4
TORSDOF 9
ENDMDL
MODEL 4
REMARK VINA RESULT: -8.234711402      2.249      3.968
REMARK  9 active torsions:
REMARK  status: ('A' for Active; 'I' for Inactive)
REMARK    1  A    between atoms: C3_3  and  C4_4 
REMARK    2  A    between atoms: C4_4  and  C5_5 
REMARK    3  A    between atoms: C6_6  and  C7_7 
REMARK    4  A    between atoms: C7_7  and  N1_8 
REMARK    5  A    between atoms: N1_8  and  C9_10 
REMARK    6  A    between atoms: N1_8  and  C16_24 
REMARK    7  A    between atoms: C9_10  and  C10_11 
REMARK       I    between atoms: C10_11  and  N2_13 
REMARK    8  A    between atoms: C13_17  and  C14_18 
REMARK    9  A    between atoms: C16_24  and  C17_25 
ROOT
HETATM    1  C1  UNL     1      20.845 -12.656  20.169  1.00  0.00     0.012 C 
HETATM    2  C2  UNL     1      20.573 -13.733  20.652  1.00  0.00    -0.117 C 
HETATM    3  C3  UNL     1      20.217 -15.031  21.242  1.00  0.00     0.105 C 
ENDROOT
BRANCH   3   4
HETATM    4  C4  UNL     1      18.924 -14.841  22.031  1.00  0.00     0.106 C 
BRANCH   4   5
HETATM    5  C5  UNL     1      17.858 -14.511  21.096  1.00  0.00    -0.104 C 
HETATM    6  C6  UNL     1      16.957 -14.236  20.333  1.00  0.00    -0.079 C 
BRANCH   6   7
HETATM    7  C7  UNL     1      15.866 -13.901  19.373  1.00  0.00     0.331 C 
BRANCH   7   8
HETATM    8  N1  UNL     1      14.902 -13.144  20.140  1.00  0.00    -0.050 N 
HETATM    9  C8  UNL     1      15.641 -12.001  20.686  1.00  0.00     0.274 C 
BRANCH   8  10
HETATM   10  C9  UNL     1      13.983 -12.595  19.156  1.00  0.00     0.340 C 
BRANCH  10  11
HETATM   11  C10 UNL     1      13.024 -11.677  19.805  1.00  0.00     0.249 C 
HETATM   12  O1  UNL     1      12.984 -10.478  19.506  1.00  0.00    -0.271 OA
HETATM   13  N2  UNL     1      12.103 -12.125  20.803  1.00  0.00    -0.311 N 
HETATM   14  C11 UNL     1      12.129 -11.569  21.983  1.00  0.00     0.124 A 
ATOM     15  H2  UNL     1      11.436 -12.868  20.596  1.00  0.00     0.170 HD
HETATM   16  C12 UNL     1      11.291 -11.918  23.022  1.00  0.00     0.080 A 
HETATM   17  N4  UNL     1      12.926 -10.590  22.436  1.00  0.00    -0.285 N 
HETATM   18  C13 UNL     1      11.624 -11.120  24.076  1.00  0.00     0.051 A 
HETATM   19  N3  UNL     1      12.645 -10.300  23.690  1.00  0.00    -0.299 N 
ATOM     20  H3  UNL     1      13.104  -9.594  24.265  1.00  0.00     0.187 HD
ATOM     21  H4  UNL     1      13.652 -10.132  21.884  1.00  0.00     0.188 HD
BRANCH  18  22
HETATM   22  C14 UNL     1      11.009 -11.125  25.395  1.00  0.00     0.021 C 
HETATM   23  C15 UNL     1      10.959 -12.252  26.073  1.00  0.00     0.013 C 
ENDBRANCH  18  22
ENDBRANCH  10  11
ENDBRANCH   8  10
BRANCH   8  24
HETATM   24  C16 UNL     1      14.158 -13.838  21.103  1.00  0.00     0.273 C 
BRANCH  24  25
HETATM   25  C17 UNL     1      13.886 -15.282  20.953  1.00  0.00     0.205 C 
HETATM   26  N5  UNL     1      14.233 -16.140  22.019  1.00  0.00    -0.328 N 
HETATM   27  C18 UNL     1      13.373 -17.267  21.939  1.00  0.00     0.325 C 
ATOM     28  H5  UNL     1      14.962 -15.981  22.713  1.00  0.00     0.165 HD
HETATM   29  O2  UNL     1      13.530 -18.352  22.582  1.00  0.00    -0.247 OA
HETATM   30  N6  UNL     1      12.307 -16.987  21.024  1.00  0.00    -0.273 N 
HETATM   31  C19 UNL     1      11.220 -17.905  20.675  1.00  0.00     0.164 C 
HETATM   32  C20 UNL     1      12.541 -15.675  20.556  1.00  0.00     0.252 C 
HETATM   33  O3  UNL     1      11.717 -14.992  19.914  1.00  0.00    -0.271 OA
ENDBRANCH  24  25
ENDBRANCH   8  24
ENDBRANCH   7   8
ENDBRANCH   6   7
ENDBRANCH   4   5
ENDBRANCH   3   4
TORSDOF 9
ENDMDL
MODEL 5
REMARK VINA RESULT: -8.223367330      2.767      7.162
REMARK  9 active torsions:
REMARK  status: ('A' for Active; 'I' for Inactive)
REMARK    1  A    between atoms: C3_3  and  C4_4 
REMARK    2  A    between atoms: C4_4  and  C5_5 
REMARK    3  A    between atoms: C6_6  and  C7_7 
REMARK    4  A    between atoms: C7_7  and  N1_8 
REMARK    5  A    between atoms: N1_8  and  C9_10 
REMARK    6  A    between atoms: N1_8  and  C16_24 
REMARK    7  A    between atoms: C9_10  and  C10_11 
REMARK       I    between atoms: C10_11  and  N2_13 
REMARK    8  A    between atoms: C13_17  and  C14_18 
REMARK    9  A    between atoms: C16_24  and  C17_25 
ROOT
HETATM    1  C1  UNL     1      11.886  -8.553  25.019  1.00  0.00     0.012 C 
HETATM    2  C2  UNL     1      11.680  -9.678  24.621  1.00  0.00    -0.117 C 
HETATM    3  C3  UNL     1      11.442 -11.037  24.114  1.00  0.00     0.105 C 
ENDROOT
BRANCH   3   4
HETATM    4  C4  UNL     1      11.570 -10.993  22.594  1.00  0.00     0.106 C 
BRANCH   4   5
HETATM    5  C5  UNL     1      12.902 -11.452  22.229  1.00  0.00    -0.104 C 
HETATM    6  C6  UNL     1      14.003 -11.849  21.914  1.00  0.00    -0.079 C 
BRANCH   6   7
HETATM    7  C7  UNL     1      15.369 -12.320  21.545  1.00  0.00     0.331 C 
BRANCH   7   8
HETATM    8  N1  UNL     1      15.159 -13.427  20.638  1.00  0.00    -0.050 N 
HETATM    9  C8  UNL     1      14.717 -12.825  19.375  1.00  0.00     0.274 C 
BRANCH   8  10
HETATM   10  C9  UNL     1      16.486 -13.964  20.384  1.00  0.00     0.340 C 
BRANCH  10  11
HETATM   11  C10 UNL     1      17.496 -13.232  21.177  1.00  0.00     0.249 C 
HETATM   12  O1  UNL     1      18.068 -12.236  20.718  1.00  0.00    -0.271 OA
HETATM   13  N2  UNL     1      17.859 -13.635  22.499  1.00  0.00    -0.311 N 
HETATM   14  C11 UNL     1      19.106 -13.921  22.754  1.00  0.00     0.124 A 
ATOM     15  H2  UNL     1      17.154 -13.697  23.234  1.00  0.00     0.170 HD
HETATM   16  C12 UNL     1      19.572 -14.319  23.990  1.00  0.00     0.080 A 
HETATM   17  N4  UNL     1      20.162 -13.898  21.926  1.00  0.00    -0.285 N 
HETATM   18  C13 UNL     1      20.914 -14.523  23.853  1.00  0.00     0.051 A 
HETATM   19  N3  UNL     1      21.261 -14.255  22.560  1.00  0.00    -0.299 N 
ATOM     20  H3  UNL     1      22.196 -14.318  22.160  1.00  0.00     0.187 HD
ATOM     21  H4  UNL     1      20.120 -13.639  20.940  1.00  0.00     0.188 HD
BRANCH  18  22
HETATM   22  C14 UNL     1      21.835 -14.952  24.894  1.00  0.00     0.021 C 
HETATM   23  C15 UNL     1      21.981 -14.204  25.967  1.00  0.00     0.013 C 
ENDBRANCH  18  22
ENDBRANCH  10  11
ENDBRANCH   8  10
BRANCH   8  24
HETATM   24  C16 UNL     1      14.334 -14.470  21.078  1.00  0.00     0.273 C 
BRANCH  24  25
HETATM   25  C17 UNL     1      13.749 -15.429  20.119  1.00  0.00     0.205 C 
HETATM   26  N5  UNL     1      14.078 -16.795  20.256  1.00  0.00    -0.328 N 
HETATM   27  C18 UNL     1      13.003 -17.538  19.701  1.00  0.00     0.325 C 
ATOM     28  H5  UNL     1      14.926 -17.175  20.675  1.00  0.00     0.165 HD
HETATM   29  O2  UNL     1      13.034 -18.780  19.436  1.00  0.00    -0.247 OA
HETATM   30  N6  UNL     1      11.885 -16.667  19.488  1.00  0.00    -0.273 N 
HETATM   31  C19 UNL     1      10.590 -17.064  18.930  1.00  0.00     0.164 C 
HETATM   32  C20 UNL     1      12.306 -15.392  19.925  1.00  0.00     0.252 C 
HETATM   33  O3  UNL     1      11.549 -14.417  20.105  1.00  0.00    -0.271 OA
ENDBRANCH  24  25
ENDBRANCH   8  24
ENDBRANCH   7   8
ENDBRANCH   6   7
ENDBRANCH   4   5
ENDBRANCH   3   4
TORSDOF 9
ENDMDL
