MODEL 1
REMARK VINA RESULT: -7.582213590      0.000      0.000
REMARK  9 active torsions:
REMARK  status: ('A' for Active; 'I' for Inactive)
REMARK    1  A    between atoms: N1_2  and  C2_4 
REMARK    2  A    between atoms: C2_4  and  C3_6 
REMARK    3  A    between atoms: N3_8  and  C5_9 
REMARK    4  A    between atoms: C5_9  and  C6_10 
REMARK    5  A    between atoms: C6_10  and  C7_11 
REMARK    6  A    between atoms: C7_11  and  C8_12 
REMARK    7  A    between atoms: C8_12  and  C9_13 
REMARK    8  A    between atoms: C9_13  and  C10_14 
REMARK    9  A    between atoms: C16_23  and  N6_24 
ROOT
HETATM    1  C8  UNL     1      12.560 -15.885  21.330  1.00  0.00     0.005 C 
ENDROOT
BRANCH   1   2
HETATM    2  C7  UNL     1      13.162 -17.240  21.598  1.00  0.00     0.002 C 
BRANCH   2   3
HETATM    3  C6  UNL     1      14.500 -17.362  20.897  1.00  0.00     0.020 C 
BRANCH   3   4
HETATM    4  C5  UNL     1      15.608 -17.109  21.839  1.00  0.00     0.129 C 
BRANCH   4   5
HETATM    5  N3  UNL     1      16.546 -16.086  21.503  1.00  0.00    -0.352 N 
HETATM    6  C4  UNL     1      16.153 -14.973  20.851  1.00  0.00     0.108 A 
HETATM    7  C3  UNL     1      17.008 -13.924  20.510  1.00  0.00     0.043 A 
HETATM    8  C20 UNL     1      18.353 -14.035  20.866  1.00  0.00     0.023 A 
HETATM    9  N8  UNL     1      18.710 -15.174  21.525  1.00  0.00    -0.350 N 
HETATM   10  C21 UNL     1      19.359 -13.018  20.533  1.00  0.00     0.069 C 
HETATM   11  C18 UNL     1      17.846 -16.151  21.828  1.00  0.00     0.185 A 
HETATM   12  C19 UNL     1      20.119 -15.317  21.937  1.00  0.00     0.156 C 
BRANCH   7  13
HETATM   13  C2  UNL     1      16.519 -12.747  19.817  1.00  0.00     0.129 C 
HETATM   14  N2  UNL     1      16.178 -11.536  20.541  1.00  0.00    -0.082 NA
BRANCH  13  15
HETATM   15  N1  UNL     1      16.329 -12.657  18.598  1.00  0.00    -0.364 N 
HETATM   16  C1  UNL     1      16.805 -12.766  17.340  1.00  0.00     0.119 C 
ATOM     17  H1  UNL     1      15.357 -12.363  18.496  1.00  0.00     0.165 HD
ENDBRANCH  13  15
ENDBRANCH   7  13
ENDBRANCH   4   5
ENDBRANCH   3   4
ENDBRANCH   2   3
ENDBRANCH   1   2
BRANCH   1  18
HETATM   18  C9  UNL     1      12.732 -14.881  22.411  1.00  0.00     0.042 C 
BRANCH  18  19
HETATM   19  C10 UNL     1      12.527 -13.478  22.028  1.00  0.00    -0.014 A 
HETATM   20  C11 UNL     1      12.865 -13.012  20.777  1.00  0.00     0.099 A 
HETATM   21  N4  UNL     1      12.660 -11.722  20.454  1.00  0.00    -0.369 N 
HETATM   22  C12 UNL     1      13.012 -11.254  19.133  1.00  0.00     0.154 C 
HETATM   23  C13 UNL     1      12.122 -10.829  21.322  1.00  0.00     0.105 A 
HETATM   24  C14 UNL     1      11.766 -11.253  22.598  1.00  0.00     0.023 A 
HETATM   25  C15 UNL     1      11.225 -10.368  23.517  1.00  0.00     0.121 A 
HETATM   26  C17 UNL     1      11.971 -12.568  22.938  1.00  0.00     0.069 A 
HETATM   27  N5  UNL     1      10.903 -10.827  24.758  1.00  0.00    -0.201 N 
HETATM   28  C16 UNL     1      11.098 -12.106  25.099  1.00  0.00     0.676 A 
ATOM     29  H5  UNL     1      10.504 -10.183  25.441  1.00  0.00     0.183 HD
HETATM   30  N7  UNL     1      11.629 -12.955  24.181  1.00  0.00    -0.191 N 
ATOM     31  H7  UNL     1      11.776 -13.929  24.446  1.00  0.00     0.184 HD
BRANCH  28  32
HETATM   32  N6  UNL     1      10.774 -12.477  26.294  1.00  0.00    -0.234 N 
ATOM     33  H62 UNL     1      11.309 -12.210  27.120  1.00  0.00     0.174 HD
ATOM     34  H61 UNL     1       9.945 -13.060  26.410  1.00  0.00     0.174 HD
ENDBRANCH  28  32
ENDBRANCH  18  19
ENDBRANCH   1  18
TORSDOF 9
ENDMDL
MODEL 2
REMARK VINA RESULT: -7.532469219      3.076      8.549
REMARK  9 active torsions:
REMARK  status: ('A' for Active; 'I' for Inactive)
REMARK    1  A    between atoms: N1_2  and  C2_4 
REMARK    2  A    between atoms: C2_4  and  C3_6 
REMARK    3  A    between atoms: N3_8  and  C5_9 
REMARK    4  A    between atoms: C5_9  and  C6_10 
REMARK    5  A    between atoms: C6_10  and  C7_11 
REMARK    6  A    between atoms: C7_11  and  C8_12 
REMARK    7  A    between atoms: C8_12  and  C9_13 
REMARK    8  A    between atoms: C9_13  and  C10_14 
REMARK    9  A    between atoms: C16_23  and  N6_24 
ROOT
HETATM    1  C8  UNL     1      20.287 -14.489  21.204  1.00  0.00     0.005 C 
ENDROOT
BRANCH   1   2
HETATM    2  C7  UNL     1      20.258 -13.308  20.269  1.00  0.00     0.002 C 
BRANCH   2   3
HETATM    3  C6  UNL     1      18.844 -13.065  19.784  1.00  0.00     0.020 C 
BRANCH   3   4
HETATM    4  C5  UNL     1      17.963 -12.693  20.908  1.00  0.00     0.129 C 
BRANCH   4   5
HETATM    5  N3  UNL     1      16.571 -12.992  20.789  1.00  0.00    -0.352 N 
HETATM    6  C4  UNL     1      15.641 -12.029  20.944  1.00  0.00     0.108 A 
HETATM    7  C3  UNL     1      14.267 -12.242  20.821  1.00  0.00     0.043 A 
HETATM    8  C20 UNL     1      13.830 -13.534  20.521  1.00  0.00     0.023 A 
HETATM    9  N8  UNL     1      14.802 -14.479  20.372  1.00  0.00    -0.350 N 
HETATM   10  C21 UNL     1      12.412 -13.894  20.401  1.00  0.00     0.069 C 
HETATM   11  C18 UNL     1      16.108 -14.218  20.500  1.00  0.00     0.185 A 
HETATM   12  C19 UNL     1      14.379 -15.850  20.032  1.00  0.00     0.156 C 
BRANCH   7  13
HETATM   13  C2  UNL     1      13.317 -11.158  20.987  1.00  0.00     0.129 C 
HETATM   14  N2  UNL     1      12.929 -10.319  19.868  1.00  0.00    -0.082 NA
BRANCH  13  15
HETATM   15  N1  UNL     1      12.776 -10.832  22.051  1.00  0.00    -0.364 N 
HETATM   16  C1  UNL     1      12.403 -11.155  23.308  1.00  0.00     0.119 C 
ATOM     17  H1  UNL     1      12.469  -9.869  21.915  1.00  0.00     0.165 HD
ENDBRANCH  13  15
ENDBRANCH   7  13
ENDBRANCH   4   5
ENDBRANCH   3   4
ENDBRANCH   2   3
ENDBRANCH   1   2
BRANCH   1  18
HETATM   18  C9  UNL     1      20.735 -14.200  22.590  1.00  0.00     0.042 C 
BRANCH  18  19
HETATM   19  C10 UNL     1      20.542 -15.278  23.569  1.00  0.00    -0.014 A 
HETATM   20  C11 UNL     1      19.295 -15.798  23.838  1.00  0.00     0.099 A 
HETATM   21  N4  UNL     1      19.151 -16.789  24.737  1.00  0.00    -0.369 N 
HETATM   22  C12 UNL     1      17.836 -17.327  24.999  1.00  0.00     0.154 C 
HETATM   23  C13 UNL     1      20.200 -17.318  25.414  1.00  0.00     0.105 A 
HETATM   24  C14 UNL     1      21.479 -16.825  25.177  1.00  0.00     0.023 A 
HETATM   25  C15 UNL     1      22.575 -17.332  25.858  1.00  0.00     0.121 A 
HETATM   26  C17 UNL     1      21.637 -15.814  24.261  1.00  0.00     0.069 A 
HETATM   27  N5  UNL     1      23.806 -16.809  25.600  1.00  0.00    -0.201 N 
HETATM   28  C16 UNL     1      23.970 -15.824  24.710  1.00  0.00     0.676 A 
ATOM     29  H5  UNL     1      24.618 -17.175  26.095  1.00  0.00     0.183 HD
HETATM   30  N7  UNL     1      22.882 -15.343  24.055  1.00  0.00    -0.191 N 
ATOM     31  H7  UNL     1      23.013 -14.592  23.377  1.00  0.00     0.184 HD
BRANCH  28  32
HETATM   32  N6  UNL     1      25.165 -15.369  24.514  1.00  0.00    -0.234 N 
ATOM     33  H62 UNL     1      25.852 -15.279  25.263  1.00  0.00     0.174 HD
ATOM     34  H61 UNL     1      25.427 -15.092  23.568  1.00  0.00     0.174 HD
ENDBRANCH  28  32
ENDBRANCH  18  19
ENDBRANCH   1  18
TORSDOF 9
ENDMDL
MODEL 3
REMARK VINA RESULT: -7.519442523      2.928      8.403
REMARK  9 active torsions:
REMARK  status: ('A' for Active; 'I' for Inactive)
REMARK    1  A    between atoms: N1_2  and  C2_4 
REMARK    2  A    between atoms: C2_4  and  C3_6 
REMARK    3  A    between atoms: N3_8  and  C5_9 
REMARK    4  A    between atoms: C5_9  and  C6_10 
REMARK    5  A    between atoms: C6_10  and  C7_11 
REMARK    6  A    between atoms: C7_11  and  C8_12 
REMARK    7  A    between atoms: C8_12  and  C9_13 
REMARK    8  A    between atoms: C9_13  and  C10_14 
REMARK    9  A    between atoms: C16_23  and  N6_24 
ROOT
HETATM    1  C8  UNL     1      20.198 -14.089  20.524  1.00  0.00     0.005 C 
ENDROOT
BRANCH   1   2
HETATM    2  C7  UNL     1      19.328 -13.080  19.821  1.00  0.00     0.002 C 
BRANCH   2   3
HETATM    3  C6  UNL     1      18.091 -12.795  20.648  1.00  0.00     0.020 C 
BRANCH   3   4
HETATM    4  C5  UNL     1      16.868 -13.030  19.857  1.00  0.00     0.129 C 
BRANCH   4   5
HETATM    5  N3  UNL     1      15.614 -12.986  20.540  1.00  0.00    -0.352 N 
HETATM    6  C4  UNL     1      14.850 -14.091  20.656  1.00  0.00     0.108 A 
HETATM    7  C3  UNL     1      13.627 -14.127  21.327  1.00  0.00     0.043 A 
HETATM    8  C20 UNL     1      13.167 -12.947  21.913  1.00  0.00     0.023 A 
HETATM    9  N8  UNL     1      13.969 -11.853  21.775  1.00  0.00    -0.350 N 
HETATM   10  C21 UNL     1      11.881 -12.847  22.615  1.00  0.00     0.069 C 
HETATM   11  C18 UNL     1      15.136 -11.874  21.119  1.00  0.00     0.185 A 
HETATM   12  C19 UNL     1      13.527 -10.593  22.400  1.00  0.00     0.156 C 
BRANCH   7  13
HETATM   13  C2  UNL     1      12.857 -15.354  21.427  1.00  0.00     0.129 C 
HETATM   14  N2  UNL     1      13.092 -16.304  22.498  1.00  0.00    -0.082 NA
BRANCH  13  15
HETATM   15  N1  UNL     1      11.976 -15.715  20.638  1.00  0.00    -0.364 N 
HETATM   16  C1  UNL     1      11.631 -16.353  19.498  1.00  0.00     0.119 C 
ATOM     17  H1  UNL     1      11.101 -15.372  21.032  1.00  0.00     0.165 HD
ENDBRANCH  13  15
ENDBRANCH   7  13
ENDBRANCH   4   5
ENDBRANCH   3   4
ENDBRANCH   2   3
ENDBRANCH   1   2
BRANCH   1  18
HETATM   18  C9  UNL     1      20.598 -13.738  21.911  1.00  0.00     0.042 C 
BRANCH  18  19
HETATM   19  C10 UNL     1      20.387 -14.777  22.927  1.00  0.00    -0.014 A 
HETATM   20  C11 UNL     1      19.186 -15.443  23.043  1.00  0.00     0.099 A 
HETATM   21  N4  UNL     1      19.025 -16.395  23.982  1.00  0.00    -0.369 N 
HETATM   22  C12 UNL     1      17.762 -17.088  24.083  1.00  0.00     0.154 C 
HETATM   23  C13 UNL     1      20.011 -16.742  24.845  1.00  0.00     0.105 A 
HETATM   24  C14 UNL     1      21.241 -16.097  24.766  1.00  0.00     0.023 A 
HETATM   25  C15 UNL     1      22.270 -16.416  25.639  1.00  0.00     0.121 A 
HETATM   26  C17 UNL     1      21.417 -15.125  23.812  1.00  0.00     0.069 A 
HETATM   27  N5  UNL     1      23.452 -15.749  25.530  1.00  0.00    -0.201 N 
HETATM   28  C16 UNL     1      23.633 -14.801  24.604  1.00  0.00     0.676 A 
ATOM     29  H5  UNL     1      24.215 -15.977  26.167  1.00  0.00     0.183 HD
HETATM   30  N7  UNL     1      22.611 -14.505  23.760  1.00  0.00    -0.191 N 
ATOM     31  H7  UNL     1      22.754 -13.781  23.056  1.00  0.00     0.184 HD
BRANCH  28  32
HETATM   32  N6  UNL     1      24.778 -14.202  24.557  1.00  0.00    -0.234 N 
ATOM     33  H62 UNL     1      25.506 -14.343  25.257  1.00  0.00     0.174 HD
ATOM     34  H61 UNL     1      24.958 -13.564  23.781  1.00  0.00     0.174 HD
ENDBRANCH  28  32
ENDBRANCH  18  19
ENDBRANCH   1  18
TORSDOF 9
ENDMDL
MODEL 4
REMARK VINA RESULT: -7.507874915      2.757      8.175
REMARK  9 active torsions:
REMARK  status: ('A' for Active; 'I' for Inactive)
REMARK    1  A    between atoms: N1_2  and  C2_4 
REMARK    2  A    between atoms: C2_4  and  C3_6 
REMARK    3  A    between atoms: N3_8  and  C5_9 
REMARK    4  A    between atoms: C5_9  and  C6_10 
REMARK    5  A    between atoms: C6_10  and  C7_11 
REMARK    6  A    between atoms: C7_11  and  C8_12 
REMARK    7  A    between atoms: C8_12  and  C9_13 
REMARK    8  A    between atoms: C9_13  and  C10_14 
REMARK    9  A    between atoms: C16_23  and  N6_24 
ROOT
HETATM    1  C8  UNL     1      19.393 -13.199  21.212  1.00  0.00     0.005 C 
ENDROOT
BRANCH   1   2
HETATM    2  C7  UNL     1      19.132 -13.125  19.730  1.00  0.00     0.002 C 
BRANCH   2   3
HETATM    3  C6  UNL     1      17.641 -13.126  19.465  1.00  0.00     0.020 C 
BRANCH   3   4
HETATM    4  C5  UNL     1      16.971 -14.178  20.253  1.00  0.00     0.129 C 
BRANCH   4   5
HETATM    5  N3  UNL     1      15.603 -13.973  20.610  1.00  0.00    -0.352 N 
HETATM    6  C4  UNL     1      15.112 -12.730  20.783  1.00  0.00     0.108 A 
HETATM    7  C3  UNL     1      13.783 -12.453  21.110  1.00  0.00     0.043 A 
HETATM    8  C20 UNL     1      12.911 -13.531  21.269  1.00  0.00     0.023 A 
HETATM    9  N8  UNL     1      13.446 -14.772  21.084  1.00  0.00    -0.350 N 
HETATM   10  C21 UNL     1      11.501 -13.374  21.647  1.00  0.00     0.069 C 
HETATM   11  C18 UNL     1      14.731 -14.980  20.770  1.00  0.00     0.185 A 
HETATM   12  C19 UNL     1      12.549 -15.934  21.221  1.00  0.00     0.156 C 
BRANCH   7  13
HETATM   13  C2  UNL     1      13.314 -11.089  21.270  1.00  0.00     0.129 C 
HETATM   14  N2  UNL     1      12.957 -10.277  20.121  1.00  0.00    -0.082 NA
BRANCH  13  15
HETATM   15  N1  UNL     1      13.193 -10.492  22.346  1.00  0.00    -0.364 N 
HETATM   16  C1  UNL     1      12.519 -10.314  23.503  1.00  0.00     0.119 C 
ATOM     17  H1  UNL     1      13.960  -9.821  22.373  1.00  0.00     0.165 HD
ENDBRANCH  13  15
ENDBRANCH   7  13
ENDBRANCH   4   5
ENDBRANCH   3   4
ENDBRANCH   2   3
ENDBRANCH   1   2
BRANCH   1  18
HETATM   18  C9  UNL     1      20.535 -14.056  21.621  1.00  0.00     0.042 C 
BRANCH  18  19
HETATM   19  C10 UNL     1      20.295 -14.952  22.760  1.00  0.00    -0.014 A 
HETATM   20  C11 UNL     1      19.109 -15.637  22.905  1.00  0.00     0.099 A 
HETATM   21  N4  UNL     1      18.921 -16.455  23.957  1.00  0.00    -0.369 N 
HETATM   22  C12 UNL     1      17.673 -17.171  24.087  1.00  0.00     0.154 C 
HETATM   23  C13 UNL     1      19.865 -16.646  24.911  1.00  0.00     0.105 A 
HETATM   24  C14 UNL     1      21.080 -15.975  24.808  1.00  0.00     0.023 A 
HETATM   25  C15 UNL     1      22.066 -16.135  25.768  1.00  0.00     0.121 A 
HETATM   26  C17 UNL     1      21.283 -15.138  23.738  1.00  0.00     0.069 A 
HETATM   27  N5  UNL     1      23.234 -15.449  25.630  1.00  0.00    -0.201 N 
HETATM   28  C16 UNL     1      23.441 -14.631  24.592  1.00  0.00     0.676 A 
ATOM     29  H5  UNL     1      23.965 -15.560  26.332  1.00  0.00     0.183 HD
HETATM   30  N7  UNL     1      22.460 -14.490  23.662  1.00  0.00    -0.191 N 
ATOM     31  H7  UNL     1      22.624 -13.865  22.872  1.00  0.00     0.184 HD
BRANCH  28  32
HETATM   32  N6  UNL     1      24.570 -14.005  24.521  1.00  0.00    -0.234 N 
ATOM     33  H62 UNL     1      24.706 -13.066  24.893  1.00  0.00     0.174 HD
ATOM     34  H61 UNL     1      25.357 -14.478  24.076  1.00  0.00     0.174 HD
ENDBRANCH  28  32
ENDBRANCH  18  19
ENDBRANCH   1  18
TORSDOF 9
ENDMDL
MODEL 5
REMARK VINA RESULT: -7.452871330      2.582      5.072
REMARK  9 active torsions:
REMARK  status: ('A' for Active; 'I' for Inactive)
REMARK    1  A    between atoms: N1_2  and  C2_4 
REMARK    2  A    between atoms: C2_4  and  C3_6 
REMARK    3  A    between atoms: N3_8  and  C5_9 
REMARK    4  A    between atoms: C5_9  and  C6_10 
REMARK    5  A    between atoms: C6_10  and  C7_11 
REMARK    6  A    between atoms: C7_11  and  C8_12 
REMARK    7  A    between atoms: C8_12  and  C9_13 
REMARK    8  A    between atoms: C9_13  and  C10_14 
REMARK    9  A    between atoms: C16_23  and  N6_24 
ROOT
HETATM    1  C8  UNL     1      16.858 -12.904  21.615  1.00  0.00     0.005 C 
ENDROOT
BRANCH   1   2
HETATM    2  C7  UNL     1      18.258 -12.450  21.292  1.00  0.00     0.002 C 
BRANCH   2   3
HETATM    3  C6  UNL     1      18.837 -13.301  20.181  1.00  0.00     0.020 C 
BRANCH   3   4
HETATM    4  C5  UNL     1      20.190 -13.771  20.534  1.00  0.00     0.129 C 
BRANCH   4   5
HETATM    5  N3  UNL     1      20.330 -14.583  21.701  1.00  0.00    -0.352 N 
HETATM    6  C4  UNL     1      21.036 -14.149  22.764  1.00  0.00     0.108 A 
HETATM    7  C3  UNL     1      21.197 -14.876  23.945  1.00  0.00     0.043 A 
HETATM    8  C20 UNL     1      20.589 -16.130  24.028  1.00  0.00     0.023 A 
HETATM    9  N8  UNL     1      19.883 -16.531  22.932  1.00  0.00    -0.350 N 
HETATM   10  C21 UNL     1      20.713 -17.006  25.200  1.00  0.00     0.069 C 
HETATM   11  C18 UNL     1      19.761 -15.791  21.824  1.00  0.00     0.185 A 
HETATM   12  C19 UNL     1      19.208 -17.841  22.992  1.00  0.00     0.156 C 
BRANCH   7  13
HETATM   13  C2  UNL     1      21.961 -14.347  25.059  1.00  0.00     0.129 C 
HETATM   14  N2  UNL     1      21.302 -13.779  26.221  1.00  0.00    -0.082 NA
BRANCH  13  15
HETATM   15  N1  UNL     1      23.195 -14.304  25.129  1.00  0.00    -0.364 N 
HETATM   16  C1  UNL     1      24.389 -14.207  24.504  1.00  0.00     0.119 C 
ATOM     17  H1  UNL     1      23.414 -14.374  26.123  1.00  0.00     0.165 HD
ENDBRANCH  13  15
ENDBRANCH   7  13
ENDBRANCH   4   5
ENDBRANCH   3   4
ENDBRANCH   2   3
ENDBRANCH   1   2
BRANCH   1  18
HETATM   18  C9  UNL     1      15.774 -12.235  20.851  1.00  0.00     0.042 C 
BRANCH  18  19
HETATM   19  C10 UNL     1      14.493 -12.951  20.786  1.00  0.00    -0.014 A 
HETATM   20  C11 UNL     1      14.317 -14.048  19.971  1.00  0.00     0.099 A 
HETATM   21  N4  UNL     1      13.133 -14.686  19.937  1.00  0.00    -0.369 N 
HETATM   22  C12 UNL     1      12.970 -15.840  19.083  1.00  0.00     0.154 C 
HETATM   23  C13 UNL     1      12.071 -14.294  20.683  1.00  0.00     0.105 A 
HETATM   24  C14 UNL     1      12.200 -13.191  21.521  1.00  0.00     0.023 A 
HETATM   25  C15 UNL     1      11.134 -12.751  22.290  1.00  0.00     0.121 A 
HETATM   26  C17 UNL     1      13.404 -12.532  21.564  1.00  0.00     0.069 A 
HETATM   27  N5  UNL     1      11.306 -11.660  23.086  1.00  0.00    -0.201 N 
HETATM   28  C16 UNL     1      12.475 -11.012  23.135  1.00  0.00     0.676 A 
ATOM     29  H5  UNL     1      10.527 -11.330  23.656  1.00  0.00     0.183 HD
HETATM   30  N7  UNL     1      13.506 -11.460  22.372  1.00  0.00    -0.191 N 
ATOM     31  H7  UNL     1      14.395 -10.962  22.414  1.00  0.00     0.184 HD
BRANCH  28  32
HETATM   32  N6  UNL     1      12.571  -9.980  23.908  1.00  0.00    -0.234 N 
ATOM     33  H62 UNL     1      11.823  -9.688  24.537  1.00  0.00     0.174 HD
ATOM     34  H61 UNL     1      13.435  -9.439  23.886  1.00  0.00     0.174 HD
ENDBRANCH  28  32
ENDBRANCH  18  19
ENDBRANCH   1  18
TORSDOF 9
ENDMDL
