MODEL 1
REMARK VINA RESULT: -8.649899403      0.000      0.000
REMARK  10 active torsions:
REMARK  status: ('A' for Active; 'I' for Inactive)
REMARK    1  A    between atoms: C3_5  and  C4_6 
REMARK    2  A    between atoms: C4_6  and  C5_7 
REMARK    3  A    between atoms: C8_10  and  C9_11 
REMARK    4  A    between atoms: C10_12  and  S1_13 
REMARK    5  A    between atoms: S1_13  and  N2_16 
REMARK    6  A    between atoms: N2_16  and  C11_18 
REMARK    7  A    between atoms: C11_18  and  C12_19 
REMARK    8  A    between atoms: C13_20  and  C14_21 
REMARK    9  A    between atoms: C14_21  and  N3_22 
REMARK   10  A    between atoms: N3_22  and  O3_23 
ROOT
HETATM    1  C5  UNL     1      18.781 -15.998  22.081  1.00  0.00     0.009 C 
HETATM    2  C6  UNL     1      17.515 -16.045  21.782  1.00  0.00     0.031 A 
HETATM    3  C7  UNL     1      16.912 -15.140  20.779  1.00  0.00     0.042 A 
HETATM    4  C8  UNL     1      15.601 -15.442  20.719  1.00  0.00    -0.018 A 
HETATM    5  C15 UNL     1      15.389 -16.510  21.665  1.00  0.00     0.102 A 
HETATM    6  N4  UNL     1      16.493 -16.855  22.274  1.00  0.00    -0.361 N 
HETATM    7  C16 UNL     1      16.545 -17.916  23.295  1.00  0.00     0.155 C 
ENDROOT
BRANCH   4   8
HETATM    8  C9  UNL     1      14.723 -14.725  19.820  1.00  0.00     0.026 C 
HETATM    9  C10 UNL     1      14.389 -13.484  19.829  1.00  0.00     0.132 C 
BRANCH   9  10
HETATM   10  S1  UNL     1      14.785 -12.143  20.834  1.00  0.00     0.249 S 
HETATM   11  O1  UNL     1      16.096 -11.540  20.422  1.00  0.00    -0.201 OA
HETATM   12  O2  UNL     1      14.793 -12.416  22.292  1.00  0.00    -0.201 OA
BRANCH  10  13
HETATM   13  N2  UNL     1      13.615 -10.850  20.564  1.00  0.00    -0.305 N 
ATOM     14  H2  UNL     1      13.830  -9.919  20.209  1.00  0.00     0.173 HD
BRANCH  13  15
HETATM   15  C11 UNL     1      12.287 -11.332  20.934  1.00  0.00     0.225 C 
BRANCH  15  16
HETATM   16  C12 UNL     1      11.929 -10.889  22.280  1.00  0.00    -0.085 C 
HETATM   17  C13 UNL     1      11.653 -10.517  23.397  1.00  0.00    -0.087 C 
BRANCH  17  18
HETATM   18  C14 UNL     1      11.343 -10.066  24.753  1.00  0.00     0.236 C 
BRANCH  18  19
HETATM   19  N3  UNL     1      11.778  -8.717  24.995  1.00  0.00    -0.092 NA
BRANCH  19  20
HETATM   20  O3  UNL     1      13.122  -8.700  24.989  1.00  0.00    -0.295 OA
ATOM     21  H3  UNL     1      13.409  -8.104  24.306  1.00  0.00     0.238 HD
ENDBRANCH  19  20
ENDBRANCH  18  19
ENDBRANCH  17  18
ENDBRANCH  15  16
ENDBRANCH  13  15
ENDBRANCH  10  13
ENDBRANCH   9  10
ENDBRANCH   4   8
BRANCH   1  22
HETATM   22  C4  UNL     1      19.512 -16.821  23.040  1.00  0.00     0.087 C 
BRANCH  22  23
HETATM   23  C3  UNL     1      20.395 -15.888  23.825  1.00  0.00     0.019 A 
HETATM   24  N1  UNL     1      21.694 -15.632  23.624  1.00  0.00    -0.362 N 
HETATM   25  C2  UNL     1      22.105 -14.730  24.557  1.00  0.00     0.012 A 
ATOM     26  H1  UNL     1      22.276 -16.043  22.895  1.00  0.00     0.165 HD
HETATM   27  C1  UNL     1      23.467 -14.181  24.685  1.00  0.00     0.068 C 
HETATM   28  C19 UNL     1      21.035 -14.428  25.347  1.00  0.00    -0.032 A 
HETATM   29  C17 UNL     1      19.953 -15.153  24.894  1.00  0.00    -0.031 A 
HETATM   30  C20 UNL     1      20.946 -13.498  26.513  1.00  0.00     0.050 C 
HETATM   31  C18 UNL     1      18.569 -15.145  25.453  1.00  0.00     0.051 C 
ENDBRANCH  22  23
ENDBRANCH   1  22
TORSDOF 10
ENDMDL
MODEL 2
REMARK VINA RESULT: -8.378872703      1.358      1.538
REMARK  10 active torsions:
REMARK  status: ('A' for Active; 'I' for Inactive)
REMARK    1  A    between atoms: C3_5  and  C4_6 
REMARK    2  A    between atoms: C4_6  and  C5_7 
REMARK    3  A    between atoms: C8_10  and  C9_11 
REMARK    4  A    between atoms: C10_12  and  S1_13 
REMARK    5  A    between atoms: S1_13  and  N2_16 
REMARK    6  A    between atoms: N2_16  and  C11_18 
REMARK    7  A    between atoms: C11_18  and  C12_19 
REMARK    8  A    between atoms: C13_20  and  C14_21 
REMARK    9  A    between atoms: C14_21  and  N3_22 
REMARK   10  A    between atoms: N3_22  and  O3_23 
ROOT
HETATM    1  C5  UNL     1      18.425 -15.165  21.892  1.00  0.00     0.009 C 
HETATM    2  C6  UNL     1      17.335 -15.130  21.183  1.00  0.00     0.031 A 
HETATM    3  C7  UNL     1      17.093 -14.084  20.165  1.00  0.00     0.042 A 
HETATM    4  C8  UNL     1      15.883 -14.331  19.630  1.00  0.00    -0.018 A 
HETATM    5  C15 UNL     1      15.379 -15.506  20.298  1.00  0.00     0.102 A 
HETATM    6  N4  UNL     1      16.217 -15.963  21.191  1.00  0.00    -0.361 N 
HETATM    7  C16 UNL     1      15.936 -17.149  22.020  1.00  0.00     0.155 C 
ENDROOT
BRANCH   4   8
HETATM    8  C9  UNL     1      15.350 -13.475  18.592  1.00  0.00     0.026 C 
HETATM    9  C10 UNL     1      14.390 -12.624  18.656  1.00  0.00     0.132 C 
BRANCH   9  10
HETATM   10  S1  UNL     1      13.329 -12.104  19.909  1.00  0.00     0.249 S 
HETATM   11  O1  UNL     1      12.285 -13.145  20.184  1.00  0.00    -0.201 OA
HETATM   12  O2  UNL     1      12.683 -10.786  19.694  1.00  0.00    -0.201 OA
BRANCH  10  13
HETATM   13  N2  UNL     1      14.230 -11.988  21.422  1.00  0.00    -0.305 N 
ATOM     14  H2  UNL     1      15.154 -11.572  21.532  1.00  0.00     0.173 HD
BRANCH  13  15
HETATM   15  C11 UNL     1      13.436 -12.588  22.489  1.00  0.00     0.225 C 
BRANCH  15  16
HETATM   16  C12 UNL     1      12.693 -11.566  23.223  1.00  0.00    -0.085 C 
HETATM   17  C13 UNL     1      12.060 -10.725  23.820  1.00  0.00    -0.087 C 
BRANCH  17  18
HETATM   18  C14 UNL     1      11.277  -9.711  24.526  1.00  0.00     0.236 C 
BRANCH  18  19
HETATM   19  N3  UNL     1      12.106  -8.715  25.149  1.00  0.00    -0.092 NA
BRANCH  19  20
HETATM   20  O3  UNL     1      13.346  -8.822  24.643  1.00  0.00    -0.295 OA
ATOM     21  H3  UNL     1      13.947  -8.377  25.231  1.00  0.00     0.238 HD
ENDBRANCH  19  20
ENDBRANCH  18  19
ENDBRANCH  17  18
ENDBRANCH  15  16
ENDBRANCH  13  15
ENDBRANCH  10  13
ENDBRANCH   9  10
ENDBRANCH   4   8
BRANCH   1  22
HETATM   22  C4  UNL     1      18.801 -16.128  22.922  1.00  0.00     0.087 C 
BRANCH  22  23
HETATM   23  C3  UNL     1      19.881 -15.481  23.747  1.00  0.00     0.019 A 
HETATM   24  N1  UNL     1      21.174 -15.337  23.428  1.00  0.00    -0.362 N 
HETATM   25  C2  UNL     1      21.801 -14.697  24.453  1.00  0.00     0.012 A 
ATOM     26  H1  UNL     1      21.614 -15.653  22.564  1.00  0.00     0.165 HD
HETATM   27  C1  UNL     1      23.231 -14.343  24.502  1.00  0.00     0.068 C 
HETATM   28  C19 UNL     1      20.874 -14.444  25.420  1.00  0.00    -0.032 A 
HETATM   29  C17 UNL     1      19.660 -14.935  24.984  1.00  0.00    -0.031 A 
HETATM   30  C20 UNL     1      21.037 -13.767  26.742  1.00  0.00     0.050 C 
HETATM   31  C18 UNL     1      18.358 -14.885  25.711  1.00  0.00     0.051 C 
ENDBRANCH  22  23
ENDBRANCH   1  22
TORSDOF 10
ENDMDL
MODEL 3
REMARK VINA RESULT: -8.257783145      1.543      1.591
REMARK  10 active torsions:
REMARK  status: ('A' for Active; 'I' for Inactive)
REMARK    1  A    between atoms: C3_5  and  C4_6 
REMARK    2  A    between atoms: C4_6  and  C5_7 
REMARK    3  A    between atoms: C8_10  and  C9_11 
REMARK    4  A    between atoms: C10_12  and  S1_13 
REMARK    5  A    between atoms: S1_13  and  N2_16 
REMARK    6  A    between atoms: N2_16  and  C11_18 
REMARK    7  A    between atoms: C11_18  and  C12_19 
REMARK    8  A    between atoms: C13_20  and  C14_21 
REMARK    9  A    between atoms: C14_21  and  N3_22 
REMARK   10  A    between atoms: N3_22  and  O3_23 
ROOT
HETATM    1  C5  UNL     1      18.602 -15.731  22.135  1.00  0.00     0.009 C 
HETATM    2  C6  UNL     1      17.556 -16.022  21.417  1.00  0.00     0.031 A 
HETATM    3  C7  UNL     1      16.836 -14.999  20.628  1.00  0.00     0.042 A 
HETATM    4  C8  UNL     1      15.812 -15.624  20.018  1.00  0.00    -0.018 A 
HETATM    5  C15 UNL     1      15.889 -17.009  20.418  1.00  0.00     0.102 A 
HETATM    6  N4  UNL     1      16.895 -17.234  21.223  1.00  0.00    -0.361 N 
HETATM    7  C16 UNL     1      17.189 -18.564  21.783  1.00  0.00     0.155 C 
ENDROOT
BRANCH   4   8
HETATM    8  C9  UNL     1      14.906 -14.889  19.162  1.00  0.00     0.026 C 
HETATM    9  C10 UNL     1      13.798 -14.311  19.460  1.00  0.00     0.132 C 
BRANCH   9  10
HETATM   10  S1  UNL     1      12.893 -14.128  20.913  1.00  0.00     0.249 S 
HETATM   11  O1  UNL     1      12.698 -15.454  21.586  1.00  0.00    -0.201 OA
HETATM   12  O2  UNL     1      11.588 -13.438  20.771  1.00  0.00    -0.201 OA
BRANCH  10  13
HETATM   13  N2  UNL     1      13.840 -13.193  22.073  1.00  0.00    -0.305 N 
ATOM     14  H2  UNL     1      14.399 -13.581  22.832  1.00  0.00     0.173 HD
BRANCH  13  15
HETATM   15  C11 UNL     1      13.691 -11.774  21.767  1.00  0.00     0.225 C 
BRANCH  15  16
HETATM   16  C12 UNL     1      12.864 -11.108  22.772  1.00  0.00    -0.085 C 
HETATM   17  C13 UNL     1      12.181 -10.575  23.616  1.00  0.00    -0.087 C 
BRANCH  17  18
HETATM   18  C14 UNL     1      11.352  -9.952  24.647  1.00  0.00     0.236 C 
BRANCH  18  19
HETATM   19  N3  UNL     1      11.811  -8.636  24.997  1.00  0.00    -0.092 NA
BRANCH  19  20
HETATM   20  O3  UNL     1      13.155  -8.654  25.039  1.00  0.00    -0.295 OA
ATOM     21  H3  UNL     1      13.438  -8.117  25.770  1.00  0.00     0.238 HD
ENDBRANCH  19  20
ENDBRANCH  18  19
ENDBRANCH  17  18
ENDBRANCH  15  16
ENDBRANCH  13  15
ENDBRANCH  10  13
ENDBRANCH   9  10
ENDBRANCH   4   8
BRANCH   1  22
HETATM   22  C4  UNL     1      19.409 -16.626  22.958  1.00  0.00     0.087 C 
BRANCH  22  23
HETATM   23  C3  UNL     1      20.316 -15.755  23.784  1.00  0.00     0.019 A 
HETATM   24  N1  UNL     1      21.616 -15.503  23.578  1.00  0.00    -0.362 N 
HETATM   25  C2  UNL     1      22.053 -14.666  24.558  1.00  0.00     0.012 A 
ATOM     26  H1  UNL     1      22.182 -15.877  22.817  1.00  0.00     0.165 HD
HETATM   27  C1  UNL     1      23.424 -14.143  24.698  1.00  0.00     0.068 C 
HETATM   28  C19 UNL     1      21.000 -14.398  25.382  1.00  0.00    -0.032 A 
HETATM   29  C17 UNL     1      19.901 -15.080  24.903  1.00  0.00    -0.031 A 
HETATM   30  C20 UNL     1      20.941 -13.539  26.603  1.00  0.00     0.050 C 
HETATM   31  C18 UNL     1      18.525 -15.088  25.482  1.00  0.00     0.051 C 
ENDBRANCH  22  23
ENDBRANCH   1  22
TORSDOF 10
ENDMDL
MODEL 4
REMARK VINA RESULT: -8.045372827      1.839      3.025
REMARK  10 active torsions:
REMARK  status: ('A' for Active; 'I' for Inactive)
REMARK    1  A    between atoms: C3_5  and  C4_6 
REMARK    2  A    between atoms: C4_6  and  C5_7 
REMARK    3  A    between atoms: C8_10  and  C9_11 
REMARK    4  A    between atoms: C10_12  and  S1_13 
REMARK    5  A    between atoms: S1_13  and  N2_16 
REMARK    6  A    between atoms: N2_16  and  C11_18 
REMARK    7  A    between atoms: C11_18  and  C12_19 
REMARK    8  A    between atoms: C13_20  and  C14_21 
REMARK    9  A    between atoms: C14_21  and  N3_22 
REMARK   10  A    between atoms: N3_22  and  O3_23 
ROOT
HETATM    1  C5  UNL     1      19.236 -14.515  24.638  1.00  0.00     0.009 C 
HETATM    2  C6  UNL     1      18.829 -14.531  23.402  1.00  0.00     0.031 A 
HETATM    3  C7  UNL     1      17.443 -14.895  23.036  1.00  0.00     0.042 A 
HETATM    4  C8  UNL     1      17.360 -14.822  21.694  1.00  0.00    -0.018 A 
HETATM    5  C15 UNL     1      18.667 -14.421  21.232  1.00  0.00     0.102 A 
HETATM    6  N4  UNL     1      19.510 -14.255  22.217  1.00  0.00    -0.361 N 
HETATM    7  C16 UNL     1      20.913 -13.855  22.011  1.00  0.00     0.155 C 
ENDROOT
BRANCH   4   8
HETATM    8  C9  UNL     1      16.118 -15.123  21.017  1.00  0.00     0.026 C 
HETATM    9  C10 UNL     1      15.293 -14.324  20.442  1.00  0.00     0.132 C 
BRANCH   9  10
HETATM   10  S1  UNL     1      15.246 -12.620  20.197  1.00  0.00     0.249 S 
HETATM   11  O1  UNL     1      14.091 -12.244  19.316  1.00  0.00    -0.201 OA
HETATM   12  O2  UNL     1      16.495 -12.014  19.675  1.00  0.00    -0.201 OA
BRANCH  10  13
HETATM   13  N2  UNL     1      14.894 -11.823  21.731  1.00  0.00    -0.305 N 
ATOM     14  H2  UNL     1      15.258 -12.101  22.642  1.00  0.00     0.173 HD
BRANCH  13  15
HETATM   15  C11 UNL     1      13.994 -10.700  21.482  1.00  0.00     0.225 C 
BRANCH  15  16
HETATM   16  C12 UNL     1      13.089 -10.498  22.611  1.00  0.00    -0.085 C 
HETATM   17  C13 UNL     1      12.323 -10.340  23.534  1.00  0.00    -0.087 C 
BRANCH  17  18
HETATM   18  C14 UNL     1      11.378 -10.152  24.634  1.00  0.00     0.236 C 
BRANCH  18  19
HETATM   19  N3  UNL     1      11.309  -8.783  25.069  1.00  0.00    -0.092 NA
BRANCH  19  20
HETATM   20  O3  UNL     1      12.542  -8.395  25.437  1.00  0.00    -0.295 OA
ATOM     21  H3  UNL     1      12.481  -7.522  25.809  1.00  0.00     0.238 HD
ENDBRANCH  19  20
ENDBRANCH  18  19
ENDBRANCH  17  18
ENDBRANCH  15  16
ENDBRANCH  13  15
ENDBRANCH  10  13
ENDBRANCH   9  10
ENDBRANCH   4   8
BRANCH   1  22
HETATM   22  C4  UNL     1      20.561 -14.178  25.148  1.00  0.00     0.087 C 
BRANCH  22  23
HETATM   23  C3  UNL     1      21.352 -15.458  25.178  1.00  0.00     0.019 A 
HETATM   24  N1  UNL     1      20.899 -16.690  25.439  1.00  0.00    -0.362 N 
HETATM   25  C2  UNL     1      21.943 -17.559  25.361  1.00  0.00     0.012 A 
ATOM     26  H1  UNL     1      19.934 -16.937  25.659  1.00  0.00     0.165 HD
HETATM   27  C1  UNL     1      21.873 -19.015  25.580  1.00  0.00     0.068 C 
HETATM   28  C19 UNL     1      23.061 -16.845  25.046  1.00  0.00    -0.032 A 
HETATM   29  C17 UNL     1      22.699 -15.518  24.929  1.00  0.00    -0.031 A 
HETATM   30  C20 UNL     1      24.465 -17.313  24.844  1.00  0.00     0.050 C 
HETATM   31  C18 UNL     1      23.591 -14.369  24.597  1.00  0.00     0.051 C 
ENDBRANCH  22  23
ENDBRANCH   1  22
TORSDOF 10
ENDMDL
MODEL 5
REMARK VINA RESULT: -7.992490802      1.482      1.975
REMARK  10 active torsions:
REMARK  status: ('A' for Active; 'I' for Inactive)
REMARK    1  A    between atoms: C3_5  and  C4_6 
REMARK    2  A    between atoms: C4_6  and  C5_7 
REMARK    3  A    between atoms: C8_10  and  C9_11 
REMARK    4  A    between atoms: C10_12  and  S1_13 
REMARK    5  A    between atoms: S1_13  and  N2_16 
REMARK    6  A    between atoms: N2_16  and  C11_18 
REMARK    7  A    between atoms: C11_18  and  C12_19 
REMARK    8  A    between atoms: C13_20  and  C14_21 
REMARK    9  A    between atoms: C14_21  and  N3_22 
REMARK   10  A    between atoms: N3_22  and  O3_23 
ROOT
HETATM    1  C5  UNL     1      17.375 -14.950  22.594  1.00  0.00     0.009 C 
HETATM    2  C6  UNL     1      16.421 -15.106  21.722  1.00  0.00     0.031 A 
HETATM    3  C7  UNL     1      16.161 -14.113  20.656  1.00  0.00     0.042 A 
HETATM    4  C8  UNL     1      15.114 -14.569  19.944  1.00  0.00    -0.018 A 
HETATM    5  C15 UNL     1      14.727 -15.819  20.552  1.00  0.00     0.102 A 
HETATM    6  N4  UNL     1      15.482 -16.125  21.574  1.00  0.00    -0.361 N 
HETATM    7  C16 UNL     1      15.288 -17.348  22.374  1.00  0.00     0.155 C 
ENDROOT
BRANCH   4   8
HETATM    8  C9  UNL     1      14.608 -13.815  18.818  1.00  0.00     0.026 C 
HETATM    9  C10 UNL     1      13.987 -12.690  18.807  1.00  0.00     0.132 C 
BRANCH   9  10
HETATM   10  S1  UNL     1      13.481 -11.588  20.029  1.00  0.00     0.249 S 
HETATM   11  O1  UNL     1      12.690 -10.461  19.432  1.00  0.00    -0.201 OA
HETATM   12  O2  UNL     1      14.561 -11.045  20.889  1.00  0.00    -0.201 OA
BRANCH  10  13
HETATM   13  N2  UNL     1      12.334 -12.396  21.100  1.00  0.00    -0.305 N 
ATOM     14  H2  UNL     1      11.440 -12.797  20.819  1.00  0.00     0.173 HD
BRANCH  13  15
HETATM   15  C11 UNL     1      12.875 -12.394  22.456  1.00  0.00     0.225 C 
BRANCH  15  16
HETATM   16  C12 UNL     1      12.274 -11.328  23.255  1.00  0.00    -0.085 C 
HETATM   17  C13 UNL     1      11.783 -10.431  23.902  1.00  0.00    -0.087 C 
BRANCH  17  18
HETATM   18  C14 UNL     1      11.200  -9.331  24.669  1.00  0.00     0.236 C 
BRANCH  18  19
HETATM   19  N3  UNL     1      12.192  -8.577  25.386  1.00  0.00    -0.092 NA
BRANCH  19  20
HETATM   20  O3  UNL     1      13.336  -8.608  24.681  1.00  0.00    -0.295 OA
ATOM     21  H3  UNL     1      13.406  -9.459  24.264  1.00  0.00     0.238 HD
ENDBRANCH  19  20
ENDBRANCH  18  19
ENDBRANCH  17  18
ENDBRANCH  15  16
ENDBRANCH  13  15
ENDBRANCH  10  13
ENDBRANCH   9  10
ENDBRANCH   4   8
BRANCH   1  22
HETATM   22  C4  UNL     1      17.749 -15.838  23.691  1.00  0.00     0.087 C 
BRANCH  22  23
HETATM   23  C3  UNL     1      18.986 -15.254  24.317  1.00  0.00     0.019 A 
HETATM   24  N1  UNL     1      19.084 -14.623  25.495  1.00  0.00    -0.362 N 
HETATM   25  C2  UNL     1      20.381 -14.256  25.680  1.00  0.00     0.012 A 
ATOM     26  H1  UNL     1      18.316 -14.447  26.142  1.00  0.00     0.165 HD
HETATM   27  C1  UNL     1      20.915 -13.538  26.852  1.00  0.00     0.068 C 
HETATM   28  C19 UNL     1      21.094 -14.670  24.595  1.00  0.00    -0.032 A 
HETATM   29  C17 UNL     1      20.224 -15.300  23.729  1.00  0.00    -0.031 A 
HETATM   30  C20 UNL     1      22.551 -14.520  24.298  1.00  0.00     0.050 C 
HETATM   31  C18 UNL     1      20.555 -15.914  22.410  1.00  0.00     0.051 C 
ENDBRANCH  22  23
ENDBRANCH   1  22
TORSDOF 10
ENDMDL
