MODEL 1
REMARK VINA RESULT: -6.041163181      0.000      0.000
REMARK  6 active torsions:
REMARK  status: ('A' for Active; 'I' for Inactive)
REMARK    1  A    between atoms: C4_4  and  C5_5 
REMARK    2  A    between atoms: C5_5  and  C6_6 
REMARK    3  A    between atoms: C6_6  and  S1_7 
REMARK    4  A    between atoms: S1_7  and  C7_8 
REMARK    5  A    between atoms: C7_8  and  N1_10 
REMARK    6  A    between atoms: N1_10  and  C8_12 
ROOT
HETATM    1  C7  UNL     1      19.450   1.779   1.577  1.00  0.00     0.134 C 
HETATM    2  S2  UNL     1      18.068   1.757   2.421  1.00  0.00    -0.053 SA
ENDROOT
BRANCH   1   3
HETATM    3  S1  UNL     1      20.998   1.898   2.497  1.00  0.00    -0.101 SA
BRANCH   3   4
HETATM    4  C6  UNL     1      21.159   3.569   3.162  1.00  0.00     0.082 C 
BRANCH   4   5
HETATM    5  C5  UNL     1      21.926   4.446   2.221  1.00  0.00     0.015 C 
BRANCH   5   6
HETATM    6  C4  UNL     1      23.324   3.935   2.101  1.00  0.00    -0.010 A 
HETATM    7  C2  UNL     1      24.083   4.137   0.807  1.00  0.00    -0.014 A 
HETATM    8  C1  UNL     1      23.297   4.858  -0.284  1.00  0.00     0.010 C 
HETATM    9  C3  UNL     1      24.419   4.931   2.058  1.00  0.00     0.009 A 
ENDBRANCH   5   6
ENDBRANCH   4   5
ENDBRANCH   3   4
ENDBRANCH   1   3
BRANCH   1  10
HETATM   10  N1  UNL     1      19.464   1.701   0.165  1.00  0.00    -0.371 N 
ATOM     11  H1  UNL     1      18.998   0.924  -0.305  1.00  0.00     0.161 HD
BRANCH  10  12
HETATM   12  C8  UNL     1      20.130   2.709  -0.610  1.00  0.00     0.083 C 
HETATM   13  C9  UNL     1      19.425   4.007  -0.404  1.00  0.00     0.025 C 
HETATM   14  C10 UNL     1      19.619   5.052  -1.429  1.00  0.00     0.002 C 
HETATM   15  C11 UNL     1      20.394   4.577  -2.627  1.00  0.00     0.000 C 
HETATM   16  C12 UNL     1      19.702   3.264  -3.024  1.00  0.00     0.002 C 
HETATM   17  C13 UNL     1      20.201   2.241  -2.029  1.00  0.00     0.025 C 
ENDBRANCH  10  12
ENDBRANCH   1  10
TORSDOF 6
ENDMDL
MODEL 2
REMARK VINA RESULT: -5.991763720      1.658      4.930
REMARK  6 active torsions:
REMARK  status: ('A' for Active; 'I' for Inactive)
REMARK    1  A    between atoms: C4_4  and  C5_5 
REMARK    2  A    between atoms: C5_5  and  C6_6 
REMARK    3  A    between atoms: C6_6  and  S1_7 
REMARK    4  A    between atoms: S1_7  and  C7_8 
REMARK    5  A    between atoms: C7_8  and  N1_10 
REMARK    6  A    between atoms: N1_10  and  C8_12 
ROOT
HETATM    1  C7  UNL     1      20.479   3.455   2.530  1.00  0.00     0.134 C 
HETATM    2  S2  UNL     1      20.228   2.170   3.485  1.00  0.00    -0.053 SA
ENDROOT
BRANCH   1   3
HETATM    3  S1  UNL     1      19.405   3.661   1.094  1.00  0.00    -0.101 SA
BRANCH   3   4
HETATM    4  C6  UNL     1      19.831   2.415  -0.142  1.00  0.00     0.082 C 
BRANCH   4   5
HETATM    5  C5  UNL     1      20.525   3.041  -1.312  1.00  0.00     0.015 C 
BRANCH   5   6
HETATM    6  C4  UNL     1      19.686   4.158  -1.841  1.00  0.00    -0.010 A 
HETATM    7  C2  UNL     1      20.332   5.492  -2.152  1.00  0.00    -0.014 A 
HETATM    8  C1  UNL     1      21.829   5.555  -1.866  1.00  0.00     0.010 C 
HETATM    9  C3  UNL     1      19.877   4.552  -3.256  1.00  0.00     0.009 A 
ENDBRANCH   5   6
ENDBRANCH   4   5
ENDBRANCH   3   4
ENDBRANCH   1   3
BRANCH   1  10
HETATM   10  N1  UNL     1      21.498   4.397   2.799  1.00  0.00    -0.371 N 
ATOM     11  H1  UNL     1      21.251   5.335   3.118  1.00  0.00     0.161 HD
BRANCH  10  12
HETATM   12  C8  UNL     1      22.878   4.043   2.627  1.00  0.00     0.083 C 
HETATM   13  C9  UNL     1      23.707   4.936   3.488  1.00  0.00     0.025 C 
HETATM   14  C10 UNL     1      25.133   5.083   3.135  1.00  0.00     0.002 C 
HETATM   15  C11 UNL     1      25.499   4.413   1.839  1.00  0.00     0.000 C 
HETATM   16  C12 UNL     1      24.432   4.904   0.848  1.00  0.00     0.002 C 
HETATM   17  C13 UNL     1      23.198   4.091   1.166  1.00  0.00     0.025 C 
ENDBRANCH  10  12
ENDBRANCH   1  10
TORSDOF 6
ENDMDL
MODEL 3
REMARK VINA RESULT: -5.989882206      1.950      4.807
REMARK  6 active torsions:
REMARK  status: ('A' for Active; 'I' for Inactive)
REMARK    1  A    between atoms: C4_4  and  C5_5 
REMARK    2  A    between atoms: C5_5  and  C6_6 
REMARK    3  A    between atoms: C6_6  and  S1_7 
REMARK    4  A    between atoms: S1_7  and  C7_8 
REMARK    5  A    between atoms: C7_8  and  N1_10 
REMARK    6  A    between atoms: N1_10  and  C8_12 
ROOT
HETATM    1  C7  UNL     1      21.273   4.218   3.300  1.00  0.00     0.134 C 
HETATM    2  S2  UNL     1      20.981   2.815   4.056  1.00  0.00    -0.053 SA
ENDROOT
BRANCH   1   3
HETATM    3  S1  UNL     1      19.862   5.131   2.642  1.00  0.00    -0.101 SA
BRANCH   3   4
HETATM    4  C6  UNL     1      19.277   4.307   1.145  1.00  0.00     0.082 C 
BRANCH   4   5
HETATM    5  C5  UNL     1      19.634   5.101  -0.074  1.00  0.00     0.015 C 
BRANCH   5   6
HETATM    6  C4  UNL     1      19.400   4.266  -1.290  1.00  0.00    -0.010 A 
HETATM    7  C2  UNL     1      20.260   4.481  -2.518  1.00  0.00    -0.014 A 
HETATM    8  C1  UNL     1      21.305   5.582  -2.377  1.00  0.00     0.010 C 
HETATM    9  C3  UNL     1      20.423   3.253  -1.637  1.00  0.00     0.009 A 
ENDBRANCH   5   6
ENDBRANCH   4   5
ENDBRANCH   3   4
ENDBRANCH   1   3
BRANCH   1  10
HETATM   10  N1  UNL     1      22.583   4.730   3.158  1.00  0.00    -0.371 N 
ATOM     11  H1  UNL     1      22.860   5.566   3.674  1.00  0.00     0.161 HD
BRANCH  10  12
HETATM   12  C8  UNL     1      23.525   4.081   2.291  1.00  0.00     0.083 C 
HETATM   13  C9  UNL     1      24.878   4.657   2.548  1.00  0.00     0.025 C 
HETATM   14  C10 UNL     1      25.892   4.499   1.486  1.00  0.00     0.002 C 
HETATM   15  C11 UNL     1      25.342   3.904   0.219  1.00  0.00     0.000 C 
HETATM   16  C12 UNL     1      24.083   4.736  -0.071  1.00  0.00     0.002 C 
HETATM   17  C13 UNL     1      23.036   4.208   0.884  1.00  0.00     0.025 C 
ENDBRANCH  10  12
ENDBRANCH   1  10
TORSDOF 6
ENDMDL
MODEL 4
REMARK VINA RESULT: -5.976640106      1.160      2.000
REMARK  6 active torsions:
REMARK  status: ('A' for Active; 'I' for Inactive)
REMARK    1  A    between atoms: C4_4  and  C5_5 
REMARK    2  A    between atoms: C5_5  and  C6_6 
REMARK    3  A    between atoms: C6_6  and  S1_7 
REMARK    4  A    between atoms: S1_7  and  C7_8 
REMARK    5  A    between atoms: C7_8  and  N1_10 
REMARK    6  A    between atoms: N1_10  and  C8_12 
ROOT
HETATM    1  C7  UNL     1      19.823   2.358   1.317  1.00  0.00     0.134 C 
HETATM    2  S2  UNL     1      18.293   2.585   1.798  1.00  0.00    -0.053 SA
ENDROOT
BRANCH   1   3
HETATM    3  S1  UNL     1      21.042   1.904   2.568  1.00  0.00    -0.101 SA
BRANCH   3   4
HETATM    4  C6  UNL     1      21.957   3.381   3.059  1.00  0.00     0.082 C 
BRANCH   4   5
HETATM    5  C5  UNL     1      23.429   3.186   2.864  1.00  0.00     0.015 C 
BRANCH   5   6
HETATM    6  C4  UNL     1      23.915   4.127   1.811  1.00  0.00    -0.010 A 
HETATM    7  C2  UNL     1      25.128   4.990   2.085  1.00  0.00    -0.014 A 
HETATM    8  C1  UNL     1      25.738   4.805   3.471  1.00  0.00     0.010 C 
HETATM    9  C3  UNL     1      25.193   3.804   1.137  1.00  0.00     0.009 A 
ENDBRANCH   5   6
ENDBRANCH   4   5
ENDBRANCH   3   4
ENDBRANCH   1   3
BRANCH   1  10
HETATM   10  N1  UNL     1      20.209   2.501  -0.036  1.00  0.00    -0.371 N 
ATOM     11  H1  UNL     1      20.604   1.705  -0.538  1.00  0.00     0.161 HD
BRANCH  10  12
HETATM   12  C8  UNL     1      20.048   3.760  -0.708  1.00  0.00     0.083 C 
HETATM   13  C9  UNL     1      19.826   3.496  -2.159  1.00  0.00     0.025 C 
HETATM   14  C10 UNL     1      20.102   4.603  -3.097  1.00  0.00     0.002 C 
HETATM   15  C11 UNL     1      20.727   5.802  -2.438  1.00  0.00     0.000 C 
HETATM   16  C12 UNL     1      21.884   5.216  -1.615  1.00  0.00     0.002 C 
HETATM   17  C13 UNL     1      21.231   4.618  -0.390  1.00  0.00     0.025 C 
ENDBRANCH  10  12
ENDBRANCH   1  10
TORSDOF 6
ENDMDL
MODEL 5
REMARK VINA RESULT: -5.907723093      1.206      1.865
REMARK  6 active torsions:
REMARK  status: ('A' for Active; 'I' for Inactive)
REMARK    1  A    between atoms: C4_4  and  C5_5 
REMARK    2  A    between atoms: C5_5  and  C6_6 
REMARK    3  A    between atoms: C6_6  and  S1_7 
REMARK    4  A    between atoms: S1_7  and  C7_8 
REMARK    5  A    between atoms: C7_8  and  N1_10 
REMARK    6  A    between atoms: N1_10  and  C8_12 
ROOT
HETATM    1  C7  UNL     1      19.845   2.554   1.525  1.00  0.00     0.134 C 
HETATM    2  S2  UNL     1      18.314   2.870   1.952  1.00  0.00    -0.053 SA
ENDROOT
BRANCH   1   3
HETATM    3  S1  UNL     1      20.985   2.016   2.816  1.00  0.00    -0.101 SA
BRANCH   3   4
HETATM    4  C6  UNL     1      22.151   3.351   3.163  1.00  0.00     0.082 C 
BRANCH   4   5
HETATM    5  C5  UNL     1      23.487   3.065   2.550  1.00  0.00     0.015 C 
BRANCH   5   6
HETATM    6  C4  UNL     1      24.510   3.969   3.156  1.00  0.00    -0.010 A 
HETATM    7  C2  UNL     1      25.565   4.598   2.270  1.00  0.00    -0.014 A 
HETATM    8  C1  UNL     1      25.473   4.210   0.798  1.00  0.00     0.010 C 
HETATM    9  C3  UNL     1      24.419   5.415   2.845  1.00  0.00     0.009 A 
ENDBRANCH   5   6
ENDBRANCH   4   5
ENDBRANCH   3   4
ENDBRANCH   1   3
BRANCH   1  10
HETATM   10  N1  UNL     1      20.289   2.684   0.189  1.00  0.00    -0.371 N 
ATOM     11  H1  UNL     1      20.673   1.874  -0.299  1.00  0.00     0.161 HD
BRANCH  10  12
HETATM   12  C8  UNL     1      20.204   3.949  -0.484  1.00  0.00     0.083 C 
HETATM   13  C9  UNL     1      19.886   3.700  -1.920  1.00  0.00     0.025 C 
HETATM   14  C10 UNL     1      20.209   4.774  -2.880  1.00  0.00     0.002 C 
HETATM   15  C11 UNL     1      20.968   5.917  -2.264  1.00  0.00     0.000 C 
HETATM   16  C12 UNL     1      22.111   5.236  -1.496  1.00  0.00     0.002 C 
HETATM   17  C13 UNL     1      21.472   4.702  -0.234  1.00  0.00     0.025 C 
ENDBRANCH  10  12
ENDBRANCH   1  10
TORSDOF 6
ENDMDL
