MODEL 1
REMARK VINA RESULT: -6.985677676      0.000      0.000
REMARK  4 active torsions:
REMARK  status: ('A' for Active; 'I' for Inactive)
REMARK    1  A    between atoms: C4_4  and  C5_5 
REMARK    2  A    between atoms: C5_5  and  C6_6 
REMARK    3  A    between atoms: C6_6  and  C7_7 
REMARK    4  A    between atoms: C7_7  and  N1_8 
ROOT
HETATM    1  C5  UNL     1      20.502   4.066  -0.443  1.00  0.00    -0.018 C 
HETATM    2  C13 UNL     1      19.784   2.772  -0.526  1.00  0.00     0.014 C 
HETATM    3  C14 UNL     1      20.570   2.518  -1.827  1.00  0.00     0.002 C 
HETATM    4  C15 UNL     1      20.617   4.032  -1.945  1.00  0.00     0.014 C 
ENDROOT
BRANCH   1   5
HETATM    5  C4  UNL     1      21.927   3.943   0.127  1.00  0.00    -0.002 C 
HETATM    6  C3  UNL     1      21.977   4.235   1.606  1.00  0.00     0.005 C 
HETATM    7  C2  UNL     1      23.412   3.897   2.039  1.00  0.00     0.000 C 
HETATM    8  C1  UNL     1      24.406   4.785   1.332  1.00  0.00     0.000 C 
HETATM    9  C17 UNL     1      24.290   4.524  -0.147  1.00  0.00     0.000 C 
HETATM   10  C16 UNL     1      22.868   4.915  -0.554  1.00  0.00     0.005 C 
ENDBRANCH   1   5
BRANCH   1  11
HETATM   11  C6  UNL     1      19.804   5.175   0.193  1.00  0.00    -0.005 C 
BRANCH  11  12
HETATM   12  C7  UNL     1      18.378   5.196   0.456  1.00  0.00     0.056 C 
BRANCH  12  13
HETATM   13  N1  UNL     1      17.880   5.582   1.728  1.00  0.00    -0.293 NA
HETATM   14  C8  UNL     1      17.307   4.523   2.505  1.00  0.00     0.095 C 
HETATM   15  C9  UNL     1      18.310   3.541   3.047  1.00  0.00     0.015 C 
HETATM   16  C10 UNL     1      19.130   4.244   4.090  1.00  0.00     0.002 C 
HETATM   17  C11 UNL     1      18.943   5.729   3.945  1.00  0.00     0.015 C 
HETATM   18  C12 UNL     1      18.992   6.129   2.489  1.00  0.00     0.095 C 
ENDBRANCH  12  13
ENDBRANCH  11  12
ENDBRANCH   1  11
TORSDOF 4
ENDMDL
MODEL 2
REMARK VINA RESULT: -6.978485160      1.597      4.063
REMARK  4 active torsions:
REMARK  status: ('A' for Active; 'I' for Inactive)
REMARK    1  A    between atoms: C4_4  and  C5_5 
REMARK    2  A    between atoms: C5_5  and  C6_6 
REMARK    3  A    between atoms: C6_6  and  C7_7 
REMARK    4  A    between atoms: C7_7  and  N1_8 
ROOT
HETATM    1  C5  UNL     1      21.627   4.054   2.723  1.00  0.00    -0.018 C 
HETATM    2  C13 UNL     1      20.817   5.193   3.218  1.00  0.00     0.014 C 
HETATM    3  C14 UNL     1      21.730   5.192   4.459  1.00  0.00     0.002 C 
HETATM    4  C15 UNL     1      21.920   3.714   4.161  1.00  0.00     0.014 C 
ENDROOT
BRANCH   1   5
HETATM    5  C4  UNL     1      22.956   4.481   2.074  1.00  0.00    -0.002 C 
HETATM    6  C3  UNL     1      22.976   4.218   0.589  1.00  0.00     0.005 C 
HETATM    7  C2  UNL     1      24.278   4.857   0.082  1.00  0.00     0.000 C 
HETATM    8  C1  UNL     1      25.479   4.194   0.710  1.00  0.00     0.000 C 
HETATM    9  C17 UNL     1      25.401   4.412   2.199  1.00  0.00     0.000 C 
HETATM   10  C16 UNL     1      24.121   3.725   2.679  1.00  0.00     0.005 C 
ENDBRANCH   1   5
BRANCH   1  11
HETATM   11  C6  UNL     1      20.953   3.074   1.883  1.00  0.00    -0.005 C 
BRANCH  11  12
HETATM   12  C7  UNL     1      19.514   2.988   1.724  1.00  0.00     0.056 C 
BRANCH  12  13
HETATM   13  N1  UNL     1      18.922   3.045   0.435  1.00  0.00    -0.293 NA
HETATM   14  C8  UNL     1      18.442   4.335   0.041  1.00  0.00     0.095 C 
HETATM   15  C9  UNL     1      19.526   5.331  -0.269  1.00  0.00     0.015 C 
HETATM   16  C10 UNL     1      20.215   4.891  -1.527  1.00  0.00     0.002 C 
HETATM   17  C11 UNL     1      19.866   3.454  -1.803  1.00  0.00     0.015 C 
HETATM   18  C12 UNL     1      19.931   2.641  -0.531  1.00  0.00     0.095 C 
ENDBRANCH  12  13
ENDBRANCH  11  12
ENDBRANCH   1  11
TORSDOF 4
ENDMDL
MODEL 3
REMARK VINA RESULT: -6.782439747      2.547      3.689
REMARK  4 active torsions:
REMARK  status: ('A' for Active; 'I' for Inactive)
REMARK    1  A    between atoms: C4_4  and  C5_5 
REMARK    2  A    between atoms: C5_5  and  C6_6 
REMARK    3  A    between atoms: C6_6  and  C7_7 
REMARK    4  A    between atoms: C7_7  and  N1_8 
ROOT
HETATM    1  C5  UNL     1      20.499   4.073   0.718  1.00  0.00    -0.018 C 
HETATM    2  C13 UNL     1      21.356   3.792  -0.458  1.00  0.00     0.014 C 
HETATM    3  C14 UNL     1      21.261   5.296  -0.779  1.00  0.00     0.002 C 
HETATM    4  C15 UNL     1      19.930   5.238  -0.049  1.00  0.00     0.014 C 
ENDROOT
BRANCH   1   5
HETATM    5  C4  UNL     1      21.271   4.650   1.918  1.00  0.00    -0.002 C 
HETATM    6  C3  UNL     1      22.530   3.872   2.214  1.00  0.00     0.005 C 
HETATM    7  C2  UNL     1      23.256   4.675   3.304  1.00  0.00     0.000 C 
HETATM    8  C1  UNL     1      22.422   4.748   4.560  1.00  0.00     0.000 C 
HETATM    9  C17 UNL     1      21.143   5.469   4.223  1.00  0.00     0.000 C 
HETATM   10  C16 UNL     1      20.422   4.622   3.172  1.00  0.00     0.005 C 
ENDBRANCH   1   5
BRANCH   1  11
HETATM   11  C6  UNL     1      19.609   3.008   1.161  1.00  0.00    -0.005 C 
BRANCH  11  12
HETATM   12  C7  UNL     1      19.899   1.594   1.027  1.00  0.00     0.056 C 
BRANCH  12  13
HETATM   13  N1  UNL     1      19.509   0.674   2.035  1.00  0.00    -0.293 NA
HETATM   14  C8  UNL     1      20.586  -0.007   2.687  1.00  0.00     0.095 C 
HETATM   15  C9  UNL     1      21.400   0.860   3.608  1.00  0.00     0.015 C 
HETATM   16  C10 UNL     1      20.541   1.221   4.785  1.00  0.00     0.002 C 
HETATM   17  C11 UNL     1      19.103   0.940   4.449  1.00  0.00     0.015 C 
HETATM   18  C12 UNL     1      18.783   1.417   3.052  1.00  0.00     0.095 C 
ENDBRANCH  12  13
ENDBRANCH  11  12
ENDBRANCH   1  11
TORSDOF 4
ENDMDL
MODEL 4
REMARK VINA RESULT: -6.632504430      2.651      4.539
REMARK  4 active torsions:
REMARK  status: ('A' for Active; 'I' for Inactive)
REMARK    1  A    between atoms: C4_4  and  C5_5 
REMARK    2  A    between atoms: C5_5  and  C6_6 
REMARK    3  A    between atoms: C6_6  and  C7_7 
REMARK    4  A    between atoms: C7_7  and  N1_8 
ROOT
HETATM    1  C5  UNL     1      19.943   3.010   1.367  1.00  0.00    -0.018 C 
HETATM    2  C13 UNL     1      19.801   4.334   2.020  1.00  0.00     0.014 C 
HETATM    3  C14 UNL     1      21.341   4.392   2.041  1.00  0.00     0.002 C 
HETATM    4  C15 UNL     1      21.272   2.875   2.065  1.00  0.00     0.014 C 
ENDROOT
BRANCH   1   5
HETATM    5  C4  UNL     1      20.227   3.096  -0.143  1.00  0.00    -0.002 C 
HETATM    6  C3  UNL     1      19.391   4.153  -0.821  1.00  0.00     0.005 C 
HETATM    7  C2  UNL     1      19.920   4.227  -2.262  1.00  0.00     0.000 C 
HETATM    8  C1  UNL     1      19.715   2.913  -2.974  1.00  0.00     0.000 C 
HETATM    9  C17 UNL     1      20.505   1.862  -2.239  1.00  0.00     0.000 C 
HETATM   10  C16 UNL     1      19.924   1.779  -0.827  1.00  0.00     0.005 C 
ENDBRANCH   1   5
BRANCH   1  11
HETATM   11  C6  UNL     1      18.900   2.027   1.625  1.00  0.00    -0.005 C 
BRANCH  11  12
HETATM   12  C7  UNL     1      17.619   2.337   2.229  1.00  0.00     0.056 C 
BRANCH  12  13
HETATM   13  N1  UNL     1      17.210   1.701   3.431  1.00  0.00    -0.293 NA
HETATM   14  C8  UNL     1      16.016   0.917   3.329  1.00  0.00     0.095 C 
HETATM   15  C9  UNL     1      16.179  -0.361   2.552  1.00  0.00     0.015 C 
HETATM   16  C10 UNL     1      17.054  -1.282   3.352  1.00  0.00     0.002 C 
HETATM   17  C11 UNL     1      17.763  -0.489   4.414  1.00  0.00     0.015 C 
HETATM   18  C12 UNL     1      18.283   0.810   3.844  1.00  0.00     0.095 C 
ENDBRANCH  12  13
ENDBRANCH  11  12
ENDBRANCH   1  11
TORSDOF 4
ENDMDL
MODEL 5
REMARK VINA RESULT: -6.593173326      1.805      5.024
REMARK  4 active torsions:
REMARK  status: ('A' for Active; 'I' for Inactive)
REMARK    1  A    between atoms: C4_4  and  C5_5 
REMARK    2  A    between atoms: C5_5  and  C6_6 
REMARK    3  A    between atoms: C6_6  and  C7_7 
REMARK    4  A    between atoms: C7_7  and  N1_8 
ROOT
HETATM    1  C5  UNL     1      20.747   3.299   2.176  1.00  0.00    -0.018 C 
HETATM    2  C13 UNL     1      21.564   2.303   2.909  1.00  0.00     0.014 C 
HETATM    3  C14 UNL     1      22.664   3.379   2.973  1.00  0.00     0.002 C 
HETATM    4  C15 UNL     1      22.036   3.917   1.699  1.00  0.00     0.014 C 
ENDROOT
BRANCH   1   5
HETATM    5  C4  UNL     1      20.060   4.326   3.094  1.00  0.00    -0.002 C 
HETATM    6  C3  UNL     1      18.768   3.803   3.670  1.00  0.00     0.005 C 
HETATM    7  C2  UNL     1      18.316   4.865   4.684  1.00  0.00     0.000 C 
HETATM    8  C1  UNL     1      18.045   6.180   3.995  1.00  0.00     0.000 C 
HETATM    9  C17 UNL     1      19.334   6.648   3.371  1.00  0.00     0.000 C 
HETATM   10  C16 UNL     1      19.731   5.595   2.335  1.00  0.00     0.005 C 
ENDBRANCH   1   5
BRANCH   1  11
HETATM   11  C6  UNL     1      19.796   2.789   1.197  1.00  0.00    -0.005 C 
BRANCH  11  12
HETATM   12  C7  UNL     1      20.085   2.634  -0.215  1.00  0.00     0.056 C 
BRANCH  12  13
HETATM   13  N1  UNL     1      19.338   3.345  -1.191  1.00  0.00    -0.293 NA
HETATM   14  C8  UNL     1      19.269   4.761  -0.992  1.00  0.00     0.095 C 
HETATM   15  C9  UNL     1      20.559   5.488  -1.258  1.00  0.00     0.015 C 
HETATM   16  C10 UNL     1      20.832   5.423  -2.733  1.00  0.00     0.002 C 
HETATM   17  C11 UNL     1      19.971   4.354  -3.347  1.00  0.00     0.015 C 
HETATM   18  C12 UNL     1      19.969   3.115  -2.481  1.00  0.00     0.095 C 
ENDBRANCH  12  13
ENDBRANCH  11  12
ENDBRANCH   1  11
TORSDOF 4
ENDMDL
