MODEL 1
REMARK VINA RESULT: -7.180724667      0.000      0.000
REMARK  4 active torsions:
REMARK  status: ('A' for Active; 'I' for Inactive)
REMARK    1  A    between atoms: C2_2  and  C3_3 
REMARK    2  A    between atoms: C3_3  and  O1_4 
REMARK    3  A    between atoms: O1_4  and  C4_5 
REMARK    4  A    between atoms: C8_9  and  C9_10 
ROOT
HETATM    1  C4  UNL     1      22.166   5.128  -0.532  1.00  0.00     0.121 C 
HETATM    2  C5  UNL     1      21.751   5.094  -2.009  1.00  0.00     0.032 C 
HETATM    3  C6  UNL     1      20.379   5.721  -2.081  1.00  0.00     0.003 C 
HETATM    4  C7  UNL     1      19.440   4.723  -1.378  1.00  0.00     0.007 C 
HETATM    5  C8  UNL     1      19.846   4.740   0.081  1.00  0.00     0.019 C 
HETATM    6  C16 UNL     1      21.222   4.158   0.196  1.00  0.00     0.038 C 
ENDROOT
BRANCH   5   7
HETATM    7  C9  UNL     1      18.833   4.250   0.998  1.00  0.00     0.198 C 
HETATM    8  N1  UNL     1      17.493   4.335   0.388  1.00  0.00    -0.070 N 
HETATM    9  C10 UNL     1      16.629   3.816   1.463  1.00  0.00     0.233 C 
ATOM     10  H12 UNL     1      17.237   5.259   0.038  1.00  0.00     0.277 HD
ATOM     11  H11 UNL     1      17.396   3.861  -0.509  1.00  0.00     0.277 HD
HETATM   12  C11 UNL     1      17.410   3.903   2.741  1.00  0.00     0.039 C 
HETATM   13  C12 UNL     1      18.585   4.809   2.304  1.00  0.00    -0.010 C 
HETATM   14  C13 UNL     1      18.193   6.223   2.508  1.00  0.00     0.011 C 
HETATM   15  C15 UNL     1      19.584   4.874   3.384  1.00  0.00     0.011 C 
HETATM   16  C14 UNL     1      19.433   6.393   3.380  1.00  0.00     0.002 C 
ENDBRANCH   5   7
BRANCH   1  17
HETATM   17  O1  UNL     1      23.471   4.638  -0.498  1.00  0.00    -0.386 OA
BRANCH  17  18
HETATM   18  C3  UNL     1      23.810   4.461   0.836  1.00  0.00     0.167 C 
BRANCH  18  19
HETATM   19  C2  UNL     1      25.260   4.041   0.995  1.00  0.00     0.022 C 
HETATM   20  C1  UNL     1      25.866   3.913  -0.386  1.00  0.00     0.007 C 
ENDBRANCH  18  19
ENDBRANCH  17  18
ENDBRANCH   1  17
TORSDOF 4
ENDMDL
MODEL 2
REMARK VINA RESULT: -6.824766674      2.655      5.959
REMARK  4 active torsions:
REMARK  status: ('A' for Active; 'I' for Inactive)
REMARK    1  A    between atoms: C2_2  and  C3_3 
REMARK    2  A    between atoms: C3_3  and  O1_4 
REMARK    3  A    between atoms: O1_4  and  C4_5 
REMARK    4  A    between atoms: C8_9  and  C9_10 
ROOT
HETATM    1  C4  UNL     1      18.435   6.233   2.176  1.00  0.00     0.121 C 
HETATM    2  C5  UNL     1      19.053   5.537   3.396  1.00  0.00     0.032 C 
HETATM    3  C6  UNL     1      20.411   5.041   2.961  1.00  0.00     0.003 C 
HETATM    4  C7  UNL     1      20.127   3.910   1.956  1.00  0.00     0.007 C 
HETATM    5  C8  UNL     1      19.506   4.583   0.749  1.00  0.00     0.019 C 
HETATM    6  C16 UNL     1      18.167   5.124   1.147  1.00  0.00     0.038 C 
ENDROOT
BRANCH   5   7
HETATM    7  C9  UNL     1      19.580   3.813  -0.479  1.00  0.00     0.198 C 
HETATM    8  N1  UNL     1      20.031   2.435  -0.204  1.00  0.00    -0.070 N 
HETATM    9  C10 UNL     1      20.052   1.841  -1.552  1.00  0.00     0.233 C 
ATOM     10  H12 UNL     1      20.908   2.363   0.312  1.00  0.00     0.277 HD
ATOM     11  H11 UNL     1      19.472   1.928   0.481  1.00  0.00     0.277 HD
HETATM   12  C11 UNL     1      20.078   2.974  -2.536  1.00  0.00     0.039 C 
HETATM   13  C12 UNL     1      20.412   4.162  -1.605  1.00  0.00    -0.010 C 
HETATM   14  C13 UNL     1      21.884   4.285  -1.503  1.00  0.00     0.011 C 
HETATM   15  C15 UNL     1      20.304   5.423  -2.358  1.00  0.00     0.011 C 
HETATM   16  C14 UNL     1      21.751   5.729  -1.978  1.00  0.00     0.002 C 
ENDBRANCH   5   7
BRANCH   1  17
HETATM   17  O1  UNL     1      17.227   6.770   2.622  1.00  0.00    -0.386 OA
BRANCH  17  18
HETATM   18  C3  UNL     1      16.798   5.992   3.688  1.00  0.00     0.167 C 
BRANCH  18  19
HETATM   19  C2  UNL     1      15.432   5.384   3.425  1.00  0.00     0.022 C 
HETATM   20  C1  UNL     1      15.613   3.897   3.217  1.00  0.00     0.007 C 
ENDBRANCH  18  19
ENDBRANCH  17  18
ENDBRANCH   1  17
TORSDOF 4
ENDMDL
MODEL 3
REMARK VINA RESULT: -6.770724480      2.288      3.924
REMARK  4 active torsions:
REMARK  status: ('A' for Active; 'I' for Inactive)
REMARK    1  A    between atoms: C2_2  and  C3_3 
REMARK    2  A    between atoms: C3_3  and  O1_4 
REMARK    3  A    between atoms: O1_4  and  C4_5 
REMARK    4  A    between atoms: C8_9  and  C9_10 
ROOT
HETATM    1  C4  UNL     1      23.332   3.057   2.882  1.00  0.00     0.121 C 
HETATM    2  C5  UNL     1      22.899   2.141   4.035  1.00  0.00     0.032 C 
HETATM    3  C6  UNL     1      21.732   1.333   3.521  1.00  0.00     0.003 C 
HETATM    4  C7  UNL     1      20.581   2.341   3.358  1.00  0.00     0.007 C 
HETATM    5  C8  UNL     1      21.000   3.259   2.227  1.00  0.00     0.019 C 
HETATM    6  C16 UNL     1      22.183   4.058   2.682  1.00  0.00     0.038 C 
ENDROOT
BRANCH   5   7
HETATM    7  C9  UNL     1      19.909   3.978   1.594  1.00  0.00     0.198 C 
HETATM    8  N1  UNL     1      18.640   3.243   1.750  1.00  0.00    -0.070 N 
HETATM    9  C10 UNL     1      17.687   4.114   1.041  1.00  0.00     0.233 C 
ATOM     10  H12 UNL     1      18.661   2.275   1.428  1.00  0.00     0.277 HD
ATOM     11  H11 UNL     1      18.386   3.020   2.712  1.00  0.00     0.277 HD
HETATM   12  C11 UNL     1      18.490   5.014   0.147  1.00  0.00     0.039 C 
HETATM   13  C12 UNL     1      19.869   4.316   0.192  1.00  0.00    -0.010 C 
HETATM   14  C13 UNL     1      19.918   3.294  -0.878  1.00  0.00     0.011 C 
HETATM   15  C15 UNL     1      20.868   5.157  -0.489  1.00  0.00     0.011 C 
HETATM   16  C14 UNL     1      21.173   3.978  -1.411  1.00  0.00     0.002 C 
ENDBRANCH   5   7
BRANCH   1  17
HETATM   17  O1  UNL     1      24.469   3.724   3.338  1.00  0.00    -0.386 OA
BRANCH  17  18
HETATM   18  C3  UNL     1      24.808   4.667   2.379  1.00  0.00     0.167 C 
BRANCH  18  19
HETATM   19  C2  UNL     1      25.468   4.026   1.171  1.00  0.00     0.022 C 
HETATM   20  C1  UNL     1      24.679   4.420  -0.059  1.00  0.00     0.007 C 
ENDBRANCH  18  19
ENDBRANCH  17  18
ENDBRANCH   1  17
TORSDOF 4
ENDMDL
MODEL 4
REMARK VINA RESULT: -6.750096416      2.593      4.988
REMARK  4 active torsions:
REMARK  status: ('A' for Active; 'I' for Inactive)
REMARK    1  A    between atoms: C2_2  and  C3_3 
REMARK    2  A    between atoms: C3_3  and  O1_4 
REMARK    3  A    between atoms: O1_4  and  C4_5 
REMARK    4  A    between atoms: C8_9  and  C9_10 
ROOT
HETATM    1  C4  UNL     1      19.463   5.609   0.850  1.00  0.00     0.121 C 
HETATM    2  C5  UNL     1      18.476   6.048   1.939  1.00  0.00     0.032 C 
HETATM    3  C6  UNL     1      19.292   6.275   3.189  1.00  0.00     0.003 C 
HETATM    4  C7  UNL     1      19.769   4.877   3.621  1.00  0.00     0.007 C 
HETATM    5  C8  UNL     1      20.739   4.426   2.548  1.00  0.00     0.019 C 
HETATM    6  C16 UNL     1      19.974   4.223   1.275  1.00  0.00     0.038 C 
ENDROOT
BRANCH   5   7
HETATM    7  C9  UNL     1      21.649   3.373   2.957  1.00  0.00     0.198 C 
HETATM    8  N1  UNL     1      21.324   2.900   4.316  1.00  0.00    -0.070 N 
HETATM    9  C10 UNL     1      22.350   1.868   4.541  1.00  0.00     0.233 C 
ATOM     10  H12 UNL     1      21.283   3.630   5.028  1.00  0.00     0.277 HD
ATOM     11  H11 UNL     1      20.362   2.586   4.444  1.00  0.00     0.277 HD
HETATM   12  C11 UNL     1      23.453   2.117   3.553  1.00  0.00     0.039 C 
HETATM   13  C12 UNL     1      23.080   3.531   3.050  1.00  0.00    -0.010 C 
HETATM   14  C13 UNL     1      23.719   4.532   3.935  1.00  0.00     0.011 C 
HETATM   15  C15 UNL     1      23.951   3.896   1.919  1.00  0.00     0.011 C 
HETATM   16  C14 UNL     1      24.380   5.136   2.700  1.00  0.00     0.002 C 
ENDBRANCH   5   7
BRANCH   1  17
HETATM   17  O1  UNL     1      18.710   5.500  -0.319  1.00  0.00    -0.386 OA
BRANCH  17  18
HETATM   18  C3  UNL     1      19.443   4.734  -1.212  1.00  0.00     0.167 C 
BRANCH  18  19
HETATM   19  C2  UNL     1      20.124   5.594  -2.262  1.00  0.00     0.022 C 
HETATM   20  C1  UNL     1      21.619   5.484  -2.061  1.00  0.00     0.007 C 
ENDBRANCH  18  19
ENDBRANCH  17  18
ENDBRANCH   1  17
TORSDOF 4
ENDMDL
MODEL 5
REMARK VINA RESULT: -6.732222482      1.467      1.973
REMARK  4 active torsions:
REMARK  status: ('A' for Active; 'I' for Inactive)
REMARK    1  A    between atoms: C2_2  and  C3_3 
REMARK    2  A    between atoms: C3_3  and  O1_4 
REMARK    3  A    between atoms: O1_4  and  C4_5 
REMARK    4  A    between atoms: C8_9  and  C9_10 
ROOT
HETATM    1  C4  UNL     1      23.137   4.870   0.118  1.00  0.00     0.121 C 
HETATM    2  C5  UNL     1      22.460   4.905  -1.258  1.00  0.00     0.032 C 
HETATM    3  C6  UNL     1      21.113   5.558  -1.055  1.00  0.00     0.003 C 
HETATM    4  C7  UNL     1      20.293   4.548  -0.232  1.00  0.00     0.007 C 
HETATM    5  C8  UNL     1      20.957   4.495   1.129  1.00  0.00     0.019 C 
HETATM    6  C16 UNL     1      22.317   3.885   0.968  1.00  0.00     0.038 C 
ENDROOT
BRANCH   5   7
HETATM    7  C9  UNL     1      20.116   3.983   2.195  1.00  0.00     0.198 C 
HETATM    8  N1  UNL     1      18.708   4.364   1.975  1.00  0.00    -0.070 N 
HETATM    9  C10 UNL     1      18.040   3.773   3.148  1.00  0.00     0.233 C 
ATOM     10  H12 UNL     1      18.546   5.362   1.845  1.00  0.00     0.277 HD
ATOM     11  H11 UNL     1      18.321   4.084   1.074  1.00  0.00     0.277 HD
HETATM   12  C11 UNL     1      19.101   3.512   4.177  1.00  0.00     0.039 C 
HETATM   13  C12 UNL     1      20.284   4.315   3.588  1.00  0.00    -0.010 C 
HETATM   14  C13 UNL     1      20.209   5.705   4.094  1.00  0.00     0.011 C 
HETATM   15  C15 UNL     1      21.502   4.039   4.368  1.00  0.00     0.011 C 
HETATM   16  C14 UNL     1      21.628   5.539   4.628  1.00  0.00     0.002 C 
ENDBRANCH   5   7
BRANCH   1  17
HETATM   17  O1  UNL     1      24.414   4.357  -0.104  1.00  0.00    -0.386 OA
BRANCH  17  18
HETATM   18  C3  UNL     1      24.824   3.747   1.072  1.00  0.00     0.167 C 
BRANCH  18  19
HETATM   19  C2  UNL     1      25.787   4.624   1.853  1.00  0.00     0.022 C 
HETATM   20  C1  UNL     1      25.226   4.812   3.245  1.00  0.00     0.007 C 
ENDBRANCH  18  19
ENDBRANCH  17  18
ENDBRANCH   1  17
TORSDOF 4
ENDMDL
