MODEL 1
REMARK VINA RESULT: -6.808909991      0.000      0.000
REMARK  6 active torsions:
REMARK  status: ('A' for Active; 'I' for Inactive)
REMARK    1  A    between atoms: C2_2  and  C4_4 
REMARK    2  A    between atoms: C9_9  and  C10_10 
REMARK    3  A    between atoms: C10_10  and  S1_11 
REMARK    4  A    between atoms: S1_11  and  C11_12 
REMARK    5  A    between atoms: C11_12  and  C12_13 
REMARK    6  A    between atoms: C12_13  and  N1_15 
ROOT
HETATM    1  C4  UNL     1      23.313   4.013   2.112  1.00  0.00     0.014 C 
HETATM    2  C5  UNL     1      23.458   4.826   3.414  1.00  0.00     0.013 C 
HETATM    3  C6  UNL     1      22.363   4.435   4.347  1.00  0.00    -0.013 C 
HETATM    4  C7  UNL     1      21.313   5.528   4.397  1.00  0.00     0.005 C 
HETATM    5  C8  UNL     1      20.286   5.164   3.311  1.00  0.00     0.011 C 
HETATM    6  C9  UNL     1      20.900   3.910   2.634  1.00  0.00    -0.031 C 
HETATM    7  C14 UNL     1      21.529   3.274   3.855  1.00  0.00     0.015 C 
HETATM    8  C15 UNL     1      21.901   4.389   1.631  1.00  0.00     0.019 C 
ENDROOT
BRANCH   6   9
HETATM    9  C10 UNL     1      19.833   3.017   2.124  1.00  0.00     0.083 C 
BRANCH   9  10
HETATM   10  S1  UNL     1      19.324   3.179   0.445  1.00  0.00    -0.166 SA
BRANCH  10  11
HETATM   11  C11 UNL     1      19.881   1.953  -0.715  1.00  0.00     0.106 C 
BRANCH  11  12
HETATM   12  C12 UNL     1      20.280   2.564  -2.053  1.00  0.00     0.188 C 
HETATM   13  C13 UNL     1      20.612   4.030  -1.902  1.00  0.00     0.040 C 
BRANCH  12  14
HETATM   14  N1  UNL     1      19.288   2.324  -3.062  1.00  0.00    -0.075 N 
ATOM     15  H13 UNL     1      19.698   1.896  -3.893  1.00  0.00     0.274 HD
ATOM     16  H12 UNL     1      18.656   1.570  -2.791  1.00  0.00     0.274 HD
ATOM     17  H11 UNL     1      18.775   3.174  -3.296  1.00  0.00     0.274 HD
ENDBRANCH  12  14
ENDBRANCH  11  12
ENDBRANCH  10  11
ENDBRANCH   9  10
ENDBRANCH   6   9
BRANCH   1  18
HETATM   18  C2  UNL     1      24.318   4.404   1.104  1.00  0.00    -0.089 C 
HETATM   19  C1  UNL     1      23.937   4.753  -0.133  1.00  0.00     0.014 C 
HETATM   20  C3  UNL     1      25.779   4.436   1.381  1.00  0.00     0.043 C 
ENDBRANCH   1  18
TORSDOF 6
ENDMDL
MODEL 2
REMARK VINA RESULT: -6.793954141      0.984      1.140
REMARK  6 active torsions:
REMARK  status: ('A' for Active; 'I' for Inactive)
REMARK    1  A    between atoms: C2_2  and  C4_4 
REMARK    2  A    between atoms: C9_9  and  C10_10 
REMARK    3  A    between atoms: C10_10  and  S1_11 
REMARK    4  A    between atoms: S1_11  and  C11_12 
REMARK    5  A    between atoms: C11_12  and  C12_13 
REMARK    6  A    between atoms: C12_13  and  N1_15 
ROOT
HETATM    1  C4  UNL     1      23.562   4.120   3.096  1.00  0.00     0.014 C 
HETATM    2  C5  UNL     1      22.939   5.081   4.129  1.00  0.00     0.013 C 
HETATM    3  C6  UNL     1      21.553   4.624   4.434  1.00  0.00    -0.013 C 
HETATM    4  C7  UNL     1      20.549   5.536   3.756  1.00  0.00     0.005 C 
HETATM    5  C8  UNL     1      20.275   4.900   2.382  1.00  0.00     0.011 C 
HETATM    6  C9  UNL     1      21.250   3.694   2.337  1.00  0.00    -0.031 C 
HETATM    7  C14 UNL     1      21.195   3.300   3.798  1.00  0.00     0.015 C 
HETATM    8  C15 UNL     1      22.585   4.215   1.912  1.00  0.00     0.019 C 
ENDROOT
BRANCH   6   9
HETATM    9  C10 UNL     1      20.681   2.594   1.522  1.00  0.00     0.083 C 
BRANCH   9  10
HETATM   10  S1  UNL     1      19.822   2.998   0.039  1.00  0.00    -0.166 SA
BRANCH  10  11
HETATM   11  C11 UNL     1      19.944   1.866  -1.327  1.00  0.00     0.106 C 
BRANCH  11  12
HETATM   12  C12 UNL     1      19.904   2.580  -2.673  1.00  0.00     0.188 C 
HETATM   13  C13 UNL     1      19.978   4.078  -2.494  1.00  0.00     0.040 C 
BRANCH  12  14
HETATM   14  N1  UNL     1      18.772   2.172  -3.456  1.00  0.00    -0.075 N 
ATOM     15  H13 UNL     1      19.054   1.577  -4.236  1.00  0.00     0.274 HD
ATOM     16  H12 UNL     1      18.189   1.505  -2.949  1.00  0.00     0.274 HD
ATOM     17  H11 UNL     1      18.228   2.973  -3.777  1.00  0.00     0.274 HD
ENDBRANCH  12  14
ENDBRANCH  11  12
ENDBRANCH  10  11
ENDBRANCH   9  10
ENDBRANCH   6   9
BRANCH   1  18
HETATM   18  C2  UNL     1      24.911   4.555   2.684  1.00  0.00    -0.089 C 
HETATM   19  C1  UNL     1      25.311   4.409   1.412  1.00  0.00     0.014 C 
HETATM   20  C3  UNL     1      25.892   5.165   3.621  1.00  0.00     0.043 C 
ENDBRANCH   1  18
TORSDOF 6
ENDMDL
MODEL 3
REMARK VINA RESULT: -6.542170138      2.037      2.109
REMARK  6 active torsions:
REMARK  status: ('A' for Active; 'I' for Inactive)
REMARK    1  A    between atoms: C2_2  and  C4_4 
REMARK    2  A    between atoms: C9_9  and  C10_10 
REMARK    3  A    between atoms: C10_10  and  S1_11 
REMARK    4  A    between atoms: S1_11  and  C11_12 
REMARK    5  A    between atoms: C11_12  and  C12_13 
REMARK    6  A    between atoms: C12_13  and  N1_15 
ROOT
HETATM    1  C4  UNL     1      23.793   3.858   1.836  1.00  0.00     0.014 C 
HETATM    2  C5  UNL     1      24.119   4.867   2.956  1.00  0.00     0.013 C 
HETATM    3  C6  UNL     1      23.485   4.400   4.222  1.00  0.00    -0.013 C 
HETATM    4  C7  UNL     1      22.265   5.247   4.530  1.00  0.00     0.005 C 
HETATM    5  C8  UNL     1      21.081   4.522   3.868  1.00  0.00     0.011 C 
HETATM    6  C9  UNL     1      21.749   3.337   3.122  1.00  0.00    -0.031 C 
HETATM    7  C14 UNL     1      22.850   3.031   4.116  1.00  0.00     0.015 C 
HETATM    8  C15 UNL     1      22.256   3.858   1.816  1.00  0.00     0.019 C 
ENDROOT
BRANCH   6   9
HETATM    9  C10 UNL     1      20.829   2.176   3.056  1.00  0.00     0.083 C 
BRANCH   9  10
HETATM   10  S1  UNL     1      19.692   2.074   1.715  1.00  0.00    -0.166 SA
BRANCH  10  11
HETATM   11  C11 UNL     1      18.240   3.100   1.776  1.00  0.00     0.106 C 
BRANCH  11  12
HETATM   12  C12 UNL     1      18.252   4.180   0.701  1.00  0.00     0.188 C 
HETATM   13  C13 UNL     1      18.917   5.439   1.205  1.00  0.00     0.040 C 
BRANCH  12  14
HETATM   14  N1  UNL     1      16.937   4.421   0.177  1.00  0.00    -0.075 N 
ATOM     15  H13 UNL     1      16.781   3.905  -0.689  1.00  0.00     0.274 HD
ATOM     16  H12 UNL     1      16.220   3.982   0.755  1.00  0.00     0.274 HD
ATOM     17  H11 UNL     1      16.758   5.418   0.054  1.00  0.00     0.274 HD
ENDBRANCH  12  14
ENDBRANCH  11  12
ENDBRANCH  10  11
ENDBRANCH   9  10
ENDBRANCH   6   9
BRANCH   1  18
HETATM   18  C2  UNL     1      24.323   4.295   0.530  1.00  0.00    -0.089 C 
HETATM   19  C1  UNL     1      23.539   4.957  -0.333  1.00  0.00     0.014 C 
HETATM   20  C3  UNL     1      25.722   4.039   0.092  1.00  0.00     0.043 C 
ENDBRANCH   1  18
TORSDOF 6
ENDMDL
MODEL 4
REMARK VINA RESULT: -6.507729872      2.932      4.909
REMARK  6 active torsions:
REMARK  status: ('A' for Active; 'I' for Inactive)
REMARK    1  A    between atoms: C2_2  and  C4_4 
REMARK    2  A    between atoms: C9_9  and  C10_10 
REMARK    3  A    between atoms: C10_10  and  S1_11 
REMARK    4  A    between atoms: S1_11  and  C11_12 
REMARK    5  A    between atoms: C11_12  and  C12_13 
REMARK    6  A    between atoms: C12_13  and  N1_15 
ROOT
HETATM    1  C4  UNL     1      23.214   4.762   0.541  1.00  0.00     0.014 C 
HETATM    2  C5  UNL     1      22.872   4.411  -0.920  1.00  0.00     0.013 C 
HETATM    3  C6  UNL     1      21.421   4.666  -1.148  1.00  0.00    -0.013 C 
HETATM    4  C7  UNL     1      20.668   3.351  -1.204  1.00  0.00     0.005 C 
HETATM    5  C8  UNL     1      20.218   3.070   0.240  1.00  0.00     0.011 C 
HETATM    6  C9  UNL     1      20.856   4.228   1.053  1.00  0.00    -0.031 C 
HETATM    7  C14 UNL     1      20.729   5.330   0.022  1.00  0.00     0.015 C 
HETATM    8  C15 UNL     1      22.273   3.845   1.341  1.00  0.00     0.019 C 
ENDROOT
BRANCH   6   9
HETATM    9  C10 UNL     1      20.015   4.569   2.224  1.00  0.00     0.083 C 
BRANCH   9  10
HETATM   10  S1  UNL     1      20.453   3.912   3.800  1.00  0.00    -0.166 SA
BRANCH  10  11
HETATM   11  C11 UNL     1      21.758   4.715   4.701  1.00  0.00     0.106 C 
BRANCH  11  12
HETATM   12  C12 UNL     1      22.855   3.741   5.115  1.00  0.00     0.188 C 
HETATM   13  C13 UNL     1      22.528   2.335   4.672  1.00  0.00     0.040 C 
BRANCH  12  14
HETATM   14  N1  UNL     1      23.137   3.827   6.521  1.00  0.00    -0.075 N 
ATOM     15  H13 UNL     1      23.829   4.550   6.718  1.00  0.00     0.274 HD
ATOM     16  H12 UNL     1      22.347   4.217   7.035  1.00  0.00     0.274 HD
ATOM     17  H11 UNL     1      23.421   2.925   6.903  1.00  0.00     0.274 HD
ENDBRANCH  12  14
ENDBRANCH  11  12
ENDBRANCH  10  11
ENDBRANCH   9  10
ENDBRANCH   6   9
BRANCH   1  18
HETATM   18  C2  UNL     1      24.621   4.458   0.866  1.00  0.00    -0.089 C 
HETATM   19  C1  UNL     1      25.098   4.688   2.097  1.00  0.00     0.014 C 
HETATM   20  C3  UNL     1      25.581   3.893  -0.122  1.00  0.00     0.043 C 
ENDBRANCH   1  18
TORSDOF 6
ENDMDL
MODEL 5
REMARK VINA RESULT: -6.491126368      2.564      4.065
REMARK  6 active torsions:
REMARK  status: ('A' for Active; 'I' for Inactive)
REMARK    1  A    between atoms: C2_2  and  C4_4 
REMARK    2  A    between atoms: C9_9  and  C10_10 
REMARK    3  A    between atoms: C10_10  and  S1_11 
REMARK    4  A    between atoms: S1_11  and  C11_12 
REMARK    5  A    between atoms: C11_12  and  C12_13 
REMARK    6  A    between atoms: C12_13  and  N1_15 
ROOT
HETATM    1  C4  UNL     1      22.426   4.124   0.870  1.00  0.00     0.014 C 
HETATM    2  C5  UNL     1      23.891   4.446   0.517  1.00  0.00     0.013 C 
HETATM    3  C6  UNL     1      24.779   3.811   1.532  1.00  0.00    -0.013 C 
HETATM    4  C7  UNL     1      25.322   4.867   2.475  1.00  0.00     0.005 C 
HETATM    5  C8  UNL     1      24.320   4.934   3.641  1.00  0.00     0.011 C 
HETATM    6  C9  UNL     1      23.195   3.956   3.212  1.00  0.00    -0.031 C 
HETATM    7  C14 UNL     1      24.046   2.919   2.510  1.00  0.00     0.015 C 
HETATM    8  C15 UNL     1      22.284   4.700   2.289  1.00  0.00     0.019 C 
ENDROOT
BRANCH   6   9
HETATM    9  C10 UNL     1      22.564   3.332   4.400  1.00  0.00     0.083 C 
BRANCH   9  10
HETATM   10  S1  UNL     1      21.156   2.300   4.165  1.00  0.00    -0.166 SA
BRANCH  10  11
HETATM   11  C11 UNL     1      21.432   0.558   3.940  1.00  0.00     0.106 C 
BRANCH  11  12
HETATM   12  C12 UNL     1      20.707   0.014   2.714  1.00  0.00     0.188 C 
HETATM   13  C13 UNL     1      20.219   1.137   1.830  1.00  0.00     0.040 C 
BRANCH  12  14
HETATM   14  N1  UNL     1      19.660  -0.898   3.078  1.00  0.00    -0.075 N 
ATOM     15  H13 UNL     1      19.476  -1.571   2.333  1.00  0.00     0.274 HD
ATOM     16  H12 UNL     1      19.966  -1.545   3.805  1.00  0.00     0.274 HD
ATOM     17  H11 UNL     1      18.810  -0.404   3.352  1.00  0.00     0.274 HD
ENDBRANCH  12  14
ENDBRANCH  11  12
ENDBRANCH  10  11
ENDBRANCH   9  10
ENDBRANCH   6   9
BRANCH   1  18
HETATM   18  C2  UNL     1      21.480   4.787  -0.048  1.00  0.00    -0.089 C 
HETATM   19  C1  UNL     1      20.227   5.056   0.346  1.00  0.00     0.014 C 
HETATM   20  C3  UNL     1      21.839   5.191  -1.435  1.00  0.00     0.043 C 
ENDBRANCH   1  18
TORSDOF 6
ENDMDL
