MODEL 1
REMARK VINA RESULT: -8.066514854      0.000      0.000
REMARK  12 active torsions:
REMARK  status: ('A' for Active; 'I' for Inactive)
REMARK    1  A    between atoms: S1_2  and  C2_3 
REMARK    2  A    between atoms: C2_3  and  O1_4 
REMARK    3  A    between atoms: C2_3  and  C3_6 
REMARK    4  A    between atoms: C3_6  and  N1_7 
REMARK    5  A    between atoms: C3_6  and  C9_25 
REMARK       I    between atoms: N1_7  and  C4_9 
REMARK    6  A    between atoms: C4_9  and  C5_11 
REMARK    7  A    between atoms: C5_11  and  N2_12 
REMARK    8  A    between atoms: C6_13  and  N3_14 
REMARK    9  A    between atoms: C11_29  and  N7_30 
REMARK       I    between atoms: N7_30  and  C12_32 
REMARK   10  A    between atoms: C12_32  and  C13_34 
REMARK   11  A    between atoms: C19_49  and  S3_50 
REMARK   12  A    between atoms: S3_50  and  C20_51 
ROOT
HETATM    1  C9  UNL     1      33.149 -44.586 -24.322  1.00  0.00    -0.001 C 
HETATM    2  C10 UNL     1      31.833 -44.527 -24.579  1.00  0.00     0.033 C 
HETATM    3  N6  UNL     1      30.517 -43.994 -24.359  1.00  0.00    -0.369 N 
ATOM      4  H6  UNL     1      30.006 -43.611 -23.564  1.00  0.00     0.161 HD
HETATM    5  C11 UNL     1      30.235 -44.233 -25.744  1.00  0.00     0.204 C 
HETATM    6  C16 UNL     1      31.168 -45.442 -25.556  1.00  0.00     0.140 C 
HETATM    7  S2  UNL     1      32.091 -45.711 -27.057  1.00  0.00    -0.149 SA
HETATM    8  C17 UNL     1      33.836 -45.560 -26.634  1.00  0.00     0.114 C 
HETATM    9  C18 UNL     1      33.929 -45.509 -25.146  1.00  0.00    -0.032 C 
HETATM   10  C19 UNL     1      34.738 -46.310 -24.563  1.00  0.00     0.061 C 
ENDROOT
BRANCH   1  11
HETATM   11  C3  UNL     1      33.689 -43.723 -23.318  1.00  0.00     0.159 C 
BRANCH  11  12
HETATM   12  C2  UNL     1      33.845 -44.081 -21.900  1.00  0.00     0.206 C 
BRANCH  12  13
HETATM   13  S1  UNL     1      33.547 -42.762 -20.715  1.00  0.00    -0.140 SA
HETATM   14  C1  UNL     1      31.901 -42.971 -19.991  1.00  0.00     0.092 C 
ENDBRANCH  12  13
BRANCH  12  15
HETATM   15  O1  UNL     1      35.263 -44.322 -21.783  1.00  0.00    -0.383 OA
ATOM     16  H1  UNL     1      35.590 -44.146 -22.658  1.00  0.00     0.211 HD
ENDBRANCH  12  15
ENDBRANCH  11  12
BRANCH  11  17
HETATM   17  N1  UNL     1      32.890 -42.480 -23.306  1.00  0.00    -0.348 N 
HETATM   18  C4  UNL     1      33.173 -41.381 -24.121  1.00  0.00     0.236 C 
HETATM   19  O2  UNL     1      34.151 -41.467 -24.888  1.00  0.00    -0.272 OA
ATOM     20  H1  UNL     1      32.093 -42.422 -22.673  1.00  0.00     0.163 HD
BRANCH  18  21
HETATM   21  C5  UNL     1      32.387 -40.141 -24.120  1.00  0.00     0.239 C 
BRANCH  21  22
HETATM   22  N2  UNL     1      31.012 -40.323 -24.464  1.00  0.00    -0.257 N 
HETATM   23  C6  UNL     1      30.563 -40.369 -25.729  1.00  0.00     0.260 A 
HETATM   24  N4  UNL     1      29.212 -40.574 -25.910  1.00  0.00    -0.275 N 
HETATM   25  C7  UNL     1      28.373 -40.720 -24.893  1.00  0.00     0.331 A 
ATOM     26  H4  UNL     1      28.844 -40.614 -26.861  1.00  0.00     0.173 HD
HETATM   27  O5  UNL     1      27.135 -40.908 -25.045  1.00  0.00    -0.246 OA
HETATM   28  N5  UNL     1      28.848 -40.669 -23.638  1.00  0.00    -0.260 N 
HETATM   29  C8  UNL     1      30.149 -40.473 -23.412  1.00  0.00     0.333 A 
ATOM     30  H5  UNL     1      28.209 -40.779 -22.851  1.00  0.00     0.175 HD
HETATM   31  O6  UNL     1      30.551 -40.431 -22.223  1.00  0.00    -0.246 OA
BRANCH  23  32
HETATM   32  N3  UNL     1      31.364 -40.195 -26.881  1.00  0.00    -0.079 N 
HETATM   33  O3  UNL     1      31.581 -39.111 -27.389  1.00  0.00    -0.529 OA
HETATM   34  O4  UNL     1      31.921 -41.296 -27.481  1.00  0.00    -0.529 OA
ENDBRANCH  23  32
ENDBRANCH  21  22
ENDBRANCH  18  21
ENDBRANCH  11  17
ENDBRANCH   1  11
BRANCH  10  35
HETATM   35  S3  UNL     1      35.719 -47.455 -25.524  1.00  0.00    -0.064 SA
BRANCH  35  36
HETATM   36  C20 UNL     1      37.377 -47.544 -24.878  1.00  0.00     0.164 A 
HETATM   37  N12 UNL     1      37.751 -47.038 -23.683  1.00  0.00    -0.331 N 
HETATM   38  C21 UNL     1      39.058 -47.261 -23.482  1.00  0.00     0.199 A 
ATOM     39  H12 UNL     1      37.132 -46.557 -23.031  1.00  0.00     0.168 HD
HETATM   40  N13 UNL     1      39.510 -47.913 -24.554  1.00  0.00    -0.294 N 
HETATM   41  N14 UNL     1      38.491 -48.083 -25.395  1.00  0.00    -0.279 N 
ATOM     42  H13 UNL     1      40.469 -48.227 -24.704  1.00  0.00     0.187 HD
ATOM     43  H14 UNL     1      38.549 -48.552 -26.299  1.00  0.00     0.189 HD
ENDBRANCH  35  36
ENDBRANCH  10  35
BRANCH   5  44
HETATM   44  N7  UNL     1      28.868 -44.622 -26.014  1.00  0.00    -0.333 N 
HETATM   45  C12 UNL     1      28.036 -43.986 -26.949  1.00  0.00     0.275 C 
HETATM   46  O7  UNL     1      28.474 -43.014 -27.611  1.00  0.00    -0.266 OA
ATOM     47  H7  UNL     1      28.484 -45.409 -25.491  1.00  0.00     0.165 HD
BRANCH  45  48
HETATM   48  C13 UNL     1      26.670 -44.420 -27.179  1.00  0.00     0.162 A 
HETATM   49  N8  UNL     1      26.298 -45.708 -27.317  1.00  0.00    -0.276 N 
HETATM   50  N9  UNL     1      24.972 -45.719 -27.513  1.00  0.00    -0.236 N 
ATOM     51  H8  UNL     1      26.911 -46.523 -27.280  1.00  0.00     0.189 HD
HETATM   52  C14 UNL     1      24.149 -46.893 -27.711  1.00  0.00     0.200 C 
HETATM   53  N10 UNL     1      24.505 -44.475 -27.498  1.00  0.00    -0.267 N 
HETATM   54  C15 UNL     1      25.547 -43.649 -27.293  1.00  0.00     0.149 A 
ATOM     55  H10 UNL     1      23.531 -44.196 -27.621  1.00  0.00     0.190 HD
HETATM   56  N11 UNL     1      25.508 -42.348 -27.210  1.00  0.00    -0.382 N 
ATOM     57 2H11 UNL     1      26.297 -41.722 -27.055  1.00  0.00     0.157 HD
ATOM     58 1H11 UNL     1      24.669 -41.772 -27.295  1.00  0.00     0.157 HD
ENDBRANCH  45  48
ENDBRANCH   5  44
TORSDOF 12
ENDMDL
MODEL 2
REMARK VINA RESULT: -7.893484208      3.262      6.617
REMARK  12 active torsions:
REMARK  status: ('A' for Active; 'I' for Inactive)
REMARK    1  A    between atoms: S1_2  and  C2_3 
REMARK    2  A    between atoms: C2_3  and  O1_4 
REMARK    3  A    between atoms: C2_3  and  C3_6 
REMARK    4  A    between atoms: C3_6  and  N1_7 
REMARK    5  A    between atoms: C3_6  and  C9_25 
REMARK       I    between atoms: N1_7  and  C4_9 
REMARK    6  A    between atoms: C4_9  and  C5_11 
REMARK    7  A    between atoms: C5_11  and  N2_12 
REMARK    8  A    between atoms: C6_13  and  N3_14 
REMARK    9  A    between atoms: C11_29  and  N7_30 
REMARK       I    between atoms: N7_30  and  C12_32 
REMARK   10  A    between atoms: C12_32  and  C13_34 
REMARK   11  A    between atoms: C19_49  and  S3_50 
REMARK   12  A    between atoms: S3_50  and  C20_51 
ROOT
HETATM    1  C9  UNL     1      32.011 -42.396 -25.177  1.00  0.00    -0.001 C 
HETATM    2  C10 UNL     1      31.957 -42.419 -23.837  1.00  0.00     0.033 C 
HETATM    3  N6  UNL     1      31.938 -41.772 -22.554  1.00  0.00    -0.369 N 
ATOM      4  H6  UNL     1      32.335 -40.920 -22.157  1.00  0.00     0.161 HD
HETATM    5  C11 UNL     1      31.116 -42.844 -22.074  1.00  0.00     0.204 C 
HETATM    6  C16 UNL     1      31.936 -43.695 -23.060  1.00  0.00     0.140 C 
HETATM    7  S2  UNL     1      30.889 -44.961 -23.754  1.00  0.00    -0.149 SA
HETATM    8  C17 UNL     1      30.869 -44.705 -25.537  1.00  0.00     0.114 C 
HETATM    9  C18 UNL     1      31.917 -43.690 -25.852  1.00  0.00    -0.032 C 
HETATM   10  C19 UNL     1      32.771 -43.966 -26.763  1.00  0.00     0.061 C 
ENDROOT
BRANCH   1  11
HETATM   11  C3  UNL     1      32.103 -41.130 -25.837  1.00  0.00     0.159 C 
BRANCH  11  12
HETATM   12  C2  UNL     1      32.854 -39.972 -25.327  1.00  0.00     0.206 C 
BRANCH  12  13
HETATM   13  S1  UNL     1      32.727 -38.462 -26.295  1.00  0.00    -0.140 SA
HETATM   14  C1  UNL     1      33.490 -37.100 -25.378  1.00  0.00     0.092 C 
ENDBRANCH  12  13
BRANCH  12  15
HETATM   15  O1  UNL     1      34.228 -40.372 -25.511  1.00  0.00    -0.383 OA
ATOM     16  H1  UNL     1      34.604 -40.273 -24.644  1.00  0.00     0.211 HD
ENDBRANCH  12  15
ENDBRANCH  11  12
BRANCH  11  17
HETATM   17  N1  UNL     1      30.732 -40.626 -26.050  1.00  0.00    -0.348 N 
HETATM   18  C4  UNL     1      30.035 -40.789 -27.250  1.00  0.00     0.236 C 
HETATM   19  O2  UNL     1      30.612 -41.390 -28.176  1.00  0.00    -0.272 OA
ATOM     20  H1  UNL     1      30.271 -40.134 -25.285  1.00  0.00     0.163 HD
BRANCH  18  21
HETATM   21  C5  UNL     1      28.672 -40.294 -27.475  1.00  0.00     0.239 C 
BRANCH  21  22
HETATM   22  N2  UNL     1      27.659 -41.294 -27.348  1.00  0.00    -0.257 N 
HETATM   23  C6  UNL     1      27.256 -41.798 -26.170  1.00  0.00     0.260 A 
HETATM   24  N4  UNL     1      26.252 -42.741 -26.198  1.00  0.00    -0.275 N 
HETATM   25  C7  UNL     1      25.693 -43.150 -27.330  1.00  0.00     0.331 A 
ATOM     26  H4  UNL     1      25.926 -43.139 -25.317  1.00  0.00     0.173 HD
HETATM   27  O5  UNL     1      24.774 -44.012 -27.370  1.00  0.00    -0.246 OA
HETATM   28  N5  UNL     1      26.116 -42.632 -28.495  1.00  0.00    -0.260 N 
HETATM   29  C8  UNL     1      27.086 -41.714 -28.518  1.00  0.00     0.333 A 
ATOM     30  H5  UNL     1      25.692 -42.942 -29.369  1.00  0.00     0.175 HD
HETATM   31  O6  UNL     1      27.450 -41.256 -29.628  1.00  0.00    -0.246 OA
BRANCH  23  32
HETATM   32  N3  UNL     1      27.803 -41.455 -24.912  1.00  0.00    -0.079 N 
HETATM   33  O3  UNL     1      28.538 -42.188 -24.278  1.00  0.00    -0.529 OA
HETATM   34  O4  UNL     1      27.487 -40.242 -24.353  1.00  0.00    -0.529 OA
ENDBRANCH  23  32
ENDBRANCH  21  22
ENDBRANCH  18  21
ENDBRANCH  11  17
ENDBRANCH   1  11
BRANCH  10  35
HETATM   35  S3  UNL     1      32.697 -45.533 -27.621  1.00  0.00    -0.064 SA
BRANCH  35  36
HETATM   36  C20 UNL     1      33.833 -46.695 -26.891  1.00  0.00     0.164 A 
HETATM   37  N12 UNL     1      34.851 -47.279 -27.560  1.00  0.00    -0.331 N 
HETATM   38  C21 UNL     1      35.523 -48.101 -26.741  1.00  0.00     0.199 A 
ATOM     39  H12 UNL     1      35.076 -47.118 -28.542  1.00  0.00     0.168 HD
HETATM   40  N13 UNL     1      34.927 -48.034 -25.549  1.00  0.00    -0.294 N 
HETATM   41  N14 UNL     1      33.907 -47.183 -25.645  1.00  0.00    -0.279 N 
ATOM     42  H13 UNL     1      35.204 -48.546 -24.711  1.00  0.00     0.187 HD
ATOM     43  H14 UNL     1      33.275 -46.939 -24.882  1.00  0.00     0.189 HD
ENDBRANCH  35  36
ENDBRANCH  10  35
BRANCH   5  44
HETATM   44  N7  UNL     1      31.358 -43.205 -20.694  1.00  0.00    -0.333 N 
HETATM   45  C12 UNL     1      30.420 -43.048 -19.661  1.00  0.00     0.275 C 
HETATM   46  O7  UNL     1      29.290 -42.565 -19.916  1.00  0.00    -0.266 OA
ATOM     47  H7  UNL     1      32.267 -43.600 -20.456  1.00  0.00     0.165 HD
BRANCH  45  48
HETATM   48  C13 UNL     1      30.717 -43.428 -18.292  1.00  0.00     0.162 A 
HETATM   49  N8  UNL     1      31.963 -43.586 -17.804  1.00  0.00    -0.276 N 
HETATM   50  N9  UNL     1      31.843 -43.934 -16.515  1.00  0.00    -0.236 N 
ATOM     51  H8  UNL     1      32.835 -43.463 -18.319  1.00  0.00     0.189 HD
HETATM   52  C14 UNL     1      32.931 -44.207 -15.600  1.00  0.00     0.200 C 
HETATM   53  N10 UNL     1      30.558 -43.997 -16.184  1.00  0.00    -0.267 N 
HETATM   54  C15 UNL     1      29.838 -43.686 -17.277  1.00  0.00     0.149 A 
ATOM     55  H10 UNL     1      30.184 -44.237 -15.265  1.00  0.00     0.190 HD
HETATM   56  N11 UNL     1      28.538 -43.632 -17.367  1.00  0.00    -0.382 N 
ATOM     57 2H11 UNL     1      27.992 -43.397 -18.195  1.00  0.00     0.157 HD
ATOM     58 1H11 UNL     1      27.882 -43.824 -16.609  1.00  0.00     0.157 HD
ENDBRANCH  45  48
ENDBRANCH   5  44
TORSDOF 12
ENDMDL
MODEL 3
REMARK VINA RESULT: -7.745831996      0.565      1.786
REMARK  12 active torsions:
REMARK  status: ('A' for Active; 'I' for Inactive)
REMARK    1  A    between atoms: S1_2  and  C2_3 
REMARK    2  A    between atoms: C2_3  and  O1_4 
REMARK    3  A    between atoms: C2_3  and  C3_6 
REMARK    4  A    between atoms: C3_6  and  N1_7 
REMARK    5  A    between atoms: C3_6  and  C9_25 
REMARK       I    between atoms: N1_7  and  C4_9 
REMARK    6  A    between atoms: C4_9  and  C5_11 
REMARK    7  A    between atoms: C5_11  and  N2_12 
REMARK    8  A    between atoms: C6_13  and  N3_14 
REMARK    9  A    between atoms: C11_29  and  N7_30 
REMARK       I    between atoms: N7_30  and  C12_32 
REMARK   10  A    between atoms: C12_32  and  C13_34 
REMARK   11  A    between atoms: C19_49  and  S3_50 
REMARK   12  A    between atoms: S3_50  and  C20_51 
ROOT
HETATM    1  C9  UNL     1      33.167 -44.646 -24.560  1.00  0.00    -0.001 C 
HETATM    2  C10 UNL     1      31.847 -44.582 -24.790  1.00  0.00     0.033 C 
HETATM    3  N6  UNL     1      30.543 -44.019 -24.568  1.00  0.00    -0.369 N 
ATOM      4  H6  UNL     1      30.056 -43.588 -23.783  1.00  0.00     0.161 HD
HETATM    5  C11 UNL     1      30.226 -44.327 -25.932  1.00  0.00     0.204 C 
HETATM    6  C16 UNL     1      31.147 -45.538 -25.701  1.00  0.00     0.140 C 
HETATM    7  S2  UNL     1      32.032 -45.898 -27.207  1.00  0.00    -0.149 SA
HETATM    8  C17 UNL     1      33.788 -45.749 -26.832  1.00  0.00     0.114 C 
HETATM    9  C18 UNL     1      33.916 -45.621 -25.351  1.00  0.00    -0.032 C 
HETATM   10  C19 UNL     1      34.728 -46.402 -24.746  1.00  0.00     0.061 C 
ENDROOT
BRANCH   1  11
HETATM   11  C3  UNL     1      33.741 -43.739 -23.615  1.00  0.00     0.159 C 
BRANCH  11  12
HETATM   12  C2  UNL     1      33.846 -43.989 -22.170  1.00  0.00     0.206 C 
BRANCH  12  13
HETATM   13  S1  UNL     1      33.701 -42.547 -21.106  1.00  0.00    -0.140 SA
HETATM   14  C1  UNL     1      32.769 -42.994 -19.619  1.00  0.00     0.092 C 
ENDBRANCH  12  13
BRANCH  12  15
HETATM   15  O1  UNL     1      35.225 -44.385 -22.010  1.00  0.00    -0.383 OA
ATOM     16  H1  UNL     1      35.387 -44.932 -22.769  1.00  0.00     0.211 HD
ENDBRANCH  12  15
ENDBRANCH  11  12
BRANCH  11  17
HETATM   17  N1  UNL     1      33.025 -42.452 -23.723  1.00  0.00    -0.348 N 
HETATM   18  C4  UNL     1      33.174 -41.582 -24.806  1.00  0.00     0.236 C 
HETATM   19  O2  UNL     1      33.955 -41.920 -25.715  1.00  0.00    -0.272 OA
ATOM     20  H1  UNL     1      32.389 -42.186 -22.971  1.00  0.00     0.163 HD
BRANCH  18  21
HETATM   21  C5  UNL     1      32.467 -40.301 -24.926  1.00  0.00     0.239 C 
BRANCH  21  22
HETATM   22  N2  UNL     1      31.044 -40.424 -24.982  1.00  0.00    -0.257 N 
HETATM   23  C6  UNL     1      30.253 -40.396 -23.897  1.00  0.00     0.260 A 
HETATM   24  N4  UNL     1      28.895 -40.501 -24.105  1.00  0.00    -0.275 N 
HETATM   25  C7  UNL     1      28.369 -40.627 -25.317  1.00  0.00     0.331 A 
ATOM     26  H4  UNL     1      28.270 -40.482 -23.298  1.00  0.00     0.173 HD
HETATM   27  O5  UNL     1      27.129 -40.724 -25.521  1.00  0.00    -0.246 OA
HETATM   28  N5  UNL     1      29.183 -40.654 -26.385  1.00  0.00    -0.260 N 
HETATM   29  C8  UNL     1      30.506 -40.554 -26.234  1.00  0.00     0.333 A 
ATOM     30  H5  UNL     1      28.786 -40.751 -27.320  1.00  0.00     0.175 HD
HETATM   31  O6  UNL     1      31.229 -40.583 -27.259  1.00  0.00    -0.246 OA
BRANCH  23  32
HETATM   32  N3  UNL     1      30.709 -40.297 -22.563  1.00  0.00    -0.079 N 
HETATM   33  O3  UNL     1      30.582 -41.185 -21.742  1.00  0.00    -0.529 OA
HETATM   34  O4  UNL     1      31.317 -39.138 -22.148  1.00  0.00    -0.529 OA
ENDBRANCH  23  32
ENDBRANCH  21  22
ENDBRANCH  18  21
ENDBRANCH  11  17
ENDBRANCH   1  11
BRANCH  10  35
HETATM   35  S3  UNL     1      35.672 -47.610 -25.667  1.00  0.00    -0.064 SA
BRANCH  35  36
HETATM   36  C20 UNL     1      37.350 -47.670 -25.072  1.00  0.00     0.164 A 
HETATM   37  N12 UNL     1      37.752 -47.158 -23.888  1.00  0.00    -0.331 N 
HETATM   38  C21 UNL     1      39.067 -47.358 -23.727  1.00  0.00     0.199 A 
ATOM     39  H12 UNL     1      37.144 -46.688 -23.217  1.00  0.00     0.168 HD
HETATM   40  N13 UNL     1      39.498 -48.001 -24.814  1.00  0.00    -0.294 N 
HETATM   41  N14 UNL     1      38.457 -48.188 -25.623  1.00  0.00    -0.279 N 
ATOM     42  H13 UNL     1      40.458 -48.298 -24.993  1.00  0.00     0.187 HD
ATOM     43  H14 UNL     1      38.496 -48.656 -26.529  1.00  0.00     0.189 HD
ENDBRANCH  35  36
ENDBRANCH  10  35
BRANCH   5  44
HETATM   44  N7  UNL     1      28.848 -44.710 -26.150  1.00  0.00    -0.333 N 
HETATM   45  C12 UNL     1      27.996 -44.097 -27.082  1.00  0.00     0.275 C 
HETATM   46  O7  UNL     1      28.424 -43.152 -27.788  1.00  0.00    -0.266 OA
ATOM     47  H7  UNL     1      28.471 -45.476 -25.590  1.00  0.00     0.165 HD
BRANCH  45  48
HETATM   48  C13 UNL     1      26.619 -44.524 -27.259  1.00  0.00     0.162 A 
HETATM   49  N8  UNL     1      26.235 -45.811 -27.372  1.00  0.00    -0.276 N 
HETATM   50  N9  UNL     1      24.903 -45.814 -27.519  1.00  0.00    -0.236 N 
ATOM     51  H8  UNL     1      26.844 -46.629 -27.350  1.00  0.00     0.189 HD
HETATM   52  C14 UNL     1      24.066 -46.984 -27.677  1.00  0.00     0.200 C 
HETATM   53  N10 UNL     1      24.444 -44.567 -27.499  1.00  0.00    -0.267 N 
HETATM   54  C15 UNL     1      25.498 -43.747 -27.339  1.00  0.00     0.149 A 
ATOM     55  H10 UNL     1      23.468 -44.283 -27.589  1.00  0.00     0.190 HD
HETATM   56  N11 UNL     1      25.470 -42.444 -27.267  1.00  0.00    -0.382 N 
ATOM     57 2H11 UNL     1      26.269 -41.822 -27.145  1.00  0.00     0.157 HD
ATOM     58 1H11 UNL     1      24.633 -41.864 -27.326  1.00  0.00     0.157 HD
ENDBRANCH  45  48
ENDBRANCH   5  44
TORSDOF 12
ENDMDL
MODEL 4
REMARK VINA RESULT: -7.728316009      3.011      7.160
REMARK  12 active torsions:
REMARK  status: ('A' for Active; 'I' for Inactive)
REMARK    1  A    between atoms: S1_2  and  C2_3 
REMARK    2  A    between atoms: C2_3  and  O1_4 
REMARK    3  A    between atoms: C2_3  and  C3_6 
REMARK    4  A    between atoms: C3_6  and  N1_7 
REMARK    5  A    between atoms: C3_6  and  C9_25 
REMARK       I    between atoms: N1_7  and  C4_9 
REMARK    6  A    between atoms: C4_9  and  C5_11 
REMARK    7  A    between atoms: C5_11  and  N2_12 
REMARK    8  A    between atoms: C6_13  and  N3_14 
REMARK    9  A    between atoms: C11_29  and  N7_30 
REMARK       I    between atoms: N7_30  and  C12_32 
REMARK   10  A    between atoms: C12_32  and  C13_34 
REMARK   11  A    between atoms: C19_49  and  S3_50 
REMARK   12  A    between atoms: S3_50  and  C20_51 
ROOT
HETATM    1  C9  UNL     1      31.145 -43.053 -26.525  1.00  0.00    -0.001 C 
HETATM    2  C10 UNL     1      31.266 -43.020 -25.188  1.00  0.00     0.033 C 
HETATM    3  N6  UNL     1      31.177 -42.350 -23.920  1.00  0.00    -0.369 N 
ATOM      4  H6  UNL     1      31.297 -41.392 -23.588  1.00  0.00     0.161 HD
HETATM    5  C11 UNL     1      30.846 -43.611 -23.325  1.00  0.00     0.204 C 
HETATM    6  C16 UNL     1      31.786 -44.180 -24.403  1.00  0.00     0.140 C 
HETATM    7  S2  UNL     1      31.171 -45.765 -24.940  1.00  0.00    -0.149 SA
HETATM    8  C17 UNL     1      30.848 -45.631 -26.708  1.00  0.00     0.114 C 
HETATM    9  C18 UNL     1      31.428 -44.336 -27.168  1.00  0.00    -0.032 C 
HETATM   10  C19 UNL     1      32.208 -44.350 -28.181  1.00  0.00     0.061 C 
ENDROOT
BRANCH   1  11
HETATM   11  C3  UNL     1      30.709 -41.872 -27.202  1.00  0.00     0.159 C 
BRANCH  11  12
HETATM   12  C2  UNL     1      31.103 -40.503 -26.838  1.00  0.00     0.206 C 
BRANCH  12  13
HETATM   13  S1  UNL     1      30.400 -39.186 -27.840  1.00  0.00    -0.140 SA
HETATM   14  C1  UNL     1      30.750 -39.512 -29.586  1.00  0.00     0.092 C 
ENDBRANCH  12  13
BRANCH  12  15
HETATM   15  O1  UNL     1      32.505 -40.469 -27.178  1.00  0.00    -0.383 OA
ATOM     16  H1  UNL     1      32.920 -40.915 -26.448  1.00  0.00     0.211 HD
ENDBRANCH  12  15
ENDBRANCH  11  12
BRANCH  11  17
HETATM   17  N1  UNL     1      29.233 -41.855 -27.186  1.00  0.00    -0.348 N 
HETATM   18  C4  UNL     1      28.451 -42.252 -28.275  1.00  0.00     0.236 C 
HETATM   19  O2  UNL     1      29.043 -42.632 -29.303  1.00  0.00    -0.272 OA
ATOM     20  H1  UNL     1      28.760 -41.540 -26.340  1.00  0.00     0.163 HD
BRANCH  18  21
HETATM   21  C5  UNL     1      26.984 -42.241 -28.272  1.00  0.00     0.239 C 
BRANCH  21  22
HETATM   22  N2  UNL     1      26.391 -43.534 -28.136  1.00  0.00    -0.257 N 
HETATM   23  C6  UNL     1      26.300 -44.190 -26.967  1.00  0.00     0.260 A 
HETATM   24  N4  UNL     1      25.681 -45.421 -26.982  1.00  0.00    -0.275 N 
HETATM   25  C7  UNL     1      25.190 -45.956 -28.093  1.00  0.00     0.331 A 
ATOM     26  H4  UNL     1      25.597 -45.940 -26.108  1.00  0.00     0.173 HD
HETATM   27  O5  UNL     1      24.621 -47.081 -28.121  1.00  0.00    -0.246 OA
HETATM   28  N5  UNL     1      25.295 -45.280 -29.249  1.00  0.00    -0.260 N 
HETATM   29  C8  UNL     1      25.886 -44.083 -29.284  1.00  0.00     0.333 A 
ATOM     30  H5  UNL     1      24.921 -45.685 -30.107  1.00  0.00     0.175 HD
HETATM   31  O6  UNL     1      25.964 -43.486 -30.385  1.00  0.00    -0.246 OA
BRANCH  23  32
HETATM   32  N3  UNL     1      26.815 -43.726 -25.735  1.00  0.00    -0.079 N 
HETATM   33  O3  UNL     1      26.264 -42.884 -25.052  1.00  0.00    -0.529 OA
HETATM   34  O4  UNL     1      28.006 -44.230 -25.275  1.00  0.00    -0.529 OA
ENDBRANCH  23  32
ENDBRANCH  21  22
ENDBRANCH  18  21
ENDBRANCH  11  17
ENDBRANCH   1  11
BRANCH  10  35
HETATM   35  S3  UNL     1      32.583 -45.891 -29.008  1.00  0.00    -0.064 SA
BRANCH  35  36
HETATM   36  C20 UNL     1      33.723 -46.855 -28.036  1.00  0.00     0.164 A 
HETATM   37  N12 UNL     1      34.373 -46.386 -26.949  1.00  0.00    -0.331 N 
HETATM   38  C21 UNL     1      35.157 -47.346 -26.437  1.00  0.00     0.199 A 
ATOM     39  H12 UNL     1      34.282 -45.442 -26.573  1.00  0.00     0.168 HD
HETATM   40  N13 UNL     1      34.999 -48.426 -27.204  1.00  0.00    -0.294 N 
HETATM   41  N14 UNL     1      34.131 -48.125 -28.169  1.00  0.00    -0.279 N 
ATOM     42  H13 UNL     1      35.463 -49.326 -27.075  1.00  0.00     0.187 HD
ATOM     43  H14 UNL     1      33.823 -48.765 -28.900  1.00  0.00     0.189 HD
ENDBRANCH  35  36
ENDBRANCH  10  35
BRANCH   5  44
HETATM   44  N7  UNL     1      31.364 -43.790 -21.986  1.00  0.00    -0.333 N 
HETATM   45  C12 UNL     1      30.978 -43.016 -20.881  1.00  0.00     0.275 C 
HETATM   46  O7  UNL     1      30.133 -42.100 -21.028  1.00  0.00    -0.266 OA
ATOM     47  H7  UNL     1      32.053 -44.527 -21.835  1.00  0.00     0.165 HD
BRANCH  45  48
HETATM   48  C13 UNL     1      31.532 -43.239 -19.558  1.00  0.00     0.162 A 
HETATM   49  N8  UNL     1      30.792 -43.525 -18.467  1.00  0.00    -0.276 N 
HETATM   50  N9  UNL     1      31.641 -43.665 -17.439  1.00  0.00    -0.236 N 
ATOM     51  H8  UNL     1      29.777 -43.617 -18.431  1.00  0.00     0.189 HD
HETATM   52  C14 UNL     1      31.281 -43.974 -16.072  1.00  0.00     0.200 C 
HETATM   53  N10 UNL     1      32.889 -43.477 -17.856  1.00  0.00    -0.267 N 
HETATM   54  C15 UNL     1      32.843 -43.209 -19.174  1.00  0.00     0.149 A 
ATOM     55  H10 UNL     1      33.730 -43.526 -17.281  1.00  0.00     0.190 HD
HETATM   56  N11 UNL     1      33.858 -42.967 -19.957  1.00  0.00    -0.382 N 
ATOM     57 2H11 UNL     1      33.823 -42.764 -20.956  1.00  0.00     0.157 HD
ATOM     58 1H11 UNL     1      34.837 -42.945 -19.671  1.00  0.00     0.157 HD
ENDBRANCH  45  48
ENDBRANCH   5  44
TORSDOF 12
ENDMDL
MODEL 5
REMARK VINA RESULT: -7.705556708      1.605      2.629
REMARK  12 active torsions:
REMARK  status: ('A' for Active; 'I' for Inactive)
REMARK    1  A    between atoms: S1_2  and  C2_3 
REMARK    2  A    between atoms: C2_3  and  O1_4 
REMARK    3  A    between atoms: C2_3  and  C3_6 
REMARK    4  A    between atoms: C3_6  and  N1_7 
REMARK    5  A    between atoms: C3_6  and  C9_25 
REMARK       I    between atoms: N1_7  and  C4_9 
REMARK    6  A    between atoms: C4_9  and  C5_11 
REMARK    7  A    between atoms: C5_11  and  N2_12 
REMARK    8  A    between atoms: C6_13  and  N3_14 
REMARK    9  A    between atoms: C11_29  and  N7_30 
REMARK       I    between atoms: N7_30  and  C12_32 
REMARK   10  A    between atoms: C12_32  and  C13_34 
REMARK   11  A    between atoms: C19_49  and  S3_50 
REMARK   12  A    between atoms: S3_50  and  C20_51 
ROOT
HETATM    1  C9  UNL     1      31.969 -44.381 -24.559  1.00  0.00    -0.001 C 
HETATM    2  C10 UNL     1      30.721 -44.621 -24.990  1.00  0.00     0.033 C 
HETATM    3  N6  UNL     1      29.302 -44.398 -24.963  1.00  0.00    -0.369 N 
ATOM      4  H6  UNL     1      28.614 -44.142 -24.254  1.00  0.00     0.161 HD
HETATM    5  C11 UNL     1      29.272 -44.692 -26.366  1.00  0.00     0.204 C 
HETATM    6  C16 UNL     1      30.417 -45.661 -26.019  1.00  0.00     0.140 C 
HETATM    7  S2  UNL     1      31.573 -45.712 -27.376  1.00  0.00    -0.149 SA
HETATM    8  C17 UNL     1      33.165 -45.172 -26.729  1.00  0.00     0.114 C 
HETATM    9  C18 UNL     1      33.040 -45.103 -25.244  1.00  0.00    -0.032 C 
HETATM   10  C19 UNL     1      33.921 -45.702 -24.536  1.00  0.00     0.061 C 
ENDROOT
BRANCH   1  11
HETATM   11  C3  UNL     1      32.160 -43.420 -23.518  1.00  0.00     0.159 C 
BRANCH  11  12
HETATM   12  C2  UNL     1      31.823 -43.639 -22.103  1.00  0.00     0.206 C 
BRANCH  12  13
HETATM   13  S1  UNL     1      30.891 -42.327 -21.302  1.00  0.00    -0.140 SA
HETATM   14  C1  UNL     1      30.364 -42.885 -19.661  1.00  0.00     0.092 C 
ENDBRANCH  12  13
BRANCH  12  15
HETATM   15  O1  UNL     1      33.110 -43.580 -21.452  1.00  0.00    -0.383 OA
ATOM     16  H1  UNL     1      33.518 -44.402 -21.697  1.00  0.00     0.211 HD
ENDBRANCH  12  15
ENDBRANCH  11  12
BRANCH  11  17
HETATM   17  N1  UNL     1      31.433 -42.191 -23.892  1.00  0.00    -0.348 N 
HETATM   18  C4  UNL     1      31.862 -41.325 -24.902  1.00  0.00     0.236 C 
HETATM   19  O2  UNL     1      32.912 -41.618 -25.505  1.00  0.00    -0.272 OA
ATOM     20  H1  UNL     1      30.576 -41.962 -23.389  1.00  0.00     0.163 HD
BRANCH  18  21
HETATM   21  C5  UNL     1      31.149 -40.101 -25.284  1.00  0.00     0.239 C 
BRANCH  21  22
HETATM   22  N2  UNL     1      30.059 -40.318 -26.182  1.00  0.00    -0.257 N 
HETATM   23  C6  UNL     1      28.818 -40.644 -25.780  1.00  0.00     0.260 A 
HETATM   24  N4  UNL     1      27.860 -40.799 -26.758  1.00  0.00    -0.275 N 
HETATM   25  C7  UNL     1      28.127 -40.640 -28.047  1.00  0.00     0.331 A 
ATOM     26  H4  UNL     1      26.909 -41.044 -26.480  1.00  0.00     0.173 HD
HETATM   27  O5  UNL     1      27.260 -40.778 -28.952  1.00  0.00    -0.246 OA
HETATM   28  N5  UNL     1      29.376 -40.316 -28.423  1.00  0.00    -0.260 N 
HETATM   29  C8  UNL     1      30.339 -40.154 -27.512  1.00  0.00     0.333 A 
ATOM     30  H5  UNL     1      29.590 -40.193 -29.413  1.00  0.00     0.175 HD
HETATM   31  O6  UNL     1      31.491 -39.852 -27.906  1.00  0.00    -0.246 OA
BRANCH  23  32
HETATM   32  N3  UNL     1      28.433 -40.866 -24.438  1.00  0.00    -0.079 N 
HETATM   33  O3  UNL     1      28.362 -41.971 -23.935  1.00  0.00    -0.529 OA
HETATM   34  O4  UNL     1      28.105 -39.792 -23.649  1.00  0.00    -0.529 OA
ENDBRANCH  23  32
ENDBRANCH  21  22
ENDBRANCH  18  21
ENDBRANCH  11  17
ENDBRANCH   1  11
BRANCH  10  35
HETATM   35  S3  UNL     1      35.255 -46.595 -25.324  1.00  0.00    -0.064 SA
BRANCH  35  36
HETATM   36  C20 UNL     1      36.650 -46.724 -24.222  1.00  0.00     0.164 A 
HETATM   37  N12 UNL     1      36.972 -45.794 -23.297  1.00  0.00    -0.331 N 
HETATM   38  C21 UNL     1      38.069 -46.176 -22.628  1.00  0.00     0.199 A 
ATOM     39  H12 UNL     1      36.456 -44.930 -23.132  1.00  0.00     0.168 HD
HETATM   40  N13 UNL     1      38.441 -47.354 -23.133  1.00  0.00    -0.294 N 
HETATM   41  N14 UNL     1      37.580 -47.681 -24.096  1.00  0.00    -0.279 N 
ATOM     42  H13 UNL     1      39.245 -47.907 -22.835  1.00  0.00     0.187 HD
ATOM     43  H14 UNL     1      37.623 -48.534 -24.654  1.00  0.00     0.189 HD
ENDBRANCH  35  36
ENDBRANCH  10  35
BRANCH   5  44
HETATM   44  N7  UNL     1      28.076 -45.380 -26.804  1.00  0.00    -0.333 N 
HETATM   45  C12 UNL     1      26.789 -44.821 -26.773  1.00  0.00     0.275 C 
HETATM   46  O7  UNL     1      26.628 -43.653 -26.344  1.00  0.00    -0.266 OA
ATOM     47  H7  UNL     1      28.175 -46.331 -27.158  1.00  0.00     0.165 HD
BRANCH  45  48
HETATM   48  C13 UNL     1      25.623 -45.558 -27.225  1.00  0.00     0.162 A 
HETATM   49  N8  UNL     1      24.706 -45.070 -28.084  1.00  0.00    -0.276 N 
HETATM   50  N9  UNL     1      23.784 -46.026 -28.266  1.00  0.00    -0.236 N 
ATOM     51  H8  UNL     1      24.711 -44.145 -28.515  1.00  0.00     0.189 HD
HETATM   52  C14 UNL     1      22.613 -45.933 -29.111  1.00  0.00     0.200 C 
HETATM   53  N10 UNL     1      24.101 -47.099 -27.547  1.00  0.00    -0.267 N 
HETATM   54  C15 UNL     1      25.243 -46.828 -26.889  1.00  0.00     0.149 A 
ATOM     55  H10 UNL     1      23.573 -47.970 -27.502  1.00  0.00     0.190 HD
HETATM   56  N11 UNL     1      25.885 -47.623 -26.079  1.00  0.00    -0.382 N 
ATOM     57 2H11 UNL     1      26.751 -47.418 -25.580  1.00  0.00     0.157 HD
ATOM     58 1H11 UNL     1      25.602 -48.571 -25.829  1.00  0.00     0.157 HD
ENDBRANCH  45  48
ENDBRANCH   5  44
TORSDOF 12
ENDMDL
