MODEL 1
REMARK VINA RESULT: -6.337778766      0.000      0.000
REMARK  20 active torsions:
REMARK  status: ('A' for Active; 'I' for Inactive)
REMARK    1  A    between atoms: C2_2  and  O1_3 
REMARK    2  A    between atoms: C2_2  and  C3_5 
REMARK    3  A    between atoms: C3_5  and  O2_6 
REMARK    4  A    between atoms: O2_6  and  C4_7 
REMARK    5  A    between atoms: C5_8  and  O3_9 
REMARK    6  A    between atoms: O3_9  and  C6_10 
REMARK    7  A    between atoms: C6_10  and  C8_12 
REMARK    8  A    between atoms: C6_10  and  C9_15 
REMARK    9  A    between atoms: C8_12  and  O4_13 
REMARK   10  A    between atoms: C9_15  and  C10_16 
REMARK   11  A    between atoms: C10_16  and  S1_17 
REMARK   12  A    between atoms: C14_23  and  O7_24 
REMARK   13  A    between atoms: C17_29  and  O9_31 
REMARK   14  A    between atoms: C19_33  and  O10_34 
REMARK   15  A    between atoms: C22_39  and  C23_40 
REMARK   16  A    between atoms: C23_40  and  O12_41 
REMARK   17  A    between atoms: C25_46  and  O14_47 
REMARK   18  A    between atoms: O14_47  and  C26_48 
REMARK   19  A    between atoms: C26_48  and  C27_50 
REMARK   20  A    between atoms: C27_50  and  O16_51 
ROOT
HETATM    1  C23 UNL     1      30.007 -42.352 -29.008  1.00  0.00     0.233 C 
HETATM    2  C24 UNL     1      30.433 -42.375 -30.368  1.00  0.00     0.091 C 
HETATM    3  N1  UNL     1      30.764 -42.419 -31.457  1.00  0.00    -0.195 NA
ENDROOT
BRANCH   1   4
HETATM    4  C22 UNL     1      31.040 -42.009 -27.979  1.00  0.00     0.082 C 
HETATM    5  C13 UNL     1      31.104 -42.989 -26.812  1.00  0.00     0.149 C 
HETATM    6  C12 UNL     1      32.338 -42.514 -26.027  1.00  0.00     0.113 A 
HETATM    7  O6  UNL     1      29.948 -42.994 -26.293  1.00  0.00    -0.324 OA
HETATM    8  C5  UNL     1      33.018 -43.612 -25.202  1.00  0.00     0.169 A 
HETATM    9  C25 UNL     1      32.059 -41.668 -24.862  1.00  0.00     0.213 A 
HETATM   10  C4  UNL     1      32.752 -42.774 -23.998  1.00  0.00     0.214 A 
HETATM   11  O13 UNL     1      30.736 -41.693 -24.448  1.00  0.00    -0.319 OA
HETATM   12  C20 UNL     1      29.873 -40.816 -25.126  1.00  0.00     0.292 C 
HETATM   13  C15 UNL     1      28.563 -41.497 -24.855  1.00  0.00     0.185 C 
HETATM   14  O11 UNL     1      30.292 -40.452 -26.248  1.00  0.00    -0.358 OA
HETATM   15  O8  UNL     1      28.734 -42.855 -24.469  1.00  0.00    -0.320 OA
HETATM   16  C16 UNL     1      27.502 -41.436 -25.871  1.00  0.00     0.077 C 
HETATM   17  C14 UNL     1      29.154 -43.644 -25.573  1.00  0.00     0.311 C 
HETATM   18  C19 UNL     1      27.814 -43.913 -26.274  1.00  0.00     0.245 C 
HETATM   19  C17 UNL     1      26.856 -42.784 -26.153  1.00  0.00     0.090 C 
HETATM   20  C18 UNL     1      26.106 -42.647 -27.458  1.00  0.00     0.049 C 
HETATM   21  C21 UNL     1      30.767 -40.612 -27.397  1.00  0.00     0.181 C 
BRANCH   8  22
HETATM   22  O3  UNL     1      34.356 -43.765 -25.402  1.00  0.00    -0.370 OA
BRANCH  22  23
HETATM   23  C6  UNL     1      34.935 -44.890 -25.782  1.00  0.00     0.080 C 
HETATM   24  C7  UNL     1      36.375 -44.398 -26.253  1.00  0.00     0.048 C 
BRANCH  23  25
HETATM   25  C8  UNL     1      35.255 -45.984 -24.842  1.00  0.00     0.201 C 
BRANCH  25  26
HETATM   26  O4  UNL     1      34.234 -46.850 -24.551  1.00  0.00    -0.398 OA
ATOM     27  H4  UNL     1      34.099 -47.044 -23.631  1.00  0.00     0.209 HD
ENDBRANCH  25  26
ENDBRANCH  23  25
BRANCH  23  28
HETATM   28  C9  UNL     1      34.378 -45.547 -27.069  1.00  0.00     0.052 C 
BRANCH  28  29
HETATM   29  C10 UNL     1      35.440 -46.416 -27.699  1.00  0.00     0.111 C 
BRANCH  29  30
HETATM   30  S1  UNL     1      34.909 -48.054 -28.064  1.00  0.00     0.011 S 
HETATM   31  C11 UNL     1      33.455 -48.133 -29.054  1.00  0.00     0.127 C 
HETATM   32  O5  UNL     1      34.605 -48.929 -26.641  1.00  0.00    -0.258 OA
ENDBRANCH  29  30
ENDBRANCH  28  29
ENDBRANCH  23  28
ENDBRANCH  22  23
ENDBRANCH   8  22
BRANCH  10  33
HETATM   33  O2  UNL     1      31.881 -43.342 -23.109  1.00  0.00    -0.375 OA
BRANCH  33  34
HETATM   34  C3  UNL     1      32.136 -43.220 -21.784  1.00  0.00     0.199 C 
BRANCH  34  35
HETATM   35  C2  UNL     1      30.890 -43.070 -20.971  1.00  0.00     0.138 C 
HETATM   36  C1  UNL     1      31.298 -42.947 -19.507  1.00  0.00     0.041 C 
BRANCH  35  37
HETATM   37  O1  UNL     1      30.335 -41.830 -21.310  1.00  0.00    -0.394 OA
ATOM     38  H1  UNL     1      29.588 -41.720 -20.733  1.00  0.00     0.210 HD
ENDBRANCH  35  37
ENDBRANCH  34  35
ENDBRANCH  33  34
ENDBRANCH  10  33
BRANCH   9  39
HETATM   39  O14 UNL     1      32.524 -40.397 -24.715  1.00  0.00    -0.278 OA
BRANCH  39  40
HETATM   40  C26 UNL     1      33.232 -39.751 -23.749  1.00  0.00     0.285 C 
HETATM   41  O15 UNL     1      34.411 -39.467 -24.008  1.00  0.00    -0.263 OA
BRANCH  40  42
HETATM   42  C27 UNL     1      32.605 -39.399 -22.428  1.00  0.00     0.275 C 
BRANCH  42  43
HETATM   43  O16 UNL     1      31.251 -39.221 -22.542  1.00  0.00    -0.391 OA
ATOM     44  H16 UNL     1      30.995 -38.330 -22.335  1.00  0.00     0.210 HD
ENDBRANCH  42  43
ENDBRANCH  40  42
ENDBRANCH  39  40
ENDBRANCH   9  39
BRANCH  17  45
HETATM   45  O7  UNL     1      29.546 -44.875 -24.998  1.00  0.00    -0.341 OA
ATOM     46  H7  UNL     1      29.605 -44.972 -24.055  1.00  0.00     0.215 HD
ENDBRANCH  17  45
BRANCH  18  47
HETATM   47  O10 UNL     1      27.236 -45.072 -25.721  1.00  0.00    -0.384 OA
ATOM     48  H10 UNL     1      26.707 -45.498 -26.385  1.00  0.00     0.210 HD
ENDBRANCH  18  47
BRANCH  19  49
HETATM   49  O9  UNL     1      25.913 -43.101 -25.173  1.00  0.00    -0.387 OA
ATOM     50  H9  UNL     1      25.503 -43.939 -25.353  1.00  0.00     0.210 HD
ENDBRANCH  19  49
ENDBRANCH   1   4
BRANCH   1  51
HETATM   51  O12 UNL     1      28.902 -41.469 -28.900  1.00  0.00    -0.381 OA
ATOM     52  H12 UNL     1      28.160 -41.816 -29.381  1.00  0.00     0.211 HD
ENDBRANCH   1  51
TORSDOF 20
ENDMDL
MODEL 2
REMARK VINA RESULT: -6.260928811      1.231      1.410
REMARK  20 active torsions:
REMARK  status: ('A' for Active; 'I' for Inactive)
REMARK    1  A    between atoms: C2_2  and  O1_3 
REMARK    2  A    between atoms: C2_2  and  C3_5 
REMARK    3  A    between atoms: C3_5  and  O2_6 
REMARK    4  A    between atoms: O2_6  and  C4_7 
REMARK    5  A    between atoms: C5_8  and  O3_9 
REMARK    6  A    between atoms: O3_9  and  C6_10 
REMARK    7  A    between atoms: C6_10  and  C8_12 
REMARK    8  A    between atoms: C6_10  and  C9_15 
REMARK    9  A    between atoms: C8_12  and  O4_13 
REMARK   10  A    between atoms: C9_15  and  C10_16 
REMARK   11  A    between atoms: C10_16  and  S1_17 
REMARK   12  A    between atoms: C14_23  and  O7_24 
REMARK   13  A    between atoms: C17_29  and  O9_31 
REMARK   14  A    between atoms: C19_33  and  O10_34 
REMARK   15  A    between atoms: C22_39  and  C23_40 
REMARK   16  A    between atoms: C23_40  and  O12_41 
REMARK   17  A    between atoms: C25_46  and  O14_47 
REMARK   18  A    between atoms: O14_47  and  C26_48 
REMARK   19  A    between atoms: C26_48  and  C27_50 
REMARK   20  A    between atoms: C27_50  and  O16_51 
ROOT
HETATM    1  C23 UNL     1      30.498 -42.741 -28.970  1.00  0.00     0.233 C 
HETATM    2  C24 UNL     1      31.309 -42.980 -30.118  1.00  0.00     0.091 C 
HETATM    3  N1  UNL     1      31.949 -43.197 -31.036  1.00  0.00    -0.195 NA
ENDROOT
BRANCH   1   4
HETATM    4  C22 UNL     1      31.171 -42.131 -27.779  1.00  0.00     0.082 C 
HETATM    5  C13 UNL     1      30.896 -42.860 -26.468  1.00  0.00     0.149 C 
HETATM    6  C12 UNL     1      31.832 -42.153 -25.474  1.00  0.00     0.113 A 
HETATM    7  O6  UNL     1      29.638 -42.850 -26.318  1.00  0.00    -0.324 OA
HETATM    8  C5  UNL     1      32.248 -43.018 -24.279  1.00  0.00     0.169 A 
HETATM    9  C25 UNL     1      31.206 -41.120 -24.641  1.00  0.00     0.213 A 
HETATM   10  C4  UNL     1      31.623 -41.985 -23.404  1.00  0.00     0.214 A 
HETATM   11  O13 UNL     1      29.820 -41.163 -24.634  1.00  0.00    -0.319 OA
HETATM   12  C20 UNL     1      29.188 -40.500 -25.698  1.00  0.00     0.292 C 
HETATM   13  C15 UNL     1      27.867 -41.211 -25.685  1.00  0.00     0.185 C 
HETATM   14  O11 UNL     1      29.919 -40.329 -26.700  1.00  0.00    -0.358 OA
HETATM   15  O8  UNL     1      27.932 -42.452 -24.995  1.00  0.00    -0.320 OA
HETATM   16  C16 UNL     1      27.158 -41.425 -26.956  1.00  0.00     0.077 C 
HETATM   17  C14 UNL     1      28.673 -43.406 -25.742  1.00  0.00     0.311 C 
HETATM   18  C19 UNL     1      27.608 -43.903 -26.731  1.00  0.00     0.245 C 
HETATM   19  C17 UNL     1      26.643 -42.846 -27.128  1.00  0.00     0.090 C 
HETATM   20  C18 UNL     1      26.316 -43.019 -28.595  1.00  0.00     0.049 C 
HETATM   21  C21 UNL     1      30.719 -40.672 -27.603  1.00  0.00     0.181 C 
BRANCH   8  22
HETATM   22  O3  UNL     1      33.587 -43.106 -24.047  1.00  0.00    -0.370 OA
BRANCH  22  23
HETATM   23  C6  UNL     1      34.303 -44.207 -24.196  1.00  0.00     0.080 C 
HETATM   24  C7  UNL     1      35.323 -43.802 -25.350  1.00  0.00     0.048 C 
BRANCH  23  25
HETATM   25  C8  UNL     1      35.195 -44.731 -23.141  1.00  0.00     0.201 C 
BRANCH  25  26
HETATM   26  O4  UNL     1      34.916 -44.334 -21.860  1.00  0.00    -0.398 OA
ATOM     27  H4  UNL     1      34.104 -44.659 -21.489  1.00  0.00     0.209 HD
ENDBRANCH  25  26
ENDBRANCH  23  25
BRANCH  23  28
HETATM   28  C9  UNL     1      33.572 -45.422 -24.817  1.00  0.00     0.052 C 
BRANCH  28  29
HETATM   29  C10 UNL     1      34.544 -46.564 -24.997  1.00  0.00     0.111 C 
BRANCH  29  30
HETATM   30  S1  UNL     1      34.591 -47.218 -26.631  1.00  0.00     0.011 S 
HETATM   31  C11 UNL     1      33.294 -46.640 -27.673  1.00  0.00     0.127 C 
HETATM   32  O5  UNL     1      34.514 -48.914 -26.614  1.00  0.00    -0.258 OA
ENDBRANCH  29  30
ENDBRANCH  28  29
ENDBRANCH  23  28
ENDBRANCH  22  23
ENDBRANCH   8  22
BRANCH  10  33
HETATM   33  O2  UNL     1      30.534 -42.434 -22.710  1.00  0.00    -0.375 OA
BRANCH  33  34
HETATM   34  C3  UNL     1      30.416 -42.099 -21.402  1.00  0.00     0.199 C 
BRANCH  34  35
HETATM   35  C2  UNL     1      30.732 -43.238 -20.486  1.00  0.00     0.138 C 
HETATM   36  C1  UNL     1      32.040 -42.915 -19.772  1.00  0.00     0.041 C 
BRANCH  35  37
HETATM   37  O1  UNL     1      29.749 -43.237 -19.488  1.00  0.00    -0.394 OA
ATOM     38  H1  UNL     1      29.170 -43.959 -19.702  1.00  0.00     0.210 HD
ENDBRANCH  35  37
ENDBRANCH  34  35
ENDBRANCH  33  34
ENDBRANCH  10  33
BRANCH   9  39
HETATM   39  O14 UNL     1      31.590 -39.814 -24.630  1.00  0.00    -0.278 OA
BRANCH  39  40
HETATM   40  C26 UNL     1      32.702 -39.154 -24.207  1.00  0.00     0.285 C 
HETATM   41  O15 UNL     1      33.619 -39.009 -25.030  1.00  0.00    -0.263 OA
BRANCH  40  42
HETATM   42  C27 UNL     1      32.807 -38.627 -22.803  1.00  0.00     0.275 C 
BRANCH  42  43
HETATM   43  O16 UNL     1      31.587 -38.600 -22.179  1.00  0.00    -0.391 OA
ATOM     44  H16 UNL     1      31.639 -38.942 -21.294  1.00  0.00     0.210 HD
ENDBRANCH  42  43
ENDBRANCH  40  42
ENDBRANCH  39  40
ENDBRANCH   9  39
BRANCH  17  45
HETATM   45  O7  UNL     1      28.891 -44.471 -24.837  1.00  0.00    -0.341 OA
ATOM     46  H7  UNL     1      28.433 -44.500 -24.005  1.00  0.00     0.215 HD
ENDBRANCH  17  45
BRANCH  18  47
HETATM   47  O10 UNL     1      26.906 -44.973 -26.143  1.00  0.00    -0.384 OA
ATOM     48  H10 UNL     1      26.971 -45.732 -26.710  1.00  0.00     0.210 HD
ENDBRANCH  18  47
BRANCH  19  49
HETATM   49  O9  UNL     1      25.455 -43.037 -26.421  1.00  0.00    -0.387 OA
ATOM     50  H9  UNL     1      25.483 -42.594 -25.581  1.00  0.00     0.210 HD
ENDBRANCH  19  49
ENDBRANCH   1   4
BRANCH   1  51
HETATM   51  O12 UNL     1      29.390 -41.946 -29.362  1.00  0.00    -0.381 OA
ATOM     52  H12 UNL     1      29.672 -41.053 -29.523  1.00  0.00     0.211 HD
ENDBRANCH   1  51
TORSDOF 20
ENDMDL
MODEL 3
REMARK VINA RESULT: -6.205464088      1.589      1.820
REMARK  20 active torsions:
REMARK  status: ('A' for Active; 'I' for Inactive)
REMARK    1  A    between atoms: C2_2  and  O1_3 
REMARK    2  A    between atoms: C2_2  and  C3_5 
REMARK    3  A    between atoms: C3_5  and  O2_6 
REMARK    4  A    between atoms: O2_6  and  C4_7 
REMARK    5  A    between atoms: C5_8  and  O3_9 
REMARK    6  A    between atoms: O3_9  and  C6_10 
REMARK    7  A    between atoms: C6_10  and  C8_12 
REMARK    8  A    between atoms: C6_10  and  C9_15 
REMARK    9  A    between atoms: C8_12  and  O4_13 
REMARK   10  A    between atoms: C9_15  and  C10_16 
REMARK   11  A    between atoms: C10_16  and  S1_17 
REMARK   12  A    between atoms: C14_23  and  O7_24 
REMARK   13  A    between atoms: C17_29  and  O9_31 
REMARK   14  A    between atoms: C19_33  and  O10_34 
REMARK   15  A    between atoms: C22_39  and  C23_40 
REMARK   16  A    between atoms: C23_40  and  O12_41 
REMARK   17  A    between atoms: C25_46  and  O14_47 
REMARK   18  A    between atoms: O14_47  and  C26_48 
REMARK   19  A    between atoms: C26_48  and  C27_50 
REMARK   20  A    between atoms: C27_50  and  O16_51 
ROOT
HETATM    1  C23 UNL     1      30.303 -42.620 -29.073  1.00  0.00     0.233 C 
HETATM    2  C24 UNL     1      31.068 -42.827 -30.259  1.00  0.00     0.091 C 
HETATM    3  N1  UNL     1      31.670 -43.018 -31.207  1.00  0.00    -0.195 NA
ENDROOT
BRANCH   1   4
HETATM    4  C22 UNL     1      31.036 -42.096 -27.876  1.00  0.00     0.082 C 
HETATM    5  C13 UNL     1      30.759 -42.868 -26.591  1.00  0.00     0.149 C 
HETATM    6  C12 UNL     1      31.755 -42.252 -25.594  1.00  0.00     0.113 A 
HETATM    7  O6  UNL     1      29.507 -42.805 -26.405  1.00  0.00    -0.324 OA
HETATM    8  C5  UNL     1      32.158 -43.189 -24.449  1.00  0.00     0.169 A 
HETATM    9  C25 UNL     1      31.202 -41.229 -24.700  1.00  0.00     0.213 A 
HETATM   10  C4  UNL     1      31.607 -42.168 -23.514  1.00  0.00     0.214 A 
HETATM   11  O13 UNL     1      29.816 -41.205 -24.655  1.00  0.00    -0.319 OA
HETATM   12  C20 UNL     1      29.190 -40.466 -25.672  1.00  0.00     0.292 C 
HETATM   13  C15 UNL     1      27.836 -41.112 -25.653  1.00  0.00     0.185 C 
HETATM   14  O11 UNL     1      29.903 -40.285 -26.686  1.00  0.00    -0.358 OA
HETATM   15  O8  UNL     1      27.858 -42.384 -25.019  1.00  0.00    -0.320 OA
HETATM   16  C16 UNL     1      27.085 -41.234 -26.912  1.00  0.00     0.077 C 
HETATM   17  C14 UNL     1      28.531 -43.339 -25.827  1.00  0.00     0.311 C 
HETATM   18  C19 UNL     1      27.418 -43.740 -26.807  1.00  0.00     0.245 C 
HETATM   19  C17 UNL     1      26.496 -42.620 -27.131  1.00  0.00     0.090 C 
HETATM   20  C18 UNL     1      26.124 -42.712 -28.594  1.00  0.00     0.049 C 
HETATM   21  C21 UNL     1      30.661 -40.626 -27.625  1.00  0.00     0.181 C 
BRANCH   8  22
HETATM   22  O3  UNL     1      33.496 -43.352 -24.258  1.00  0.00    -0.370 OA
BRANCH  22  23
HETATM   23  C6  UNL     1      34.081 -44.509 -24.002  1.00  0.00     0.080 C 
HETATM   24  C7  UNL     1      34.519 -44.346 -22.479  1.00  0.00     0.048 C 
BRANCH  23  25
HETATM   25  C8  UNL     1      33.350 -45.793 -23.996  1.00  0.00     0.201 C 
BRANCH  25  26
HETATM   26  O4  UNL     1      33.428 -46.539 -25.142  1.00  0.00    -0.398 OA
ATOM     27  H4  UNL     1      32.603 -46.743 -25.566  1.00  0.00     0.209 HD
ENDBRANCH  25  26
ENDBRANCH  23  25
BRANCH  23  28
HETATM   28  C9  UNL     1      35.436 -44.763 -24.707  1.00  0.00     0.052 C 
BRANCH  28  29
HETATM   29  C10 UNL     1      36.362 -45.510 -23.777  1.00  0.00     0.111 C 
BRANCH  29  30
HETATM   30  S1  UNL     1      37.087 -46.949 -24.486  1.00  0.00     0.011 S 
HETATM   31  C11 UNL     1      38.045 -46.634 -25.929  1.00  0.00     0.127 C 
HETATM   32  O5  UNL     1      35.901 -48.091 -24.900  1.00  0.00    -0.258 OA
ENDBRANCH  29  30
ENDBRANCH  28  29
ENDBRANCH  23  28
ENDBRANCH  22  23
ENDBRANCH   8  22
BRANCH  10  33
HETATM   33  O2  UNL     1      30.515 -42.593 -22.809  1.00  0.00    -0.375 OA
BRANCH  33  34
HETATM   34  C3  UNL     1      30.378 -42.194 -21.521  1.00  0.00     0.199 C 
BRANCH  34  35
HETATM   35  C2  UNL     1      30.720 -43.275 -20.545  1.00  0.00     0.138 C 
HETATM   36  C1  UNL     1      32.026 -42.889 -19.858  1.00  0.00     0.041 C 
BRANCH  35  37
HETATM   37  O1  UNL     1      29.743 -43.236 -19.542  1.00  0.00    -0.394 OA
ATOM     38  H1  UNL     1      28.936 -43.509 -19.964  1.00  0.00     0.210 HD
ENDBRANCH  35  37
ENDBRANCH  34  35
ENDBRANCH  33  34
ENDBRANCH  10  33
BRANCH   9  39
HETATM   39  O14 UNL     1      31.649 -39.945 -24.643  1.00  0.00    -0.278 OA
BRANCH  39  40
HETATM   40  C26 UNL     1      32.769 -39.350 -24.150  1.00  0.00     0.285 C 
HETATM   41  O15 UNL     1      33.774 -39.348 -24.878  1.00  0.00    -0.263 OA
BRANCH  40  42
HETATM   42  C27 UNL     1      32.782 -38.726 -22.782  1.00  0.00     0.275 C 
BRANCH  42  43
HETATM   43  O16 UNL     1      31.528 -38.691 -22.230  1.00  0.00    -0.391 OA
ATOM     44  H16 UNL     1      31.305 -39.514 -21.813  1.00  0.00     0.210 HD
ENDBRANCH  42  43
ENDBRANCH  40  42
ENDBRANCH  39  40
ENDBRANCH   9  39
BRANCH  17  45
HETATM   45  O7  UNL     1      28.719 -44.452 -24.976  1.00  0.00    -0.341 OA
ATOM     46  H7  UNL     1      29.443 -45.051 -25.115  1.00  0.00     0.215 HD
ENDBRANCH  17  45
BRANCH  18  47
HETATM   47  O10 UNL     1      26.679 -44.799 -26.246  1.00  0.00    -0.384 OA
ATOM     48  H10 UNL     1      25.791 -44.503 -26.086  1.00  0.00     0.210 HD
ENDBRANCH  18  47
BRANCH  19  49
HETATM   49  O9  UNL     1      25.319 -42.785 -26.400  1.00  0.00    -0.387 OA
ATOM     50  H9  UNL     1      24.557 -42.723 -26.964  1.00  0.00     0.210 HD
ENDBRANCH  19  49
ENDBRANCH   1   4
BRANCH   1  51
HETATM   51  O12 UNL     1      29.214 -41.767 -29.387  1.00  0.00    -0.381 OA
ATOM     52  H12 UNL     1      28.441 -42.284 -29.581  1.00  0.00     0.211 HD
ENDBRANCH   1  51
TORSDOF 20
ENDMDL
MODEL 4
REMARK VINA RESULT: -6.110050485      2.028      3.215
REMARK  20 active torsions:
REMARK  status: ('A' for Active; 'I' for Inactive)
REMARK    1  A    between atoms: C2_2  and  O1_3 
REMARK    2  A    between atoms: C2_2  and  C3_5 
REMARK    3  A    between atoms: C3_5  and  O2_6 
REMARK    4  A    between atoms: O2_6  and  C4_7 
REMARK    5  A    between atoms: C5_8  and  O3_9 
REMARK    6  A    between atoms: O3_9  and  C6_10 
REMARK    7  A    between atoms: C6_10  and  C8_12 
REMARK    8  A    between atoms: C6_10  and  C9_15 
REMARK    9  A    between atoms: C8_12  and  O4_13 
REMARK   10  A    between atoms: C9_15  and  C10_16 
REMARK   11  A    between atoms: C10_16  and  S1_17 
REMARK   12  A    between atoms: C14_23  and  O7_24 
REMARK   13  A    between atoms: C17_29  and  O9_31 
REMARK   14  A    between atoms: C19_33  and  O10_34 
REMARK   15  A    between atoms: C22_39  and  C23_40 
REMARK   16  A    between atoms: C23_40  and  O12_41 
REMARK   17  A    between atoms: C25_46  and  O14_47 
REMARK   18  A    between atoms: O14_47  and  C26_48 
REMARK   19  A    between atoms: C26_48  and  C27_50 
REMARK   20  A    between atoms: C27_50  and  O16_51 
ROOT
HETATM    1  C23 UNL     1      30.460 -42.618 -28.907  1.00  0.00     0.233 C 
HETATM    2  C24 UNL     1      31.262 -42.860 -30.060  1.00  0.00     0.091 C 
HETATM    3  N1  UNL     1      31.895 -43.079 -30.982  1.00  0.00    -0.195 NA
ENDROOT
BRANCH   1   4
HETATM    4  C22 UNL     1      31.151 -42.043 -27.708  1.00  0.00     0.082 C 
HETATM    5  C13 UNL     1      30.879 -42.800 -26.412  1.00  0.00     0.149 C 
HETATM    6  C12 UNL     1      31.832 -42.127 -25.411  1.00  0.00     0.113 A 
HETATM    7  O6  UNL     1      29.622 -42.780 -26.250  1.00  0.00    -0.324 OA
HETATM    8  C5  UNL     1      32.249 -43.025 -24.240  1.00  0.00     0.169 A 
HETATM    9  C25 UNL     1      31.226 -41.108 -24.548  1.00  0.00     0.213 A 
HETATM   10  C4  UNL     1      31.643 -42.007 -23.336  1.00  0.00     0.214 A 
HETATM   11  O13 UNL     1      29.839 -41.135 -24.529  1.00  0.00    -0.319 OA
HETATM   12  C20 UNL     1      29.205 -40.439 -25.572  1.00  0.00     0.292 C 
HETATM   13  C15 UNL     1      27.876 -41.135 -25.563  1.00  0.00     0.185 C 
HETATM   14  O11 UNL     1      29.929 -40.253 -26.576  1.00  0.00    -0.358 OA
HETATM   15  O8  UNL     1      27.933 -42.393 -24.903  1.00  0.00    -0.320 OA
HETATM   16  C16 UNL     1      27.153 -41.311 -26.832  1.00  0.00     0.077 C 
HETATM   17  C14 UNL     1      28.656 -43.338 -25.679  1.00  0.00     0.311 C 
HETATM   18  C19 UNL     1      27.577 -43.799 -26.670  1.00  0.00     0.245 C 
HETATM   19  C17 UNL     1      26.620 -42.722 -27.033  1.00  0.00     0.090 C 
HETATM   20  C18 UNL     1      26.279 -42.856 -28.500  1.00  0.00     0.049 C 
HETATM   21  C21 UNL     1      30.717 -40.584 -27.494  1.00  0.00     0.181 C 
BRANCH   8  22
HETATM   22  O3  UNL     1      33.588 -43.135 -24.022  1.00  0.00    -0.370 OA
BRANCH  22  23
HETATM   23  C6  UNL     1      34.256 -44.274 -24.018  1.00  0.00     0.080 C 
HETATM   24  C7  UNL     1      33.109 -45.349 -23.762  1.00  0.00     0.048 C 
BRANCH  23  25
HETATM   25  C8  UNL     1      34.940 -44.806 -25.215  1.00  0.00     0.201 C 
BRANCH  25  26
HETATM   26  O4  UNL     1      34.134 -45.168 -26.262  1.00  0.00    -0.398 OA
ATOM     27  H4  UNL     1      33.574 -44.487 -26.615  1.00  0.00     0.209 HD
ENDBRANCH  25  26
ENDBRANCH  23  25
BRANCH  23  28
HETATM   28  C9  UNL     1      35.201 -44.512 -22.814  1.00  0.00     0.052 C 
BRANCH  28  29
HETATM   29  C10 UNL     1      34.574 -43.958 -21.557  1.00  0.00     0.111 C 
BRANCH  29  30
HETATM   30  S1  UNL     1      35.344 -42.494 -20.955  1.00  0.00     0.011 S 
HETATM   31  C11 UNL     1      35.673 -42.514 -19.225  1.00  0.00     0.127 C 
HETATM   32  O5  UNL     1      34.391 -41.125 -21.276  1.00  0.00    -0.258 OA
ENDBRANCH  29  30
ENDBRANCH  28  29
ENDBRANCH  23  28
ENDBRANCH  22  23
ENDBRANCH   8  22
BRANCH  10  33
HETATM   33  O2  UNL     1      30.555 -42.459 -22.642  1.00  0.00    -0.375 OA
BRANCH  33  34
HETATM   34  C3  UNL     1      30.401 -42.071 -21.352  1.00  0.00     0.199 C 
BRANCH  34  35
HETATM   35  C2  UNL     1      30.572 -43.201 -20.388  1.00  0.00     0.138 C 
HETATM   36  C1  UNL     1      31.806 -42.910 -19.540  1.00  0.00     0.041 C 
BRANCH  35  37
HETATM   37  O1  UNL     1      29.488 -43.144 -19.504  1.00  0.00    -0.394 OA
ATOM     38  H1  UNL     1      29.611 -43.870 -18.903  1.00  0.00     0.210 HD
ENDBRANCH  35  37
ENDBRANCH  34  35
ENDBRANCH  33  34
ENDBRANCH  10  33
BRANCH   9  39
HETATM   39  O14 UNL     1      31.624 -39.807 -24.510  1.00  0.00    -0.278 OA
BRANCH  39  40
HETATM   40  C26 UNL     1      32.658 -39.147 -23.920  1.00  0.00     0.285 C 
HETATM   41  O15 UNL     1      32.396 -38.475 -22.911  1.00  0.00    -0.263 OA
BRANCH  40  42
HETATM   42  C27 UNL     1      34.053 -39.234 -24.474  1.00  0.00     0.275 C 
BRANCH  42  43
HETATM   43  O16 UNL     1      34.704 -40.356 -24.032  1.00  0.00    -0.391 OA
ATOM     44  H16 UNL     1      35.417 -40.139 -23.442  1.00  0.00     0.210 HD
ENDBRANCH  42  43
ENDBRANCH  40  42
ENDBRANCH  39  40
ENDBRANCH   9  39
BRANCH  17  45
HETATM   45  O7  UNL     1      28.869 -44.426 -24.801  1.00  0.00    -0.341 OA
ATOM     46  H7  UNL     1      29.252 -44.287 -23.943  1.00  0.00     0.215 HD
ENDBRANCH  17  45
BRANCH  18  47
HETATM   47  O10 UNL     1      26.867 -44.875 -26.100  1.00  0.00    -0.384 OA
ATOM     48  H10 UNL     1      26.248 -45.206 -26.739  1.00  0.00     0.210 HD
ENDBRANCH  18  47
BRANCH  19  49
HETATM   49  O9  UNL     1      25.436 -42.916 -26.320  1.00  0.00    -0.387 OA
ATOM     50  H9  UNL     1      24.935 -43.637 -26.681  1.00  0.00     0.210 HD
ENDBRANCH  19  49
ENDBRANCH   1   4
BRANCH   1  51
HETATM   51  O12 UNL     1      29.373 -41.788 -29.285  1.00  0.00    -0.381 OA
ATOM     52  H12 UNL     1      29.016 -41.351 -28.520  1.00  0.00     0.211 HD
ENDBRANCH   1  51
TORSDOF 20
ENDMDL
MODEL 5
REMARK VINA RESULT: -6.070582408      2.815      6.563
REMARK  20 active torsions:
REMARK  status: ('A' for Active; 'I' for Inactive)
REMARK    1  A    between atoms: C2_2  and  O1_3 
REMARK    2  A    between atoms: C2_2  and  C3_5 
REMARK    3  A    between atoms: C3_5  and  O2_6 
REMARK    4  A    between atoms: O2_6  and  C4_7 
REMARK    5  A    between atoms: C5_8  and  O3_9 
REMARK    6  A    between atoms: O3_9  and  C6_10 
REMARK    7  A    between atoms: C6_10  and  C8_12 
REMARK    8  A    between atoms: C6_10  and  C9_15 
REMARK    9  A    between atoms: C8_12  and  O4_13 
REMARK   10  A    between atoms: C9_15  and  C10_16 
REMARK   11  A    between atoms: C10_16  and  S1_17 
REMARK   12  A    between atoms: C14_23  and  O7_24 
REMARK   13  A    between atoms: C17_29  and  O9_31 
REMARK   14  A    between atoms: C19_33  and  O10_34 
REMARK   15  A    between atoms: C22_39  and  C23_40 
REMARK   16  A    between atoms: C23_40  and  O12_41 
REMARK   17  A    between atoms: C25_46  and  O14_47 
REMARK   18  A    between atoms: O14_47  and  C26_48 
REMARK   19  A    between atoms: C26_48  and  C27_50 
REMARK   20  A    between atoms: C27_50  and  O16_51 
ROOT
HETATM    1  C23 UNL     1      35.498 -43.440 -26.088  1.00  0.00     0.233 C 
HETATM    2  C24 UNL     1      36.494 -42.583 -25.535  1.00  0.00     0.091 C 
HETATM    3  N1  UNL     1      37.300 -41.920 -25.077  1.00  0.00    -0.195 NA
ENDROOT
BRANCH   1   4
HETATM    4  C22 UNL     1      34.075 -42.984 -25.980  1.00  0.00     0.082 C 
HETATM    5  C13 UNL     1      33.142 -44.006 -25.339  1.00  0.00     0.149 C 
HETATM    6  C12 UNL     1      31.825 -43.227 -25.188  1.00  0.00     0.113 A 
HETATM    7  O6  UNL     1      33.219 -45.049 -26.053  1.00  0.00    -0.324 OA
HETATM    8  C5  UNL     1      30.923 -43.731 -24.056  1.00  0.00     0.169 A 
HETATM    9  C25 UNL     1      30.824 -43.469 -26.232  1.00  0.00     0.213 A 
HETATM   10  C4  UNL     1      29.883 -43.987 -25.093  1.00  0.00     0.214 A 
HETATM   11  O13 UNL     1      31.073 -44.595 -27.004  1.00  0.00    -0.319 OA
HETATM   12  C20 UNL     1      31.957 -44.407 -28.080  1.00  0.00     0.292 C 
HETATM   13  C15 UNL     1      32.406 -45.825 -28.282  1.00  0.00     0.185 C 
HETATM   14  O11 UNL     1      32.704 -43.411 -27.960  1.00  0.00    -0.358 OA
HETATM   15  O8  UNL     1      32.157 -46.634 -27.140  1.00  0.00    -0.320 OA
HETATM   16  C16 UNL     1      33.780 -46.080 -28.739  1.00  0.00     0.077 C 
HETATM   17  C14 UNL     1      33.033 -46.289 -26.076  1.00  0.00     0.311 C 
HETATM   18  C19 UNL     1      34.300 -47.064 -26.468  1.00  0.00     0.245 C 
HETATM   19  C17 UNL     1      34.493 -47.159 -27.938  1.00  0.00     0.090 C 
HETATM   20  C18 UNL     1      35.969 -47.026 -28.238  1.00  0.00     0.049 C 
HETATM   21  C21 UNL     1      33.515 -42.655 -27.374  1.00  0.00     0.181 C 
BRANCH   8  22
HETATM   22  O3  UNL     1      30.502 -42.791 -23.166  1.00  0.00    -0.370 OA
BRANCH  22  23
HETATM   23  C6  UNL     1      31.050 -42.579 -21.983  1.00  0.00     0.080 C 
HETATM   24  C7  UNL     1      31.726 -41.148 -22.165  1.00  0.00     0.048 C 
BRANCH  23  25
HETATM   25  C8  UNL     1      30.253 -42.408 -20.750  1.00  0.00     0.201 C 
BRANCH  25  26
HETATM   26  O4  UNL     1      30.442 -43.349 -19.773  1.00  0.00    -0.398 OA
ATOM     27  H4  UNL     1      30.861 -43.046 -18.975  1.00  0.00     0.209 HD
ENDBRANCH  25  26
ENDBRANCH  23  25
BRANCH  23  28
HETATM   28  C9  UNL     1      32.263 -43.469 -21.618  1.00  0.00     0.052 C 
BRANCH  28  29
HETATM   29  C10 UNL     1      33.489 -42.608 -21.430  1.00  0.00     0.111 C 
BRANCH  29  30
HETATM   30  S1  UNL     1      34.325 -42.870 -19.903  1.00  0.00     0.011 S 
HETATM   31  C11 UNL     1      35.581 -44.103 -19.974  1.00  0.00     0.127 C 
HETATM   32  O5  UNL     1      33.238 -43.320 -18.680  1.00  0.00    -0.258 OA
ENDBRANCH  29  30
ENDBRANCH  28  29
ENDBRANCH  23  28
ENDBRANCH  22  23
ENDBRANCH   8  22
BRANCH  10  33
HETATM   33  O2  UNL     1      29.574 -45.309 -25.253  1.00  0.00    -0.375 OA
BRANCH  33  34
HETATM   34  C3  UNL     1      28.271 -45.681 -25.210  1.00  0.00     0.199 C 
BRANCH  34  35
HETATM   35  C2  UNL     1      27.590 -45.541 -26.534  1.00  0.00     0.138 C 
HETATM   36  C1  UNL     1      26.651 -46.730 -26.706  1.00  0.00     0.041 C 
BRANCH  35  37
HETATM   37  O1  UNL     1      26.758 -44.418 -26.441  1.00  0.00    -0.394 OA
ATOM     38  H1  UNL     1      25.994 -44.624 -26.968  1.00  0.00     0.210 HD
ENDBRANCH  35  37
ENDBRANCH  34  35
ENDBRANCH  33  34
ENDBRANCH  10  33
BRANCH   9  39
HETATM   39  O14 UNL     1      30.322 -42.501 -27.046  1.00  0.00    -0.278 OA
BRANCH  39  40
HETATM   40  C26 UNL     1      29.212 -41.714 -27.013  1.00  0.00     0.285 C 
HETATM   41  O15 UNL     1      28.221 -42.110 -27.645  1.00  0.00    -0.263 OA
BRANCH  40  42
HETATM   42  C27 UNL     1      29.196 -40.423 -26.243  1.00  0.00     0.275 C 
BRANCH  42  43
HETATM   43  O16 UNL     1      29.075 -40.638 -24.895  1.00  0.00    -0.391 OA
ATOM     44  H16 UNL     1      28.200 -40.926 -24.663  1.00  0.00     0.210 HD
ENDBRANCH  42  43
ENDBRANCH  40  42
ENDBRANCH  39  40
ENDBRANCH   9  39
BRANCH  17  45
HETATM   45  O7  UNL     1      32.500 -46.958 -24.950  1.00  0.00    -0.341 OA
ATOM     46  H7  UNL     1      32.869 -46.820 -24.085  1.00  0.00     0.215 HD
ENDBRANCH  17  45
BRANCH  18  47
HETATM   47  O10 UNL     1      34.223 -48.362 -25.926  1.00  0.00    -0.384 OA
ATOM     48  H10 UNL     1      35.084 -48.615 -25.613  1.00  0.00     0.210 HD
ENDBRANCH  18  47
BRANCH  19  49
HETATM   49  O9  UNL     1      34.105 -48.433 -28.358  1.00  0.00    -0.387 OA
ATOM     50  H9  UNL     1      34.050 -48.476 -29.306  1.00  0.00     0.210 HD
ENDBRANCH  19  49
ENDBRANCH   1   4
BRANCH   1  51
HETATM   51  O12 UNL     1      35.826 -43.689 -27.445  1.00  0.00    -0.381 OA
ATOM     52  H12 UNL     1      35.929 -44.623 -27.589  1.00  0.00     0.211 HD
ENDBRANCH   1  51
TORSDOF 20
ENDMDL
