MODEL 1
REMARK VINA RESULT: -7.411526877      0.000      0.000
REMARK  19 active torsions:
REMARK  status: ('A' for Active; 'I' for Inactive)
REMARK    1  A    between atoms: C2_2  and  O2_4 
REMARK    2  A    between atoms: O2_4  and  C3_5 
REMARK    3  A    between atoms: C3_5  and  C4_6 
REMARK    4  A    between atoms: C4_6  and  O3_7 
REMARK    5  A    between atoms: O3_7  and  C5_8 
REMARK    6  A    between atoms: C6_10  and  C7_11 
REMARK    7  A    between atoms: C8_14  and  O7_15 
REMARK    8  A    between atoms: O7_15  and  C9_16 
REMARK    9  A    between atoms: C11_19  and  O9_20 
REMARK   10  A    between atoms: O9_20  and  S1_21 
REMARK   11  A    between atoms: C12_25  and  O13_26 
REMARK   12  A    between atoms: O13_26  and  C13_27 
REMARK   13  A    between atoms: C13_27  and  C14_29 
REMARK   14  A    between atoms: C15_30  and  C16_31 
REMARK   15  A    between atoms: C18_36  and  O15_37 
REMARK   16  A    between atoms: C19_39  and  O16_40 
REMARK   17  A    between atoms: C20_42  and  O17_43 
REMARK   18  A    between atoms: C22_46  and  O18_47 
REMARK   19  A    between atoms: O18_47  and  C23_48 
ROOT
HETATM    1  C5  UNL     1      29.840 -45.455 -25.494  1.00  0.00     0.293 C 
HETATM    2  O4  UNL     1      28.792 -46.082 -26.200  1.00  0.00    -0.340 OA
HETATM    3  C6  UNL     1      27.572 -45.445 -26.039  1.00  0.00     0.257 C 
HETATM    4  C8  UNL     1      27.586 -44.158 -26.785  1.00  0.00     0.204 C 
HETATM    5  C11 UNL     1      28.989 -43.480 -26.746  1.00  0.00     0.212 C 
HETATM    6  C12 UNL     1      29.594 -43.958 -25.460  1.00  0.00     0.220 C 
ENDROOT
BRANCH   6   7
HETATM    7  O13 UNL     1      30.605 -43.233 -24.885  1.00  0.00    -0.307 OA
BRANCH   7   8
HETATM    8  C13 UNL     1      30.534 -42.534 -23.694  1.00  0.00     0.274 C 
HETATM    9  O14 UNL     1      29.362 -42.215 -23.396  1.00  0.00    -0.264 OA
BRANCH   8  10
HETATM   10  C14 UNL     1      31.732 -42.247 -22.936  1.00  0.00     0.118 C 
HETATM   11  C15 UNL     1      32.704 -43.316 -23.023  1.00  0.00     0.050 C 
HETATM   12  C17 UNL     1      33.754 -42.846 -23.994  1.00  0.00     0.046 C 
HETATM   13  C18 UNL     1      33.372 -41.421 -24.386  1.00  0.00     0.157 C 
HETATM   14  C19 UNL     1      32.532 -41.031 -23.307  1.00  0.00     0.129 C 
HETATM   15  C20 UNL     1      31.527 -39.985 -23.294  1.00  0.00     0.159 C 
HETATM   16  C21 UNL     1      30.695 -40.382 -22.061  1.00  0.00     0.069 C 
HETATM   17  C22 UNL     1      31.291 -41.734 -21.585  1.00  0.00     0.156 C 
BRANCH  11  18
HETATM   18  C16 UNL     1      33.253 -43.818 -21.739  1.00  0.00     0.059 C 
HETATM   19  N1  UNL     1      34.458 -43.574 -21.410  1.00  0.00    -0.411 N 
ATOM     20  H12 UNL     1      35.039 -43.028 -22.047  1.00  0.00     0.155 HD
ATOM     21  H11 UNL     1      34.836 -43.920 -20.527  1.00  0.00     0.155 HD
ENDBRANCH  11  18
BRANCH  13  22
HETATM   22  O15 UNL     1      32.998 -41.299 -25.688  1.00  0.00    -0.392 OA
ATOM     23  H15 UNL     1      33.494 -40.644 -26.166  1.00  0.00     0.210 HD
ENDBRANCH  13  22
BRANCH  14  24
HETATM   24  O16 UNL     1      33.369 -40.795 -22.172  1.00  0.00    -0.383 OA
ATOM     25  H16 UNL     1      33.149 -39.913 -21.895  1.00  0.00     0.210 HD
ENDBRANCH  14  24
BRANCH  15  26
HETATM   26  O17 UNL     1      32.123 -38.756 -22.977  1.00  0.00    -0.392 OA
ATOM     27  H17 UNL     1      32.408 -38.320 -23.772  1.00  0.00     0.210 HD
ENDBRANCH  15  26
BRANCH  17  28
HETATM   28  O18 UNL     1      30.281 -42.555 -21.081  1.00  0.00    -0.315 OA
BRANCH  28  29
HETATM   29  C23 UNL     1      30.065 -42.807 -19.760  1.00  0.00     0.255 C 
HETATM   30  C24 UNL     1      31.226 -43.182 -18.880  1.00  0.00     0.126 C 
HETATM   31  O19 UNL     1      28.899 -42.726 -19.283  1.00  0.00    -0.266 OA
ENDBRANCH  28  29
ENDBRANCH  17  28
ENDBRANCH   8  10
ENDBRANCH   7   8
ENDBRANCH   6   7
BRANCH   1  32
HETATM   32  O3  UNL     1      31.061 -45.825 -25.989  1.00  0.00    -0.356 OA
BRANCH  32  33
HETATM   33  C4  UNL     1      31.890 -46.257 -24.956  1.00  0.00     0.197 C 
BRANCH  33  34
HETATM   34  C3  UNL     1      33.345 -46.218 -25.369  1.00  0.00     0.205 C 
BRANCH  34  35
HETATM   35  O2  UNL     1      33.702 -47.144 -26.337  1.00  0.00    -0.320 OA
BRANCH  35  36
HETATM   36  C2  UNL     1      34.742 -48.027 -26.323  1.00  0.00     0.254 C 
HETATM   37  C1  UNL     1      36.022 -47.741 -25.629  1.00  0.00     0.126 C 
HETATM   38  O1  UNL     1      34.618 -49.107 -26.911  1.00  0.00    -0.266 OA
ENDBRANCH  35  36
ENDBRANCH  34  35
ENDBRANCH  33  34
ENDBRANCH  32  33
ENDBRANCH   1  32
BRANCH   5  39
HETATM   39  O9  UNL     1      28.837 -42.110 -26.715  1.00  0.00    -0.246 OA
BRANCH  39  40
HETATM   40  S1  UNL     1      29.951 -41.315 -27.657  1.00  0.00     0.252 S 
HETATM   41  O10 UNL     1      29.222 -40.756 -28.865  1.00  0.00    -0.572 OA
HETATM   42  O11 UNL     1      31.122 -42.129 -28.052  1.00  0.00    -0.572 OA
HETATM   43  O12 UNL     1      30.516 -39.979 -26.784  1.00  0.00    -0.572 OA
ENDBRANCH  39  40
ENDBRANCH   5  39
BRANCH   4  44
HETATM   44  O7  UNL     1      26.616 -43.232 -26.361  1.00  0.00    -0.310 OA
BRANCH  44  45
HETATM   45  C9  UNL     1      25.679 -42.600 -27.119  1.00  0.00     0.255 C 
HETATM   46  C10 UNL     1      24.420 -43.334 -27.438  1.00  0.00     0.126 C 
HETATM   47  O8  UNL     1      25.928 -41.439 -27.506  1.00  0.00    -0.266 OA
ENDBRANCH  44  45
ENDBRANCH   4  44
BRANCH   3  48
HETATM   48  C7  UNL     1      26.558 -46.337 -26.663  1.00  0.00     0.206 C 
HETATM   49  O5  UNL     1      26.109 -46.188 -27.820  1.00  0.00    -0.646 OA
HETATM   50  O6  UNL     1      26.081 -47.398 -25.920  1.00  0.00    -0.646 OA
ENDBRANCH   3  48
TORSDOF 19
ENDMDL
MODEL 2
REMARK VINA RESULT: -7.252027010      0.631      1.057
REMARK  19 active torsions:
REMARK  status: ('A' for Active; 'I' for Inactive)
REMARK    1  A    between atoms: C2_2  and  O2_4 
REMARK    2  A    between atoms: O2_4  and  C3_5 
REMARK    3  A    between atoms: C3_5  and  C4_6 
REMARK    4  A    between atoms: C4_6  and  O3_7 
REMARK    5  A    between atoms: O3_7  and  C5_8 
REMARK    6  A    between atoms: C6_10  and  C7_11 
REMARK    7  A    between atoms: C8_14  and  O7_15 
REMARK    8  A    between atoms: O7_15  and  C9_16 
REMARK    9  A    between atoms: C11_19  and  O9_20 
REMARK   10  A    between atoms: O9_20  and  S1_21 
REMARK   11  A    between atoms: C12_25  and  O13_26 
REMARK   12  A    between atoms: O13_26  and  C13_27 
REMARK   13  A    between atoms: C13_27  and  C14_29 
REMARK   14  A    between atoms: C15_30  and  C16_31 
REMARK   15  A    between atoms: C18_36  and  O15_37 
REMARK   16  A    between atoms: C19_39  and  O16_40 
REMARK   17  A    between atoms: C20_42  and  O17_43 
REMARK   18  A    between atoms: C22_46  and  O18_47 
REMARK   19  A    between atoms: O18_47  and  C23_48 
ROOT
HETATM    1  C5  UNL     1      29.799 -45.201 -25.523  1.00  0.00     0.293 C 
HETATM    2  O4  UNL     1      28.821 -45.993 -26.162  1.00  0.00    -0.340 OA
HETATM    3  C6  UNL     1      27.541 -45.478 -26.039  1.00  0.00     0.257 C 
HETATM    4  C8  UNL     1      27.415 -44.263 -26.889  1.00  0.00     0.204 C 
HETATM    5  C11 UNL     1      28.737 -43.439 -26.923  1.00  0.00     0.212 C 
HETATM    6  C12 UNL     1      29.394 -43.740 -25.610  1.00  0.00     0.220 C 
ENDROOT
BRANCH   6   7
HETATM    7  O13 UNL     1      30.324 -42.867 -25.109  1.00  0.00    -0.307 OA
BRANCH   7   8
HETATM    8  C13 UNL     1      30.346 -42.344 -23.829  1.00  0.00     0.274 C 
HETATM    9  O14 UNL     1      29.203 -42.067 -23.405  1.00  0.00    -0.264 OA
BRANCH   8  10
HETATM   10  C14 UNL     1      31.599 -42.173 -23.126  1.00  0.00     0.118 C 
HETATM   11  C15 UNL     1      32.479 -43.311 -23.290  1.00  0.00     0.050 C 
HETATM   12  C17 UNL     1      33.513 -42.896 -24.301  1.00  0.00     0.046 C 
HETATM   13  C18 UNL     1      33.226 -41.435 -24.638  1.00  0.00     0.157 C 
HETATM   14  C19 UNL     1      32.473 -41.012 -23.508  1.00  0.00     0.129 C 
HETATM   15  C20 UNL     1      31.556 -39.893 -23.417  1.00  0.00     0.159 C 
HETATM   16  C21 UNL     1      30.757 -40.260 -22.153  1.00  0.00     0.069 C 
HETATM   17  C22 UNL     1      31.268 -41.667 -21.742  1.00  0.00     0.156 C 
BRANCH  11  18
HETATM   18  C16 UNL     1      33.049 -43.892 -22.048  1.00  0.00     0.059 C 
HETATM   19  N1  UNL     1      34.299 -43.827 -21.819  1.00  0.00    -0.411 N 
ATOM     20  H12 UNL     1      34.901 -43.370 -22.504  1.00  0.00     0.155 HD
ATOM     21  H11 UNL     1      34.692 -44.226 -20.965  1.00  0.00     0.155 HD
ENDBRANCH  11  18
BRANCH  13  22
HETATM   22  O15 UNL     1      32.799 -41.247 -25.916  1.00  0.00    -0.392 OA
ATOM     23  H15 UNL     1      31.886 -40.989 -25.977  1.00  0.00     0.210 HD
ENDBRANCH  13  22
BRANCH  14  24
HETATM   24  O16 UNL     1      33.382 -40.875 -22.412  1.00  0.00    -0.383 OA
ATOM     25  H16 UNL     1      32.822 -40.719 -21.660  1.00  0.00     0.210 HD
ENDBRANCH  14  24
BRANCH  15  26
HETATM   26  O17 UNL     1      32.263 -38.723 -23.101  1.00  0.00    -0.392 OA
ATOM     27  H17 UNL     1      31.654 -38.030 -22.871  1.00  0.00     0.210 HD
ENDBRANCH  15  26
BRANCH  17  28
HETATM   28  O18 UNL     1      30.222 -42.421 -21.207  1.00  0.00    -0.315 OA
BRANCH  28  29
HETATM   29  C23 UNL     1      30.082 -42.739 -19.891  1.00  0.00     0.255 C 
HETATM   30  C24 UNL     1      31.301 -43.090 -19.081  1.00  0.00     0.126 C 
HETATM   31  O19 UNL     1      28.937 -42.740 -19.359  1.00  0.00    -0.266 OA
ENDBRANCH  28  29
ENDBRANCH  17  28
ENDBRANCH   8  10
ENDBRANCH   7   8
ENDBRANCH   6   7
BRANCH   1  32
HETATM   32  O3  UNL     1      31.051 -45.478 -26.001  1.00  0.00    -0.356 OA
BRANCH  32  33
HETATM   33  C4  UNL     1      31.742 -46.287 -25.102  1.00  0.00     0.197 C 
BRANCH  33  34
HETATM   34  C3  UNL     1      33.229 -46.271 -25.383  1.00  0.00     0.205 C 
BRANCH  34  35
HETATM   35  O2  UNL     1      33.649 -47.166 -26.355  1.00  0.00    -0.320 OA
BRANCH  35  36
HETATM   36  C2  UNL     1      34.703 -48.032 -26.312  1.00  0.00     0.254 C 
HETATM   37  C1  UNL     1      35.965 -47.718 -25.598  1.00  0.00     0.126 C 
HETATM   38  O1  UNL     1      34.606 -49.120 -26.889  1.00  0.00    -0.266 OA
ENDBRANCH  35  36
ENDBRANCH  34  35
ENDBRANCH  33  34
ENDBRANCH  32  33
ENDBRANCH   1  32
BRANCH   5  39
HETATM   39  O9  UNL     1      28.439 -42.095 -27.004  1.00  0.00    -0.246 OA
BRANCH  39  40
HETATM   40  S1  UNL     1      29.217 -41.335 -28.260  1.00  0.00     0.252 S 
HETATM   41  O10 UNL     1      30.462 -40.671 -27.700  1.00  0.00    -0.572 OA
HETATM   42  O11 UNL     1      28.381 -40.379 -29.019  1.00  0.00    -0.572 OA
HETATM   43  O12 UNL     1      29.758 -42.524 -29.337  1.00  0.00    -0.572 OA
ENDBRANCH  39  40
ENDBRANCH   5  39
BRANCH   4  44
HETATM   44  O7  UNL     1      26.352 -43.414 -26.531  1.00  0.00    -0.310 OA
BRANCH  44  45
HETATM   45  C9  UNL     1      25.254 -43.097 -27.269  1.00  0.00     0.255 C 
HETATM   46  C10 UNL     1      25.361 -43.165 -28.756  1.00  0.00     0.126 C 
HETATM   47  O8  UNL     1      24.215 -42.765 -26.658  1.00  0.00    -0.266 OA
ENDBRANCH  44  45
ENDBRANCH   4  44
BRANCH   3  48
HETATM   48  C7  UNL     1      26.626 -46.522 -26.575  1.00  0.00     0.206 C 
HETATM   49  O5  UNL     1      26.267 -47.534 -25.935  1.00  0.00    -0.646 OA
HETATM   50  O6  UNL     1      26.142 -46.366 -27.858  1.00  0.00    -0.646 OA
ENDBRANCH   3  48
TORSDOF 19
ENDMDL
MODEL 3
REMARK VINA RESULT: -6.911976778      1.321      1.603
REMARK  19 active torsions:
REMARK  status: ('A' for Active; 'I' for Inactive)
REMARK    1  A    between atoms: C2_2  and  O2_4 
REMARK    2  A    between atoms: O2_4  and  C3_5 
REMARK    3  A    between atoms: C3_5  and  C4_6 
REMARK    4  A    between atoms: C4_6  and  O3_7 
REMARK    5  A    between atoms: O3_7  and  C5_8 
REMARK    6  A    between atoms: C6_10  and  C7_11 
REMARK    7  A    between atoms: C8_14  and  O7_15 
REMARK    8  A    between atoms: O7_15  and  C9_16 
REMARK    9  A    between atoms: C11_19  and  O9_20 
REMARK   10  A    between atoms: O9_20  and  S1_21 
REMARK   11  A    between atoms: C12_25  and  O13_26 
REMARK   12  A    between atoms: O13_26  and  C13_27 
REMARK   13  A    between atoms: C13_27  and  C14_29 
REMARK   14  A    between atoms: C15_30  and  C16_31 
REMARK   15  A    between atoms: C18_36  and  O15_37 
REMARK   16  A    between atoms: C19_39  and  O16_40 
REMARK   17  A    between atoms: C20_42  and  O17_43 
REMARK   18  A    between atoms: C22_46  and  O18_47 
REMARK   19  A    between atoms: O18_47  and  C23_48 
ROOT
HETATM    1  C5  UNL     1      30.307 -45.536 -25.147  1.00  0.00     0.293 C 
HETATM    2  O4  UNL     1      29.202 -45.806 -25.982  1.00  0.00    -0.340 OA
HETATM    3  C6  UNL     1      28.119 -44.979 -25.731  1.00  0.00     0.257 C 
HETATM    4  C8  UNL     1      28.422 -43.608 -26.221  1.00  0.00     0.204 C 
HETATM    5  C11 UNL     1      29.923 -43.239 -26.024  1.00  0.00     0.212 C 
HETATM    6  C12 UNL     1      30.349 -44.050 -24.838  1.00  0.00     0.220 C 
ENDROOT
BRANCH   6   7
HETATM    7  O13 UNL     1      31.445 -43.656 -24.114  1.00  0.00    -0.307 OA
BRANCH   7   8
HETATM    8  C13 UNL     1      31.639 -43.846 -22.758  1.00  0.00     0.274 C 
HETATM    9  O14 UNL     1      31.029 -44.846 -22.323  1.00  0.00    -0.264 OA
BRANCH   8  10
HETATM   10  C14 UNL     1      32.475 -42.940 -22.002  1.00  0.00     0.118 C 
HETATM   11  C15 UNL     1      33.752 -43.529 -21.659  1.00  0.00     0.050 C 
HETATM   12  C17 UNL     1      34.754 -42.935 -22.611  1.00  0.00     0.046 C 
HETATM   13  C18 UNL     1      33.995 -41.913 -23.455  1.00  0.00     0.157 C 
HETATM   14  C19 UNL     1      32.865 -41.636 -22.638  1.00  0.00     0.129 C 
HETATM   15  C20 UNL     1      31.582 -41.097 -23.048  1.00  0.00     0.159 C 
HETATM   16  C21 UNL     1      30.698 -41.479 -21.846  1.00  0.00     0.069 C 
HETATM   17  C22 UNL     1      31.610 -42.331 -20.923  1.00  0.00     0.156 C 
BRANCH  11  18
HETATM   18  C16 UNL     1      34.156 -43.451 -20.233  1.00  0.00     0.059 C 
HETATM   19  N1  UNL     1      35.070 -42.646 -19.862  1.00  0.00    -0.411 N 
ATOM     20  H12 UNL     1      35.518 -42.057 -20.563  1.00  0.00     0.155 HD
ATOM     21  H11 UNL     1      35.348 -42.593 -18.881  1.00  0.00     0.155 HD
ENDBRANCH  11  18
BRANCH  13  22
HETATM   22  O15 UNL     1      33.887 -42.265 -24.764  1.00  0.00    -0.392 OA
ATOM     23  H15 UNL     1      33.008 -42.524 -25.015  1.00  0.00     0.210 HD
ENDBRANCH  13  22
BRANCH  14  24
HETATM   24  O16 UNL     1      33.309 -40.825 -21.547  1.00  0.00    -0.383 OA
ATOM     25  H16 UNL     1      32.728 -41.054 -20.831  1.00  0.00     0.210 HD
ENDBRANCH  14  24
BRANCH  15  26
HETATM   26  O17 UNL     1      31.635 -39.695 -23.057  1.00  0.00    -0.392 OA
ATOM     27  H17 UNL     1      30.848 -39.339 -22.662  1.00  0.00     0.210 HD
ENDBRANCH  15  26
BRANCH  17  28
HETATM   28  O18 UNL     1      30.863 -43.334 -20.303  1.00  0.00    -0.315 OA
BRANCH  28  29
HETATM   29  C23 UNL     1      30.167 -43.185 -19.142  1.00  0.00     0.255 C 
HETATM   30  C24 UNL     1      30.840 -43.492 -17.832  1.00  0.00     0.126 C 
HETATM   31  O19 UNL     1      28.967 -42.793 -19.170  1.00  0.00    -0.266 OA
ENDBRANCH  28  29
ENDBRANCH  17  28
ENDBRANCH   8  10
ENDBRANCH   7   8
ENDBRANCH   6   7
BRANCH   1  32
HETATM   32  O3  UNL     1      31.463 -46.045 -25.676  1.00  0.00    -0.356 OA
BRANCH  32  33
HETATM   33  C4  UNL     1      31.535 -45.764 -27.038  1.00  0.00     0.197 C 
BRANCH  33  34
HETATM   34  C3  UNL     1      32.949 -45.918 -27.555  1.00  0.00     0.205 C 
BRANCH  34  35
HETATM   35  O2  UNL     1      33.453 -47.208 -27.497  1.00  0.00    -0.320 OA
BRANCH  35  36
HETATM   36  C2  UNL     1      34.315 -47.742 -26.583  1.00  0.00     0.254 C 
HETATM   37  C1  UNL     1      34.938 -46.932 -25.507  1.00  0.00     0.126 C 
HETATM   38  O1  UNL     1      34.589 -48.944 -26.651  1.00  0.00    -0.266 OA
ENDBRANCH  35  36
ENDBRANCH  34  35
ENDBRANCH  33  34
ENDBRANCH  32  33
ENDBRANCH   1  32
BRANCH   5  39
HETATM   39  O9  UNL     1      30.033 -41.895 -25.741  1.00  0.00    -0.246 OA
BRANCH  39  40
HETATM   40  S1  UNL     1      30.969 -41.076 -26.842  1.00  0.00     0.252 S 
HETATM   41  O10 UNL     1      31.559 -39.866 -26.140  1.00  0.00    -0.572 OA
HETATM   42  O11 UNL     1      30.271 -40.700 -28.091  1.00  0.00    -0.572 OA
HETATM   43  O12 UNL     1      32.278 -42.068 -27.255  1.00  0.00    -0.572 OA
ENDBRANCH  39  40
ENDBRANCH   5  39
BRANCH   4  44
HETATM   44  O7  UNL     1      27.621 -42.601 -25.653  1.00  0.00    -0.310 OA
BRANCH  44  45
HETATM   45  C9  UNL     1      27.166 -41.464 -26.246  1.00  0.00     0.255 C 
HETATM   46  C10 UNL     1      26.751 -41.535 -27.677  1.00  0.00     0.126 C 
HETATM   47  O8  UNL     1      27.122 -40.423 -25.556  1.00  0.00    -0.266 OA
ENDBRANCH  44  45
ENDBRANCH   4  44
BRANCH   3  48
HETATM   48  C7  UNL     1      26.992 -45.527 -26.533  1.00  0.00     0.206 C 
HETATM   49  O5  UNL     1      26.505 -44.961 -27.537  1.00  0.00    -0.646 OA
HETATM   50  O6  UNL     1      26.447 -46.735 -26.149  1.00  0.00    -0.646 OA
ENDBRANCH   3  48
TORSDOF 19
ENDMDL
MODEL 4
REMARK VINA RESULT: -6.874766648      1.136      1.529
REMARK  19 active torsions:
REMARK  status: ('A' for Active; 'I' for Inactive)
REMARK    1  A    between atoms: C2_2  and  O2_4 
REMARK    2  A    between atoms: O2_4  and  C3_5 
REMARK    3  A    between atoms: C3_5  and  C4_6 
REMARK    4  A    between atoms: C4_6  and  O3_7 
REMARK    5  A    between atoms: O3_7  and  C5_8 
REMARK    6  A    between atoms: C6_10  and  C7_11 
REMARK    7  A    between atoms: C8_14  and  O7_15 
REMARK    8  A    between atoms: O7_15  and  C9_16 
REMARK    9  A    between atoms: C11_19  and  O9_20 
REMARK   10  A    between atoms: O9_20  and  S1_21 
REMARK   11  A    between atoms: C12_25  and  O13_26 
REMARK   12  A    between atoms: O13_26  and  C13_27 
REMARK   13  A    between atoms: C13_27  and  C14_29 
REMARK   14  A    between atoms: C15_30  and  C16_31 
REMARK   15  A    between atoms: C18_36  and  O15_37 
REMARK   16  A    between atoms: C19_39  and  O16_40 
REMARK   17  A    between atoms: C20_42  and  O17_43 
REMARK   18  A    between atoms: C22_46  and  O18_47 
REMARK   19  A    between atoms: O18_47  and  C23_48 
ROOT
HETATM    1  C5  UNL     1      30.034 -45.329 -25.309  1.00  0.00     0.293 C 
HETATM    2  O4  UNL     1      28.950 -45.977 -25.940  1.00  0.00    -0.340 OA
HETATM    3  C6  UNL     1      27.746 -45.314 -25.767  1.00  0.00     0.257 C 
HETATM    4  C8  UNL     1      27.748 -44.069 -26.581  1.00  0.00     0.204 C 
HETATM    5  C11 UNL     1      29.160 -43.411 -26.633  1.00  0.00     0.212 C 
HETATM    6  C12 UNL     1      29.809 -43.828 -25.348  1.00  0.00     0.220 C 
ENDROOT
BRANCH   6   7
HETATM    7  O13 UNL     1      30.851 -43.089 -24.851  1.00  0.00    -0.307 OA
BRANCH   7   8
HETATM    8  C13 UNL     1      31.220 -42.987 -23.523  1.00  0.00     0.274 C 
HETATM    9  O14 UNL     1      31.229 -44.095 -22.942  1.00  0.00    -0.264 OA
BRANCH   8  10
HETATM   10  C14 UNL     1      31.548 -41.702 -22.947  1.00  0.00     0.118 C 
HETATM   11  C15 UNL     1      32.947 -41.369 -23.109  1.00  0.00     0.050 C 
HETATM   12  C17 UNL     1      33.012 -40.371 -24.233  1.00  0.00     0.046 C 
HETATM   13  C18 UNL     1      31.568 -40.090 -24.644  1.00  0.00     0.157 C 
HETATM   14  C19 UNL     1      30.847 -40.486 -23.484  1.00  0.00     0.129 C 
HETATM   15  C20 UNL     1      29.451 -40.867 -23.390  1.00  0.00     0.159 C 
HETATM   16  C21 UNL     1      29.431 -41.604 -22.038  1.00  0.00     0.069 C 
HETATM   17  C22 UNL     1      30.912 -41.652 -21.577  1.00  0.00     0.156 C 
BRANCH  11  18
HETATM   18  C16 UNL     1      33.673 -40.945 -21.885  1.00  0.00     0.059 C 
HETATM   19  N1  UNL     1      34.243 -41.804 -21.139  1.00  0.00    -0.411 N 
ATOM     20  H12 UNL     1      34.192 -42.790 -21.399  1.00  0.00     0.155 HD
ATOM     21  H11 UNL     1      34.742 -41.513 -20.298  1.00  0.00     0.155 HD
ENDBRANCH  11  18
BRANCH  13  22
HETATM   22  O15 UNL     1      31.261 -40.543 -25.889  1.00  0.00    -0.392 OA
ATOM     23  H15 UNL     1      31.677 -40.049 -26.586  1.00  0.00     0.210 HD
ENDBRANCH  13  22
BRANCH  14  24
HETATM   24  O16 UNL     1      31.055 -39.484 -22.484  1.00  0.00    -0.383 OA
ATOM     25  H16 UNL     1      30.776 -38.676 -22.897  1.00  0.00     0.210 HD
ENDBRANCH  14  24
BRANCH  15  26
HETATM   26  O17 UNL     1      28.656 -39.725 -23.219  1.00  0.00    -0.392 OA
ATOM     27  H17 UNL     1      28.396 -39.646 -22.308  1.00  0.00     0.210 HD
ENDBRANCH  15  26
BRANCH  17  28
HETATM   28  O18 UNL     1      31.167 -42.847 -20.901  1.00  0.00    -0.315 OA
BRANCH  28  29
HETATM   29  C23 UNL     1      31.233 -42.980 -19.548  1.00  0.00     0.255 C 
HETATM   30  C24 UNL     1      29.960 -43.070 -18.751  1.00  0.00     0.126 C 
HETATM   31  O19 UNL     1      32.355 -43.026 -18.971  1.00  0.00    -0.266 OA
ENDBRANCH  28  29
ENDBRANCH  17  28
ENDBRANCH   8  10
ENDBRANCH   7   8
ENDBRANCH   6   7
BRANCH   1  32
HETATM   32  O3  UNL     1      31.230 -45.744 -25.830  1.00  0.00    -0.356 OA
BRANCH  32  33
HETATM   33  C4  UNL     1      31.965 -46.428 -24.866  1.00  0.00     0.197 C 
BRANCH  33  34
HETATM   34  C3  UNL     1      33.443 -46.133 -24.992  1.00  0.00     0.205 C 
BRANCH  34  35
HETATM   35  O2  UNL     1      34.069 -46.738 -26.072  1.00  0.00    -0.320 OA
BRANCH  35  36
HETATM   36  C2  UNL     1      34.928 -47.798 -26.069  1.00  0.00     0.254 C 
HETATM   37  C1  UNL     1      36.281 -47.726 -25.465  1.00  0.00     0.126 C 
HETATM   38  O1  UNL     1      34.569 -48.859 -26.590  1.00  0.00    -0.266 OA
ENDBRANCH  35  36
ENDBRANCH  34  35
ENDBRANCH  33  34
ENDBRANCH  32  33
ENDBRANCH   1  32
BRANCH   5  39
HETATM   39  O9  UNL     1      29.028 -42.039 -26.671  1.00  0.00    -0.246 OA
BRANCH  39  40
HETATM   40  S1  UNL     1      29.476 -41.387 -28.131  1.00  0.00     0.252 S 
HETATM   41  O10 UNL     1      28.474 -41.849 -29.173  1.00  0.00    -0.572 OA
HETATM   42  O11 UNL     1      30.867 -41.682 -28.541  1.00  0.00    -0.572 OA
HETATM   43  O12 UNL     1      29.310 -39.705 -28.026  1.00  0.00    -0.572 OA
ENDBRANCH  39  40
ENDBRANCH   5  39
BRANCH   4  44
HETATM   44  O7  UNL     1      26.807 -43.107 -26.171  1.00  0.00    -0.310 OA
BRANCH  44  45
HETATM   45  C9  UNL     1      25.837 -42.518 -26.922  1.00  0.00     0.255 C 
HETATM   46  C10 UNL     1      24.697 -43.360 -27.387  1.00  0.00     0.126 C 
HETATM   47  O8  UNL     1      25.957 -41.301 -27.178  1.00  0.00    -0.266 OA
ENDBRANCH  44  45
ENDBRANCH   4  44
BRANCH   3  48
HETATM   48  C7  UNL     1      26.697 -46.223 -26.302  1.00  0.00     0.206 C 
HETATM   49  O5  UNL     1      25.966 -46.945 -25.590  1.00  0.00    -0.646 OA
HETATM   50  O6  UNL     1      26.517 -46.274 -27.669  1.00  0.00    -0.646 OA
ENDBRANCH   3  48
TORSDOF 19
ENDMDL
MODEL 5
REMARK VINA RESULT: -6.713951606      2.939      6.603
REMARK  19 active torsions:
REMARK  status: ('A' for Active; 'I' for Inactive)
REMARK    1  A    between atoms: C2_2  and  O2_4 
REMARK    2  A    between atoms: O2_4  and  C3_5 
REMARK    3  A    between atoms: C3_5  and  C4_6 
REMARK    4  A    between atoms: C4_6  and  O3_7 
REMARK    5  A    between atoms: O3_7  and  C5_8 
REMARK    6  A    between atoms: C6_10  and  C7_11 
REMARK    7  A    between atoms: C8_14  and  O7_15 
REMARK    8  A    between atoms: O7_15  and  C9_16 
REMARK    9  A    between atoms: C11_19  and  O9_20 
REMARK   10  A    between atoms: O9_20  and  S1_21 
REMARK   11  A    between atoms: C12_25  and  O13_26 
REMARK   12  A    between atoms: O13_26  and  C13_27 
REMARK   13  A    between atoms: C13_27  and  C14_29 
REMARK   14  A    between atoms: C15_30  and  C16_31 
REMARK   15  A    between atoms: C18_36  and  O15_37 
REMARK   16  A    between atoms: C19_39  and  O16_40 
REMARK   17  A    between atoms: C20_42  and  O17_43 
REMARK   18  A    between atoms: C22_46  and  O18_47 
REMARK   19  A    between atoms: O18_47  and  C23_48 
ROOT
HETATM    1  C5  UNL     1      32.204 -39.674 -25.914  1.00  0.00     0.293 C 
HETATM    2  O4  UNL     1      31.667 -38.673 -26.751  1.00  0.00    -0.340 OA
HETATM    3  C6  UNL     1      31.083 -39.182 -27.900  1.00  0.00     0.257 C 
HETATM    4  C8  UNL     1      29.810 -39.863 -27.545  1.00  0.00     0.204 C 
HETATM    5  C11 UNL     1      29.901 -40.583 -26.165  1.00  0.00     0.212 C 
HETATM    6  C12 UNL     1      31.353 -40.927 -26.024  1.00  0.00     0.220 C 
ENDROOT
BRANCH   6   7
HETATM    7  O13 UNL     1      31.724 -41.936 -25.174  1.00  0.00    -0.307 OA
BRANCH   7   8
HETATM    8  C13 UNL     1      32.438 -43.070 -25.515  1.00  0.00     0.274 C 
HETATM    9  O14 UNL     1      33.515 -42.801 -26.091  1.00  0.00    -0.264 OA
BRANCH   8  10
HETATM   10  C14 UNL     1      31.926 -44.385 -25.199  1.00  0.00     0.118 C 
HETATM   11  C15 UNL     1      30.743 -44.711 -25.967  1.00  0.00     0.050 C 
HETATM   12  C17 UNL     1      31.197 -45.649 -27.053  1.00  0.00     0.046 C 
HETATM   13  C18 UNL     1      32.683 -45.905 -26.809  1.00  0.00     0.157 C 
HETATM   14  C19 UNL     1      32.820 -45.569 -25.434  1.00  0.00     0.129 C 
HETATM   15  C20 UNL     1      34.027 -45.190 -24.726  1.00  0.00     0.159 C 
HETATM   16  C21 UNL     1      33.441 -44.525 -23.467  1.00  0.00     0.069 C 
HETATM   17  C22 UNL     1      31.906 -44.505 -23.693  1.00  0.00     0.156 C 
BRANCH  11  18
HETATM   18  C16 UNL     1      29.570 -45.201 -25.201  1.00  0.00     0.059 C 
HETATM   19  N1  UNL     1      28.459 -45.415 -25.784  1.00  0.00    -0.411 N 
ATOM     20  H12 UNL     1      28.391 -45.243 -26.787  1.00  0.00     0.155 HD
ATOM     21  H11 UNL     1      27.652 -45.751 -25.257  1.00  0.00     0.155 HD
ENDBRANCH  11  18
BRANCH  13  22
HETATM   22  O15 UNL     1      33.488 -45.386 -27.775  1.00  0.00    -0.392 OA
ATOM     23  H15 UNL     1      34.411 -45.567 -27.636  1.00  0.00     0.210 HD
ENDBRANCH  13  22
BRANCH  14  24
HETATM   24  O16 UNL     1      32.224 -46.622 -24.671  1.00  0.00    -0.383 OA
ATOM     25  H16 UNL     1      31.319 -46.641 -24.961  1.00  0.00     0.210 HD
ENDBRANCH  14  24
BRANCH  15  26
HETATM   26  O17 UNL     1      34.698 -46.338 -24.280  1.00  0.00    -0.392 OA
ATOM     27  H17 UNL     1      35.091 -46.173 -23.431  1.00  0.00     0.210 HD
ENDBRANCH  15  26
BRANCH  17  28
HETATM   28  O18 UNL     1      31.354 -43.348 -23.140  1.00  0.00    -0.315 OA
BRANCH  28  29
HETATM   29  C23 UNL     1      31.557 -42.918 -21.864  1.00  0.00     0.255 C 
HETATM   30  C24 UNL     1      32.327 -41.648 -21.625  1.00  0.00     0.126 C 
HETATM   31  O19 UNL     1      31.101 -43.584 -20.893  1.00  0.00    -0.266 OA
ENDBRANCH  28  29
ENDBRANCH  17  28
ENDBRANCH   8  10
ENDBRANCH   7   8
ENDBRANCH   6   7
BRANCH   1  32
HETATM   32  O3  UNL     1      32.382 -39.211 -24.638  1.00  0.00    -0.356 OA
BRANCH  32  33
HETATM   33  C4  UNL     1      33.739 -39.138 -24.336  1.00  0.00     0.197 C 
BRANCH  33  34
HETATM   34  C3  UNL     1      34.112 -37.767 -23.815  1.00  0.00     0.205 C 
BRANCH  34  35
HETATM   35  O2  UNL     1      33.196 -36.766 -24.099  1.00  0.00    -0.320 OA
BRANCH  35  36
HETATM   36  C2  UNL     1      33.437 -35.471 -24.454  1.00  0.00     0.254 C 
HETATM   37  C1  UNL     1      34.582 -35.079 -25.313  1.00  0.00     0.126 C 
HETATM   38  O1  UNL     1      32.676 -34.587 -24.046  1.00  0.00    -0.266 OA
ENDBRANCH  35  36
ENDBRANCH  34  35
ENDBRANCH  33  34
ENDBRANCH  32  33
ENDBRANCH   1  32
BRANCH   5  39
HETATM   39  O9  UNL     1      29.144 -41.735 -26.196  1.00  0.00    -0.246 OA
BRANCH  39  40
HETATM   40  S1  UNL     1      27.888 -41.712 -25.110  1.00  0.00     0.252 S 
HETATM   41  O10 UNL     1      28.482 -41.732 -23.713  1.00  0.00    -0.572 OA
HETATM   42  O11 UNL     1      26.888 -42.787 -25.296  1.00  0.00    -0.572 OA
HETATM   43  O12 UNL     1      27.090 -40.227 -25.264  1.00  0.00    -0.572 OA
ENDBRANCH  39  40
ENDBRANCH   5  39
BRANCH   4  44
HETATM   44  O7  UNL     1      29.354 -40.778 -28.511  1.00  0.00    -0.310 OA
BRANCH  44  45
HETATM   45  C9  UNL     1      28.238 -40.687 -29.285  1.00  0.00     0.255 C 
HETATM   46  C10 UNL     1      27.072 -41.552 -28.943  1.00  0.00     0.126 C 
HETATM   47  O8  UNL     1      28.255 -39.881 -30.240  1.00  0.00    -0.266 OA
ENDBRANCH  44  45
ENDBRANCH   4  44
BRANCH   3  48
HETATM   48  C7  UNL     1      30.764 -38.005 -28.752  1.00  0.00     0.206 C 
HETATM   49  O5  UNL     1      29.755 -37.283 -28.601  1.00  0.00    -0.646 OA
HETATM   50  O6  UNL     1      31.635 -37.688 -29.775  1.00  0.00    -0.646 OA
ENDBRANCH   3  48
TORSDOF 19
ENDMDL
