MODEL 1
REMARK VINA RESULT: -4.395342275      0.000      0.000
REMARK  6 active torsions:
REMARK  status: ('A' for Active; 'I' for Inactive)
REMARK    1  A    between atoms: N1_1  and  N2_4 
REMARK    2  A    between atoms: C3_10  and  C4_11 
REMARK    3  A    between atoms: C4_11  and  S1_12 
REMARK    4  A    between atoms: S1_12  and  C5_13 
REMARK    5  A    between atoms: C5_13  and  N4_14 
REMARK    6  A    between atoms: C5_13  and  N5_18 
ROOT
HETATM    1  C4  UNL     1      25.772  32.043  20.285  1.00  0.00     0.091 C 
ENDROOT
BRANCH   1   2
HETATM    2  C3  UNL     1      25.456  33.529  20.236  1.00  0.00     0.081 C 
HETATM    3  C1  UNL     1      26.621  34.429  20.111  1.00  0.00     0.097 C 
HETATM    4  N2  UNL     1      27.315  35.060  19.231  1.00  0.00    -0.295 N 
HETATM    5  N3  UNL     1      26.793  34.391  21.544  1.00  0.00    -0.378 N 
ATOM      6  H2  UNL     1      28.098  35.617  19.571  1.00  0.00     0.187 HD
HETATM    7  C2  UNL     1      25.372  34.102  21.643  1.00  0.00     0.134 C 
ATOM      8  H3  UNL     1      27.568  34.512  22.197  1.00  0.00     0.160 HD
BRANCH   4   9
HETATM    9  N1  UNL     1      27.096  35.053  17.864  1.00  0.00    -0.344 N 
ATOM     10  H12 UNL     1      26.466  35.774  17.510  1.00  0.00     0.176 HD
ATOM     11  H11 UNL     1      27.503  34.401  17.194  1.00  0.00     0.176 HD
ENDBRANCH   4   9
ENDBRANCH   1   2
BRANCH   1  12
HETATM   12  S1  UNL     1      25.471  31.295  18.688  1.00  0.00    -0.108 SA
BRANCH  12  13
HETATM   13  C5  UNL     1      23.910  30.434  18.582  1.00  0.00     0.440 C 
BRANCH  13  14
HETATM   14  N4  UNL     1      23.432  30.505  17.213  1.00  0.00    -0.041 N 
ATOM     15  H43 UNL     1      22.732  31.236  17.081  1.00  0.00     0.277 HD
ATOM     16  H42 UNL     1      24.137  30.867  16.571  1.00  0.00     0.277 HD
ATOM     17  H41 UNL     1      23.090  29.584  16.938  1.00  0.00     0.277 HD
ENDBRANCH  13  14
BRANCH  13  18
HETATM   18  N5  UNL     1      24.009  29.020  18.912  1.00  0.00    -0.041 N 
ATOM     19  H53 UNL     1      24.006  28.883  19.923  1.00  0.00     0.277 HD
ATOM     20  H52 UNL     1      23.146  28.531  18.673  1.00  0.00     0.277 HD
ATOM     21  H51 UNL     1      24.815  28.562  18.487  1.00  0.00     0.277 HD
ENDBRANCH  13  18
ENDBRANCH  12  13
ENDBRANCH   1  12
TORSDOF 6
ENDMDL
MODEL 2
REMARK VINA RESULT: -4.156700828      1.148      5.367
REMARK  6 active torsions:
REMARK  status: ('A' for Active; 'I' for Inactive)
REMARK    1  A    between atoms: N1_1  and  N2_4 
REMARK    2  A    between atoms: C3_10  and  C4_11 
REMARK    3  A    between atoms: C4_11  and  S1_12 
REMARK    4  A    between atoms: S1_12  and  C5_13 
REMARK    5  A    between atoms: C5_13  and  N4_14 
REMARK    6  A    between atoms: C5_13  and  N5_18 
ROOT
HETATM    1  C4  UNL     1      24.614  31.827  19.760  1.00  0.00     0.091 C 
ENDROOT
BRANCH   1   2
HETATM    2  C3  UNL     1      24.814  30.949  18.536  1.00  0.00     0.081 C 
HETATM    3  C1  UNL     1      23.618  30.219  18.069  1.00  0.00     0.097 C 
HETATM    4  N2  UNL     1      22.652  30.307  17.225  1.00  0.00    -0.295 N 
HETATM    5  N3  UNL     1      23.901  29.167  19.017  1.00  0.00    -0.378 N 
ATOM      6  H2  UNL     1      21.981  29.539  17.207  1.00  0.00     0.187 HD
HETATM    7  C2  UNL     1      25.297  29.565  18.947  1.00  0.00     0.134 C 
ATOM      8  H3  UNL     1      23.361  28.460  19.515  1.00  0.00     0.160 HD
BRANCH   4   9
HETATM    9  N1  UNL     1      22.437  31.349  16.339  1.00  0.00    -0.344 N 
ATOM     10  H12 UNL     1      23.271  31.843  16.023  1.00  0.00     0.176 HD
ATOM     11  H11 UNL     1      21.532  31.658  15.984  1.00  0.00     0.176 HD
ENDBRANCH   4   9
ENDBRANCH   1   2
BRANCH   1  12
HETATM   12  S1  UNL     1      26.195  32.391  20.380  1.00  0.00    -0.108 SA
BRANCH  12  13
HETATM   13  C5  UNL     1      26.350  34.169  20.440  1.00  0.00     0.440 C 
BRANCH  13  14
HETATM   14  N4  UNL     1      27.283  34.519  21.496  1.00  0.00    -0.041 N 
ATOM     15  H43 UNL     1      28.203  34.774  21.136  1.00  0.00     0.277 HD
ATOM     16  H42 UNL     1      27.054  35.409  21.940  1.00  0.00     0.277 HD
ATOM     17  H41 UNL     1      27.326  33.749  22.163  1.00  0.00     0.277 HD
ENDBRANCH  13  14
BRANCH  13  18
HETATM   18  N5  UNL     1      26.881  34.742  19.212  1.00  0.00    -0.041 N 
ATOM     19  H53 UNL     1      27.601  34.140  18.813  1.00  0.00     0.277 HD
ATOM     20  H52 UNL     1      26.190  34.698  18.463  1.00  0.00     0.277 HD
ATOM     21  H51 UNL     1      27.228  35.694  19.329  1.00  0.00     0.277 HD
ENDBRANCH  13  18
ENDBRANCH  12  13
ENDBRANCH   1  12
TORSDOF 6
ENDMDL
MODEL 3
REMARK VINA RESULT: -3.928419303      1.255      2.451
REMARK  6 active torsions:
REMARK  status: ('A' for Active; 'I' for Inactive)
REMARK    1  A    between atoms: N1_1  and  N2_4 
REMARK    2  A    between atoms: C3_10  and  C4_11 
REMARK    3  A    between atoms: C4_11  and  S1_12 
REMARK    4  A    between atoms: S1_12  and  C5_13 
REMARK    5  A    between atoms: C5_13  and  N4_14 
REMARK    6  A    between atoms: C5_13  and  N5_18 
ROOT
HETATM    1  C4  UNL     1      25.420  33.251  20.036  1.00  0.00     0.091 C 
ENDROOT
BRANCH   1   2
HETATM    2  C3  UNL     1      26.860  33.667  19.786  1.00  0.00     0.081 C 
HETATM    3  C1  UNL     1      27.187  35.072  20.106  1.00  0.00     0.097 C 
HETATM    4  N2  UNL     1      27.668  35.802  21.049  1.00  0.00    -0.295 N 
HETATM    5  N3  UNL     1      26.719  35.470  18.800  1.00  0.00    -0.378 N 
ATOM      6  H2  UNL     1      27.739  36.804  20.869  1.00  0.00     0.187 HD
HETATM    7  C2  UNL     1      27.039  34.127  18.346  1.00  0.00     0.134 C 
ATOM      8  H3  UNL     1      26.334  36.317  18.381  1.00  0.00     0.160 HD
BRANCH   4   9
HETATM    9  N1  UNL     1      28.100  35.356  22.286  1.00  0.00    -0.344 N 
ATOM     10  H12 UNL     1      27.376  34.993  22.906  1.00  0.00     0.176 HD
ATOM     11  H11 UNL     1      29.063  35.359  22.623  1.00  0.00     0.176 HD
ENDBRANCH   4   9
ENDBRANCH   1   2
BRANCH   1  12
HETATM   12  S1  UNL     1      25.285  31.467  20.040  1.00  0.00    -0.108 SA
BRANCH  12  13
HETATM   13  C5  UNL     1      25.014  30.764  18.420  1.00  0.00     0.440 C 
BRANCH  13  14
HETATM   14  N4  UNL     1      25.076  29.318  18.524  1.00  0.00    -0.041 N 
ATOM     15  H43 UNL     1      24.529  28.959  19.306  1.00  0.00     0.277 HD
ATOM     16  H42 UNL     1      24.570  28.850  17.772  1.00  0.00     0.277 HD
ATOM     17  H41 UNL     1      26.055  29.035  18.571  1.00  0.00     0.277 HD
ENDBRANCH  13  14
BRANCH  13  18
HETATM   18  N5  UNL     1      23.706  31.083  17.867  1.00  0.00    -0.041 N 
ATOM     19  H53 UNL     1      22.962  30.760  18.485  1.00  0.00     0.277 HD
ATOM     20  H52 UNL     1      23.532  32.088  17.905  1.00  0.00     0.277 HD
ATOM     21  H51 UNL     1      23.571  30.728  16.920  1.00  0.00     0.277 HD
ENDBRANCH  13  18
ENDBRANCH  12  13
ENDBRANCH   1  12
TORSDOF 6
ENDMDL
MODEL 4
REMARK VINA RESULT: -3.916245149      2.210      4.762
REMARK  6 active torsions:
REMARK  status: ('A' for Active; 'I' for Inactive)
REMARK    1  A    between atoms: N1_1  and  N2_4 
REMARK    2  A    between atoms: C3_10  and  C4_11 
REMARK    3  A    between atoms: C4_11  and  S1_12 
REMARK    4  A    between atoms: S1_12  and  C5_13 
REMARK    5  A    between atoms: C5_13  and  N4_14 
REMARK    6  A    between atoms: C5_13  and  N5_18 
ROOT
HETATM    1  C4  UNL     1      25.552  33.608  20.603  1.00  0.00     0.091 C 
ENDROOT
BRANCH   1   2
HETATM    2  C3  UNL     1      26.115  32.286  20.107  1.00  0.00     0.081 C 
HETATM    3  C1  UNL     1      25.751  31.913  18.725  1.00  0.00     0.097 C 
HETATM    4  N2  UNL     1      26.191  31.976  17.518  1.00  0.00    -0.295 N 
HETATM    5  N3  UNL     1      24.518  31.341  19.213  1.00  0.00    -0.378 N 
ATOM      6  H2  UNL     1      25.602  31.572  16.789  1.00  0.00     0.187 HD
HETATM    7  C2  UNL     1      25.189  31.138  20.485  1.00  0.00     0.134 C 
ATOM      8  H3  UNL     1      23.589  31.161  18.832  1.00  0.00     0.160 HD
BRANCH   4   9
HETATM    9  N1  UNL     1      27.389  32.541  17.116  1.00  0.00    -0.344 N 
ATOM     10  H12 UNL     1      28.169  31.894  16.999  1.00  0.00     0.176 HD
ATOM     11  H11 UNL     1      27.554  33.530  16.931  1.00  0.00     0.176 HD
ENDBRANCH   4   9
ENDBRANCH   1   2
BRANCH   1  12
HETATM   12  S1  UNL     1      26.880  34.688  21.122  1.00  0.00    -0.108 SA
BRANCH  12  13
HETATM   13  C5  UNL     1      27.272  35.965  19.936  1.00  0.00     0.440 C 
BRANCH  13  14
HETATM   14  N4  UNL     1      28.666  36.339  20.099  1.00  0.00    -0.041 N 
ATOM     15  H43 UNL     1      29.299  35.550  19.967  1.00  0.00     0.277 HD
ATOM     16  H42 UNL     1      29.005  36.922  19.334  1.00  0.00     0.277 HD
ATOM     17  H41 UNL     1      28.781  36.782  21.010  1.00  0.00     0.277 HD
ENDBRANCH  13  14
BRANCH  13  18
HETATM   18  N5  UNL     1      27.118  35.534  18.555  1.00  0.00    -0.041 N 
ATOM     19  H53 UNL     1      27.841  35.944  17.964  1.00  0.00     0.277 HD
ATOM     20  H52 UNL     1      27.360  34.547  18.454  1.00  0.00     0.277 HD
ATOM     21  H51 UNL     1      26.190  35.720  18.175  1.00  0.00     0.277 HD
ENDBRANCH  13  18
ENDBRANCH  12  13
ENDBRANCH   1  12
TORSDOF 6
ENDMDL
MODEL 5
REMARK VINA RESULT: -3.896578988      0.772      1.220
REMARK  6 active torsions:
REMARK  status: ('A' for Active; 'I' for Inactive)
REMARK    1  A    between atoms: N1_1  and  N2_4 
REMARK    2  A    between atoms: C3_10  and  C4_11 
REMARK    3  A    between atoms: C4_11  and  S1_12 
REMARK    4  A    between atoms: S1_12  and  C5_13 
REMARK    5  A    between atoms: C5_13  and  N4_14 
REMARK    6  A    between atoms: C5_13  and  N5_18 
ROOT
HETATM    1  C4  UNL     1      26.138  32.403  20.382  1.00  0.00     0.091 C 
ENDROOT
BRANCH   1   2
HETATM    2  C3  UNL     1      25.785  33.881  20.409  1.00  0.00     0.081 C 
HETATM    3  C1  UNL     1      26.906  34.812  20.166  1.00  0.00     0.097 C 
HETATM    4  N2  UNL     1      27.471  35.480  19.223  1.00  0.00    -0.295 N 
HETATM    5  N3  UNL     1      27.252  34.747  21.566  1.00  0.00    -0.378 N 
ATOM      6  H2  UNL     1      28.278  36.049  19.479  1.00  0.00     0.187 HD
HETATM    7  C2  UNL     1      25.862  34.421  21.830  1.00  0.00     0.134 C 
ATOM      8  H3  UNL     1      28.098  34.874  22.121  1.00  0.00     0.160 HD
BRANCH   4   9
HETATM    9  N1  UNL     1      27.087  35.498  17.894  1.00  0.00    -0.344 N 
ATOM     10  H12 UNL     1      26.511  34.714  17.586  1.00  0.00     0.176 HD
ATOM     11  H11 UNL     1      27.326  36.216  17.209  1.00  0.00     0.176 HD
ENDBRANCH   4   9
ENDBRANCH   1   2
BRANCH   1  12
HETATM   12  S1  UNL     1      24.712  31.437  19.899  1.00  0.00    -0.108 SA
BRANCH  12  13
HETATM   13  C5  UNL     1      24.879  30.661  18.298  1.00  0.00     0.440 C 
BRANCH  13  14
HETATM   14  N4  UNL     1      25.042  29.231  18.489  1.00  0.00    -0.041 N 
ATOM     15  H43 UNL     1      25.917  28.882  18.097  1.00  0.00     0.277 HD
ATOM     16  H42 UNL     1      25.216  28.985  19.464  1.00  0.00     0.277 HD
ATOM     17  H41 UNL     1      24.226  28.755  18.105  1.00  0.00     0.277 HD
ENDBRANCH  13  14
BRANCH  13  18
HETATM   18  N5  UNL     1      23.709  30.834  17.450  1.00  0.00    -0.041 N 
ATOM     19  H53 UNL     1      22.857  30.864  18.010  1.00  0.00     0.277 HD
ATOM     20  H52 UNL     1      23.684  31.775  17.056  1.00  0.00     0.277 HD
ATOM     21  H51 UNL     1      23.637  30.131  16.715  1.00  0.00     0.277 HD
ENDBRANCH  13  18
ENDBRANCH  12  13
ENDBRANCH   1  12
TORSDOF 6
ENDMDL
