MODEL 1
REMARK VINA RESULT: -5.186379387      0.000      0.000
REMARK  5 active torsions:
REMARK  status: ('A' for Active; 'I' for Inactive)
REMARK    1  A    between atoms: N1_1  and  N2_4 
REMARK    2  A    between atoms: N2_4  and  C1_6 
REMARK    3  A    between atoms: C2_9  and  N4_10 
REMARK    4  A    between atoms: N4_10  and  C3_12 
REMARK    5  A    between atoms: N6_17  and  N7_18 
ROOT
HETATM    1  C1  UNL     1      26.988  35.053  19.687  1.00  0.00     0.747 A 
HETATM    2  N3  UNL     1      26.818  34.067  18.764  1.00  0.00    -0.017 N 
ATOM      3  H3  UNL     1      27.125  34.106  17.792  1.00  0.00     0.203 HD
HETATM    4  C2  UNL     1      26.181  33.034  19.343  1.00  0.00     0.709 A 
HETATM    5  N5  UNL     1      25.968  33.395  20.606  1.00  0.00    -0.096 N 
ATOM      6  H5  UNL     1      25.501  32.820  21.306  1.00  0.00     0.208 HD
HETATM    7  N6  UNL     1      26.454  34.619  20.823  1.00  0.00    -0.011 N 
ENDROOT
BRANCH   1   8
HETATM    8  N2  UNL     1      27.560  36.198  19.494  1.00  0.00    -0.135 N 
ATOM      9  H2  UNL     1      27.080  36.910  18.944  1.00  0.00     0.205 HD
BRANCH   8  10
HETATM   10  N1  UNL     1      28.823  36.477  20.025  1.00  0.00    -0.331 N 
ATOM     11  H12 UNL     1      29.537  36.857  19.403  1.00  0.00     0.177 HD
ATOM     12  H11 UNL     1      29.033  36.308  21.009  1.00  0.00     0.177 HD
ENDBRANCH   8  10
ENDBRANCH   1   8
BRANCH   7  13
HETATM   13  N7  UNL     1      26.437  35.364  22.009  1.00  0.00    -0.309 N 
ATOM     14  H72 UNL     1      25.830  36.144  22.258  1.00  0.00     0.179 HD
ATOM     15  H71 UNL     1      27.066  35.194  22.793  1.00  0.00     0.179 HD
ENDBRANCH   7  13
BRANCH   4  16
HETATM   16  N4  UNL     1      25.827  31.812  18.683  1.00  0.00    -0.220 N 
ATOM     17  H4  UNL     1      26.213  31.613  17.760  1.00  0.00     0.178 HD
BRANCH  16  18
HETATM   18  C3  UNL     1      24.937  30.860  19.296  1.00  0.00     0.099 A 
HETATM   19  C4  UNL     1      23.793  30.339  18.459  1.00  0.00     0.028 A 
HETATM   20  C5  UNL     1      25.004  29.477  18.695  1.00  0.00     0.028 A 
ENDBRANCH  16  18
ENDBRANCH   4  16
TORSDOF 5
ENDMDL
MODEL 2
REMARK VINA RESULT: -5.163275459      0.722      1.796
REMARK  5 active torsions:
REMARK  status: ('A' for Active; 'I' for Inactive)
REMARK    1  A    between atoms: N1_1  and  N2_4 
REMARK    2  A    between atoms: N2_4  and  C1_6 
REMARK    3  A    between atoms: C2_9  and  N4_10 
REMARK    4  A    between atoms: N4_10  and  C3_12 
REMARK    5  A    between atoms: N6_17  and  N7_18 
ROOT
HETATM    1  C1  UNL     1      26.732  34.548  20.652  1.00  0.00     0.747 A 
HETATM    2  N3  UNL     1      26.175  33.333  20.392  1.00  0.00    -0.017 N 
ATOM      3  H3  UNL     1      25.737  32.722  21.081  1.00  0.00     0.203 HD
HETATM    4  C2  UNL     1      26.297  33.072  19.078  1.00  0.00     0.709 A 
HETATM    5  N5  UNL     1      26.923  34.120  18.550  1.00  0.00    -0.096 N 
ATOM      6  H5  UNL     1      27.163  34.222  17.565  1.00  0.00     0.208 HD
HETATM    7  N6  UNL     1      27.191  35.022  19.499  1.00  0.00    -0.011 N 
ENDROOT
BRANCH   1   8
HETATM    8  N2  UNL     1      26.803  35.131  21.805  1.00  0.00    -0.135 N 
ATOM      9  H2  UNL     1      25.970  35.574  22.194  1.00  0.00     0.205 HD
BRANCH   8  10
HETATM   10  N1  UNL     1      27.999  35.165  22.530  1.00  0.00    -0.331 N 
ATOM     11  H12 UNL     1      28.737  35.795  22.216  1.00  0.00     0.177 HD
ATOM     12  H11 UNL     1      28.137  34.578  23.352  1.00  0.00     0.177 HD
ENDBRANCH   8  10
ENDBRANCH   1   8
BRANCH   7  13
HETATM   13  N7  UNL     1      27.834  36.258  19.367  1.00  0.00    -0.309 N 
ATOM     14  H72 UNL     1      28.151  36.889  20.103  1.00  0.00     0.179 HD
ATOM     15  H71 UNL     1      28.068  36.682  18.470  1.00  0.00     0.179 HD
ENDBRANCH   7  13
BRANCH   4  16
HETATM   16  N4  UNL     1      25.828  31.883  18.429  1.00  0.00    -0.220 N 
ATOM     17  H4  UNL     1      26.131  31.680  17.476  1.00  0.00     0.178 HD
BRANCH  16  18
HETATM   18  C3  UNL     1      24.937  30.968  19.096  1.00  0.00     0.099 A 
HETATM   19  C4  UNL     1      23.829  30.354  18.273  1.00  0.00     0.028 A 
HETATM   20  C5  UNL     1      25.048  29.540  18.617  1.00  0.00     0.028 A 
ENDBRANCH  16  18
ENDBRANCH   4  16
TORSDOF 5
ENDMDL
MODEL 3
REMARK VINA RESULT: -4.986853798      1.539      2.498
REMARK  5 active torsions:
REMARK  status: ('A' for Active; 'I' for Inactive)
REMARK    1  A    between atoms: N1_1  and  N2_4 
REMARK    2  A    between atoms: N2_4  and  C1_6 
REMARK    3  A    between atoms: C2_9  and  N4_10 
REMARK    4  A    between atoms: N4_10  and  C3_12 
REMARK    5  A    between atoms: N6_17  and  N7_18 
ROOT
HETATM    1  C1  UNL     1      28.004  35.485  21.447  1.00  0.00     0.747 A 
HETATM    2  N3  UNL     1      27.174  34.426  21.652  1.00  0.00    -0.017 N 
ATOM      3  H3  UNL     1      27.121  33.871  22.506  1.00  0.00     0.203 HD
HETATM    4  C2  UNL     1      26.435  34.231  20.544  1.00  0.00     0.709 A 
HETATM    5  N5  UNL     1      26.817  35.166  19.678  1.00  0.00    -0.096 N 
ATOM      6  H5  UNL     1      26.438  35.281  18.739  1.00  0.00     0.208 HD
HETATM    7  N6  UNL     1      27.770  35.931  20.217  1.00  0.00    -0.011 N 
ENDROOT
BRANCH   1   8
HETATM    8  N2  UNL     1      28.861  35.965  22.289  1.00  0.00    -0.135 N 
ATOM      9  H2  UNL     1      29.545  36.651  21.969  1.00  0.00     0.205 HD
BRANCH   8  10
HETATM   10  N1  UNL     1      28.867  35.563  23.628  1.00  0.00    -0.331 N 
ATOM     11  H12 UNL     1      27.980  35.534  24.129  1.00  0.00     0.177 HD
ATOM     12  H11 UNL     1      29.734  35.303  24.099  1.00  0.00     0.177 HD
ENDBRANCH   8  10
ENDBRANCH   1   8
BRANCH   7  13
HETATM   13  N7  UNL     1      28.438  37.020  19.645  1.00  0.00    -0.309 N 
ATOM     14  H72 UNL     1      29.290  37.480  19.965  1.00  0.00     0.179 HD
ATOM     15  H71 UNL     1      28.126  37.494  18.798  1.00  0.00     0.179 HD
ENDBRANCH   7  13
BRANCH   4  16
HETATM   16  N4  UNL     1      25.447  33.205  20.385  1.00  0.00    -0.220 N 
ATOM     17  H4  UNL     1      24.465  33.426  20.551  1.00  0.00     0.178 HD
BRANCH  16  18
HETATM   18  C3  UNL     1      25.813  31.868  19.996  1.00  0.00     0.099 A 
HETATM   19  C4  UNL     1      24.740  31.010  19.366  1.00  0.00     0.028 A 
HETATM   20  C5  UNL     1      25.805  31.635  18.504  1.00  0.00     0.028 A 
ENDBRANCH  16  18
ENDBRANCH   4  16
TORSDOF 5
ENDMDL
MODEL 4
REMARK VINA RESULT: -4.865158574      2.661      4.998
REMARK  5 active torsions:
REMARK  status: ('A' for Active; 'I' for Inactive)
REMARK    1  A    between atoms: N1_1  and  N2_4 
REMARK    2  A    between atoms: N2_4  and  C1_6 
REMARK    3  A    between atoms: C2_9  and  N4_10 
REMARK    4  A    between atoms: N4_10  and  C3_12 
REMARK    5  A    between atoms: N6_17  and  N7_18 
ROOT
HETATM    1  C1  UNL     1      25.405  31.528  18.862  1.00  0.00     0.747 A 
HETATM    2  N3  UNL     1      24.866  31.908  20.053  1.00  0.00    -0.017 N 
ATOM      3  H3  UNL     1      24.171  31.383  20.583  1.00  0.00     0.203 HD
HETATM    4  C2  UNL     1      25.401  33.088  20.415  1.00  0.00     0.709 A 
HETATM    5  N5  UNL     1      26.254  33.417  19.449  1.00  0.00    -0.096 N 
ATOM      6  H5  UNL     1      26.820  34.265  19.434  1.00  0.00     0.208 HD
HETATM    7  N6  UNL     1      26.263  32.476  18.502  1.00  0.00    -0.011 N 
ENDROOT
BRANCH   1   8
HETATM    8  N2  UNL     1      25.131  30.448  18.203  1.00  0.00    -0.135 N 
ATOM      9  H2  UNL     1      25.785  29.666  18.231  1.00  0.00     0.205 HD
BRANCH   8  10
HETATM   10  N1  UNL     1      23.956  30.333  17.452  1.00  0.00    -0.331 N 
ATOM     11  H12 UNL     1      23.759  29.443  16.995  1.00  0.00     0.177 HD
ATOM     12  H11 UNL     1      23.309  31.116  17.360  1.00  0.00     0.177 HD
ENDBRANCH   8  10
ENDBRANCH   1   8
BRANCH   7  13
HETATM   13  N7  UNL     1      27.017  32.436  17.323  1.00  0.00    -0.309 N 
ATOM     14  H72 UNL     1      27.912  32.884  17.128  1.00  0.00     0.179 HD
ATOM     15  H71 UNL     1      26.735  31.925  16.487  1.00  0.00     0.179 HD
ENDBRANCH   7  13
BRANCH   4  16
HETATM   16  N4  UNL     1      25.077  33.804  21.614  1.00  0.00    -0.220 N 
ATOM     17  H4  UNL     1      25.830  34.134  22.218  1.00  0.00     0.178 HD
BRANCH  16  18
HETATM   18  C3  UNL     1      23.710  34.068  21.982  1.00  0.00     0.099 A 
HETATM   19  C4  UNL     1      23.292  33.723  23.393  1.00  0.00     0.028 A 
HETATM   20  C5  UNL     1      23.548  35.158  23.015  1.00  0.00     0.028 A 
ENDBRANCH  16  18
ENDBRANCH   4  16
TORSDOF 5
ENDMDL
MODEL 5
REMARK VINA RESULT: -4.771282189      1.439      1.981
REMARK  5 active torsions:
REMARK  status: ('A' for Active; 'I' for Inactive)
REMARK    1  A    between atoms: N1_1  and  N2_4 
REMARK    2  A    between atoms: N2_4  and  C1_6 
REMARK    3  A    between atoms: C2_9  and  N4_10 
REMARK    4  A    between atoms: N4_10  and  C3_12 
REMARK    5  A    between atoms: N6_17  and  N7_18 
ROOT
HETATM    1  C1  UNL     1      27.875  36.056  20.371  1.00  0.00     0.747 A 
HETATM    2  N3  UNL     1      26.876  35.324  19.808  1.00  0.00    -0.017 N 
ATOM      3  H3  UNL     1      26.463  35.491  18.890  1.00  0.00     0.203 HD
HETATM    4  C2  UNL     1      26.521  34.344  20.659  1.00  0.00     0.709 A 
HETATM    5  N5  UNL     1      27.301  34.486  21.728  1.00  0.00    -0.096 N 
ATOM      6  H5  UNL     1      27.273  33.889  22.554  1.00  0.00     0.208 HD
HETATM    7  N6  UNL     1      28.126  35.523  21.562  1.00  0.00    -0.011 N 
ENDROOT
BRANCH   1   8
HETATM    8  N2  UNL     1      28.468  37.080  19.847  1.00  0.00    -0.135 N 
ATOM      9  H2  UNL     1      29.073  36.947  19.037  1.00  0.00     0.205 HD
BRANCH   8  10
HETATM   10  N1  UNL     1      28.296  38.366  20.371  1.00  0.00    -0.331 N 
ATOM     11  H12 UNL     1      28.641  38.556  21.311  1.00  0.00     0.177 HD
ATOM     12  H11 UNL     1      27.837  39.100  19.831  1.00  0.00     0.177 HD
ENDBRANCH   8  10
ENDBRANCH   1   8
BRANCH   7  13
HETATM   13  N7  UNL     1      29.100  36.009  22.442  1.00  0.00    -0.309 N 
ATOM     14  H72 UNL     1      29.890  36.621  22.238  1.00  0.00     0.179 HD
ATOM     15  H71 UNL     1      29.123  35.791  23.438  1.00  0.00     0.179 HD
ENDBRANCH   7  13
BRANCH   4  16
HETATM   16  N4  UNL     1      25.499  33.370  20.412  1.00  0.00    -0.220 N 
ATOM     17  H4  UNL     1      24.519  33.640  20.501  1.00  0.00     0.178 HD
BRANCH  16  18
HETATM   18  C3  UNL     1      25.827  32.018  20.041  1.00  0.00     0.099 A 
HETATM   19  C4  UNL     1      24.753  31.206  19.357  1.00  0.00     0.028 A 
HETATM   20  C5  UNL     1      25.885  31.784  18.550  1.00  0.00     0.028 A 
ENDBRANCH  16  18
ENDBRANCH   4  16
TORSDOF 5
ENDMDL
