MODEL 1
REMARK VINA RESULT: -5.050615087      0.000      0.000
REMARK  6 active torsions:
REMARK  status: ('A' for Active; 'I' for Inactive)
REMARK    1  A    between atoms: C2_2  and  N1_3 
REMARK    2  A    between atoms: C2_2  and  C3_7 
REMARK    3  A    between atoms: C3_7  and  O1_8 
REMARK    4  A    between atoms: C3_7  and  N2_10 
REMARK    5  A    between atoms: C5_16  and  N5_17 
REMARK    6  A    between atoms: N5_17  and  N6_19 
ROOT
HETATM    1  N2  UNL     1      25.486  32.674  20.003  1.00  0.00    -0.090 N 
HETATM    2  N3  UNL     1      24.632  32.688  21.010  1.00  0.00    -0.277 N 
ATOM      3  H3  UNL     1      23.969  31.951  21.250  1.00  0.00     0.188 HD
HETATM    4  C4  UNL     1      24.795  33.850  21.659  1.00  0.00     0.215 A 
HETATM    5  N4  UNL     1      25.775  34.566  21.034  1.00  0.00    -0.184 N 
ATOM      6  H4  UNL     1      26.117  35.489  21.301  1.00  0.00     0.185 HD
HETATM    7  C5  UNL     1      26.202  33.821  19.998  1.00  0.00     0.716 A 
ENDROOT
BRANCH   1   8
HETATM    8  C3  UNL     1      25.679  31.639  19.031  1.00  0.00     0.289 C 
BRANCH   8   9
HETATM    9  C2  UNL     1      24.518  30.757  18.802  1.00  0.00     0.230 C 
HETATM   10  C1  UNL     1      25.042  29.317  18.750  1.00  0.00     0.044 C 
BRANCH   9  11
HETATM   11  N1  UNL     1      23.783  30.979  17.611  1.00  0.00    -0.071 N 
ATOM     12  H13 UNL     1      24.304  30.735  16.769  1.00  0.00     0.274 HD
ATOM     13  H12 UNL     1      23.015  30.318  17.487  1.00  0.00     0.274 HD
ATOM     14  H11 UNL     1      23.475  31.952  17.622  1.00  0.00     0.274 HD
ENDBRANCH   9  11
ENDBRANCH   8   9
BRANCH   8  15
HETATM   15  O1  UNL     1      26.156  32.207  17.843  1.00  0.00    -0.372 OA
ATOM     16  H1  UNL     1      26.349  31.550  17.185  1.00  0.00     0.212 HD
ENDBRANCH   8  15
ENDBRANCH   1   8
BRANCH   7  17
HETATM   17  N5  UNL     1      27.135  34.160  19.155  1.00  0.00    -0.137 N 
ATOM     18  H5  UNL     1      27.946  33.553  19.036  1.00  0.00     0.205 HD
BRANCH  17  19
HETATM   19  N6  UNL     1      27.046  35.334  18.415  1.00  0.00    -0.331 N 
ATOM     20  H62 UNL     1      26.185  35.521  17.902  1.00  0.00     0.177 HD
ATOM     21  H61 UNL     1      27.820  35.999  18.383  1.00  0.00     0.177 HD
ENDBRANCH  17  19
ENDBRANCH   7  17
TORSDOF 6
ENDMDL
MODEL 2
REMARK VINA RESULT: -4.563630846      1.523      2.551
REMARK  6 active torsions:
REMARK  status: ('A' for Active; 'I' for Inactive)
REMARK    1  A    between atoms: C2_2  and  N1_3 
REMARK    2  A    between atoms: C2_2  and  C3_7 
REMARK    3  A    between atoms: C3_7  and  O1_8 
REMARK    4  A    between atoms: C3_7  and  N2_10 
REMARK    5  A    between atoms: C5_16  and  N5_17 
REMARK    6  A    between atoms: N5_17  and  N6_19 
ROOT
HETATM    1  N2  UNL     1      26.119  32.778  19.132  1.00  0.00    -0.090 N 
HETATM    2  N3  UNL     1      26.724  33.029  17.986  1.00  0.00    -0.277 N 
ATOM      3  H3  UNL     1      26.819  32.385  17.200  1.00  0.00     0.188 HD
HETATM    4  C4  UNL     1      27.192  34.283  18.046  1.00  0.00     0.215 A 
HETATM    5  N4  UNL     1      26.866  34.815  19.259  1.00  0.00    -0.184 N 
ATOM      6  H4  UNL     1      27.089  35.754  19.591  1.00  0.00     0.185 HD
HETATM    7  C5  UNL     1      26.193  33.865  19.933  1.00  0.00     0.716 A 
ENDROOT
BRANCH   1   8
HETATM    8  C3  UNL     1      25.465  31.568  19.533  1.00  0.00     0.289 C 
BRANCH   8   9
HETATM    9  C2  UNL     1      25.017  30.692  18.432  1.00  0.00     0.230 C 
HETATM   10  C1  UNL     1      23.535  30.992  18.183  1.00  0.00     0.044 C 
BRANCH   9  11
HETATM   11  N1  UNL     1      25.133  29.296  18.650  1.00  0.00    -0.071 N 
ATOM     12  H13 UNL     1      24.234  28.842  18.813  1.00  0.00     0.274 HD
ATOM     13  H12 UNL     1      25.391  28.781  17.809  1.00  0.00     0.274 HD
ATOM     14  H11 UNL     1      25.791  29.163  19.418  1.00  0.00     0.274 HD
ENDBRANCH   9  11
ENDBRANCH   8   9
BRANCH   8  15
HETATM   15  O1  UNL     1      26.273  30.890  20.454  1.00  0.00    -0.372 OA
ATOM     16  H1  UNL     1      26.665  31.479  21.088  1.00  0.00     0.212 HD
ENDBRANCH   8  15
ENDBRANCH   1   8
BRANCH   7  17
HETATM   17  N5  UNL     1      25.709  33.988  21.136  1.00  0.00    -0.137 N 
ATOM     18  H5  UNL     1      25.054  33.289  21.486  1.00  0.00     0.205 HD
BRANCH  17  19
HETATM   19  N6  UNL     1      26.069  35.056  21.951  1.00  0.00    -0.331 N 
ATOM     20  H62 UNL     1      25.557  35.933  21.856  1.00  0.00     0.177 HD
ATOM     21  H61 UNL     1      26.825  34.971  22.631  1.00  0.00     0.177 HD
ENDBRANCH  17  19
ENDBRANCH   7  17
TORSDOF 6
ENDMDL
MODEL 3
REMARK VINA RESULT: -4.547257016      2.214      4.296
REMARK  6 active torsions:
REMARK  status: ('A' for Active; 'I' for Inactive)
REMARK    1  A    between atoms: C2_2  and  N1_3 
REMARK    2  A    between atoms: C2_2  and  C3_7 
REMARK    3  A    between atoms: C3_7  and  O1_8 
REMARK    4  A    between atoms: C3_7  and  N2_10 
REMARK    5  A    between atoms: C5_16  and  N5_17 
REMARK    6  A    between atoms: N5_17  and  N6_19 
ROOT
HETATM    1  N2  UNL     1      26.158  33.961  19.916  1.00  0.00    -0.090 N 
HETATM    2  N3  UNL     1      25.397  33.395  20.834  1.00  0.00    -0.277 N 
ATOM      3  H3  UNL     1      25.039  33.839  21.679  1.00  0.00     0.188 HD
HETATM    4  C4  UNL     1      25.181  32.128  20.451  1.00  0.00     0.215 A 
HETATM    5  N4  UNL     1      25.827  31.913  19.267  1.00  0.00    -0.184 N 
ATOM      6  H4  UNL     1      25.844  31.044  18.734  1.00  0.00     0.185 HD
HETATM    7  C5  UNL     1      26.436  33.067  18.940  1.00  0.00     0.716 A 
ENDROOT
BRANCH   1   8
HETATM    8  C3  UNL     1      26.650  35.306  19.892  1.00  0.00     0.289 C 
BRANCH   8   9
HETATM    9  C2  UNL     1      27.980  35.509  20.500  1.00  0.00     0.230 C 
HETATM   10  C1  UNL     1      27.762  35.812  21.987  1.00  0.00     0.044 C 
BRANCH   9  11
HETATM   11  N1  UNL     1      28.763  36.563  19.967  1.00  0.00    -0.071 N 
ATOM     12  H13 UNL     1      28.600  37.455  20.433  1.00  0.00     0.274 HD
ATOM     13  H12 UNL     1      29.754  36.476  20.191  1.00  0.00     0.274 HD
ATOM     14  H11 UNL     1      28.581  36.598  18.964  1.00  0.00     0.274 HD
ENDBRANCH   9  11
ENDBRANCH   8   9
BRANCH   8  15
HETATM   15  O1  UNL     1      26.586  35.798  18.583  1.00  0.00    -0.372 OA
ATOM     16  H1  UNL     1      27.408  35.692  18.119  1.00  0.00     0.212 HD
ENDBRANCH   8  15
ENDBRANCH   1   8
BRANCH   7  17
HETATM   17  N5  UNL     1      27.157  33.267  17.875  1.00  0.00    -0.137 N 
ATOM     18  H5  UNL     1      27.696  34.129  17.790  1.00  0.00     0.205 HD
BRANCH  17  19
HETATM   19  N6  UNL     1      27.204  32.328  16.850  1.00  0.00    -0.331 N 
ATOM     20  H62 UNL     1      26.656  31.474  16.948  1.00  0.00     0.177 HD
ATOM     21  H61 UNL     1      27.772  32.483  16.016  1.00  0.00     0.177 HD
ENDBRANCH  17  19
ENDBRANCH   7  17
TORSDOF 6
ENDMDL
MODEL 4
REMARK VINA RESULT: -4.543947610      8.470      9.062
REMARK  6 active torsions:
REMARK  status: ('A' for Active; 'I' for Inactive)
REMARK    1  A    between atoms: C2_2  and  N1_3 
REMARK    2  A    between atoms: C2_2  and  C3_7 
REMARK    3  A    between atoms: C3_7  and  O1_8 
REMARK    4  A    between atoms: C3_7  and  N2_10 
REMARK    5  A    between atoms: C5_16  and  N5_17 
REMARK    6  A    between atoms: N5_17  and  N6_19 
ROOT
HETATM    1  N2  UNL     1      22.975  27.468  25.559  1.00  0.00    -0.090 N 
HETATM    2  N3  UNL     1      22.032  28.357  25.813  1.00  0.00    -0.277 N 
ATOM      3  H3  UNL     1      21.074  28.337  25.462  1.00  0.00     0.188 HD
HETATM    4  C4  UNL     1      22.565  29.290  26.615  1.00  0.00     0.215 A 
HETATM    5  N4  UNL     1      23.868  28.965  26.859  1.00  0.00    -0.184 N 
ATOM      6  H4  UNL     1      24.526  29.488  27.435  1.00  0.00     0.185 HD
HETATM    7  C5  UNL     1      24.116  27.822  26.194  1.00  0.00     0.716 A 
ENDROOT
BRANCH   1   8
HETATM    8  C3  UNL     1      22.876  26.291  24.749  1.00  0.00     0.289 C 
BRANCH   8   9
HETATM    9  C2  UNL     1      22.378  25.084  25.438  1.00  0.00     0.230 C 
HETATM   10  C1  UNL     1      21.304  25.537  26.434  1.00  0.00     0.044 C 
BRANCH   9  11
HETATM   11  N1  UNL     1      23.334  24.332  26.164  1.00  0.00    -0.071 N 
ATOM     12  H13 UNL     1      22.916  23.584  26.718  1.00  0.00     0.274 HD
ATOM     13  H12 UNL     1      23.916  23.744  25.567  1.00  0.00     0.274 HD
ATOM     14  H11 UNL     1      23.874  24.990  26.725  1.00  0.00     0.274 HD
ENDBRANCH   9  11
ENDBRANCH   8   9
BRANCH   8  15
HETATM   15  O1  UNL     1      22.138  26.586  23.596  1.00  0.00    -0.372 OA
ATOM     16  H1  UNL     1      21.529  27.302  23.734  1.00  0.00     0.212 HD
ENDBRANCH   8  15
ENDBRANCH   1   8
BRANCH   7  17
HETATM   17  N5  UNL     1      25.253  27.188  26.176  1.00  0.00    -0.137 N 
ATOM     18  H5  UNL     1      25.408  26.458  25.480  1.00  0.00     0.205 HD
BRANCH  17  19
HETATM   19  N6  UNL     1      26.259  27.487  27.088  1.00  0.00    -0.331 N 
ATOM     20  H62 UNL     1      27.204  27.154  26.895  1.00  0.00     0.177 HD
ATOM     21  H61 UNL     1      26.065  28.027  27.932  1.00  0.00     0.177 HD
ENDBRANCH  17  19
ENDBRANCH   7  17
TORSDOF 6
ENDMDL
MODEL 5
REMARK VINA RESULT: -4.505281795      3.243      4.308
REMARK  6 active torsions:
REMARK  status: ('A' for Active; 'I' for Inactive)
REMARK    1  A    between atoms: C2_2  and  N1_3 
REMARK    2  A    between atoms: C2_2  and  C3_7 
REMARK    3  A    between atoms: C3_7  and  O1_8 
REMARK    4  A    between atoms: C3_7  and  N2_10 
REMARK    5  A    between atoms: C5_16  and  N5_17 
REMARK    6  A    between atoms: N5_17  and  N6_19 
ROOT
HETATM    1  N2  UNL     1      27.670  35.301  21.209  1.00  0.00    -0.090 N 
HETATM    2  N3  UNL     1      28.608  35.900  21.919  1.00  0.00    -0.277 N 
ATOM      3  H3  UNL     1      28.821  35.732  22.903  1.00  0.00     0.188 HD
HETATM    4  C4  UNL     1      29.228  36.771  21.111  1.00  0.00     0.215 A 
HETATM    5  N4  UNL     1      28.656  36.703  19.874  1.00  0.00    -0.184 N 
ATOM      6  H4  UNL     1      28.918  37.249  19.053  1.00  0.00     0.185 HD
HETATM    7  C5  UNL     1      27.681  35.780  19.945  1.00  0.00     0.716 A 
ENDROOT
BRANCH   1   8
HETATM    8  C3  UNL     1      26.750  34.293  21.645  1.00  0.00     0.289 C 
BRANCH   8   9
HETATM    9  C2  UNL     1      25.330  34.696  21.672  1.00  0.00     0.230 C 
HETATM   10  C1  UNL     1      25.127  35.573  22.913  1.00  0.00     0.044 C 
BRANCH   9  11
HETATM   11  N1  UNL     1      24.378  33.648  21.739  1.00  0.00    -0.071 N 
ATOM     12  H13 UNL     1      23.508  33.928  22.192  1.00  0.00     0.274 HD
ATOM     13  H12 UNL     1      23.982  33.410  20.829  1.00  0.00     0.274 HD
ATOM     14  H11 UNL     1      24.830  32.857  22.197  1.00  0.00     0.274 HD
ENDBRANCH   9  11
ENDBRANCH   8   9
BRANCH   8  15
HETATM   15  O1  UNL     1      26.955  33.127  20.897  1.00  0.00    -0.372 OA
ATOM     16  H1  UNL     1      27.795  33.129  20.453  1.00  0.00     0.212 HD
ENDBRANCH   8  15
ENDBRANCH   1   8
BRANCH   7  17
HETATM   17  N5  UNL     1      26.901  35.425  18.965  1.00  0.00    -0.137 N 
ATOM     18  H5  UNL     1      26.006  35.900  18.840  1.00  0.00     0.205 HD
BRANCH  17  19
HETATM   19  N6  UNL     1      27.263  34.410  18.086  1.00  0.00    -0.331 N 
ATOM     20  H62 UNL     1      28.134  33.907  18.258  1.00  0.00     0.177 HD
ATOM     21  H61 UNL     1      26.677  34.167  17.287  1.00  0.00     0.177 HD
ENDBRANCH  17  19
ENDBRANCH   7  17
TORSDOF 6
ENDMDL
