MODEL 1
REMARK VINA RESULT: -7.824838647      0.000      0.000
REMARK  12 active torsions:
REMARK  status: ('A' for Active; 'I' for Inactive)
REMARK    1  A    between atoms: N2_3  and  C2_5 
REMARK    2  A    between atoms: N6_12  and  C3_13 
REMARK    3  A    between atoms: C3_13  and  C4_14 
REMARK    4  A    between atoms: C4_14  and  O1_15 
REMARK    5  A    between atoms: C4_14  and  N7_17 
REMARK    6  A    between atoms: N7_17  and  C5_19 
REMARK    7  A    between atoms: C7_21  and  C8_22 
REMARK    8  A    between atoms: C8_22  and  O2_23 
REMARK    9  A    between atoms: C8_22  and  O3_25 
REMARK   10  A    between atoms: C9_28  and  C10_29 
REMARK   11  A    between atoms: C11_32  and  N9_33 
REMARK   12  A    between atoms: C12_41  and  N13_42 
ROOT
HETATM    1  N1  UNL     1      16.463  18.841  39.888  1.00  0.00    -0.171 NA
HETATM    2  C1  UNL     1      16.306  19.910  40.281  1.00  0.00     0.196 C 
HETATM    3  N2  UNL     1      16.087  21.139  40.743  1.00  0.00    -0.123 N 
ATOM      4  H2  UNL     1      15.335  21.149  41.432  1.00  0.00     0.197 HD
ENDROOT
BRANCH   3   5
HETATM    5  C2  UNL     1      16.557  22.291  40.559  1.00  0.00     0.725 A 
HETATM    6  N3  UNL     1      17.819  22.493  40.005  1.00  0.00    -0.114 N 
HETATM    7  N4  UNL     1      18.020  23.771  39.987  1.00  0.00    -0.213 N 
ATOM      8  H3  UNL     1      18.462  21.771  39.677  1.00  0.00     0.207 HD
HETATM    9  N5  UNL     1      16.987  24.384  40.483  1.00  0.00    -0.211 N 
ATOM     10  H4  UNL     1      18.863  24.228  39.637  1.00  0.00     0.210 HD
HETATM   11  N6  UNL     1      16.047  23.474  40.851  1.00  0.00    -0.102 N 
ATOM     12  H5  UNL     1      16.895  25.395  40.582  1.00  0.00     0.210 HD
BRANCH  11  13
HETATM   13  C3  UNL     1      14.740  23.908  41.371  1.00  0.00     0.223 C 
BRANCH  13  14
HETATM   14  C4  UNL     1      13.699  23.683  40.325  1.00  0.00     0.238 C 
BRANCH  14  15
HETATM   15  O1  UNL     1      12.511  23.274  40.887  1.00  0.00    -0.375 OA
ATOM     16  H1  UNL     1      12.661  22.764  41.674  1.00  0.00     0.212 HD
ENDBRANCH  14  15
BRANCH  14  17
HETATM   17  N7  UNL     1      13.494  24.730  39.382  1.00  0.00    -0.361 N 
ATOM     18  H7  UNL     1      14.311  25.069  38.874  1.00  0.00     0.162 HD
BRANCH  17  19
HETATM   19  C5  UNL     1      12.215  25.356  39.084  1.00  0.00     0.051 A 
HETATM   20  C6  UNL     1      11.509  24.996  37.992  1.00  0.00     0.050 A 
HETATM   21  C7  UNL     1      10.330  25.632  37.744  1.00  0.00     0.040 A 
HETATM   22  S1  UNL     1      10.215  26.728  39.038  1.00  0.00    -0.085 SA
HETATM   23  C9  UNL     1      11.689  26.338  39.864  1.00  0.00     0.063 A 
BRANCH  21  24
HETATM   24  C8  UNL     1       9.377  25.398  36.591  1.00  0.00     0.295 C 
BRANCH  24  25
HETATM   25  O2  UNL     1       8.945  24.083  36.578  1.00  0.00    -0.367 OA
ATOM     26  H2  UNL     1       8.097  24.007  36.999  1.00  0.00     0.213 HD
ENDBRANCH  24  25
BRANCH  24  27
HETATM   27  O3  UNL     1      10.152  25.590  35.439  1.00  0.00    -0.367 OA
ATOM     28  H3  UNL     1       9.683  25.132  34.750  1.00  0.00     0.213 HD
ENDBRANCH  24  27
ENDBRANCH  21  24
BRANCH  23  29
HETATM   29  C10 UNL     1      12.087  27.011  41.084  1.00  0.00     0.116 A 
HETATM   30  N8  UNL     1      12.817  28.118  41.075  1.00  0.00    -0.185 N 
HETATM   31  C11 UNL     1      13.184  28.727  42.198  1.00  0.00     0.692 A 
ATOM     32  H8  UNL     1      13.105  28.513  40.180  1.00  0.00     0.184 HD
HETATM   33  N10 UNL     1      12.829  28.245  43.398  1.00  0.00    -0.109 N 
HETATM   34  N11 UNL     1      12.104  27.147  43.464  1.00  0.00    -0.148 N 
ATOM     35  H10 UNL     1      13.118  28.723  44.252  1.00  0.00     0.208 HD
HETATM   36  N12 UNL     1      11.645  26.500  44.515  1.00  0.00    -0.109 N 
HETATM   37  C13 UNL     1      11.731  26.529  42.334  1.00  0.00     0.190 A 
HETATM   38  C12 UNL     1      10.956  25.433  44.057  1.00  0.00     0.693 A 
ATOM     39  H12 UNL     1      11.784  26.757  45.492  1.00  0.00     0.208 HD
HETATM   40  N14 UNL     1      11.021  25.469  42.724  1.00  0.00    -0.170 N 
ATOM     41  H14 UNL     1      10.591  24.788  42.097  1.00  0.00     0.186 HD
BRANCH  31  42
HETATM   42  N9  UNL     1      13.892  29.798  42.109  1.00  0.00    -0.233 N 
ATOM     43  H92 UNL     1      14.413  30.142  42.916  1.00  0.00     0.174 HD
ATOM     44  H91 UNL     1      13.916  30.290  41.215  1.00  0.00     0.174 HD
ENDBRANCH  31  42
BRANCH  38  45
HETATM   45  N13 UNL     1      10.366  24.575  44.823  1.00  0.00    -0.233 N 
ATOM     46 2H13 UNL     1      10.544  23.576  44.928  1.00  0.00     0.174 HD
ATOM     47 1H13 UNL     1       9.600  24.809  45.454  1.00  0.00     0.174 HD
ENDBRANCH  38  45
ENDBRANCH  23  29
ENDBRANCH  17  19
ENDBRANCH  14  17
ENDBRANCH  13  14
ENDBRANCH  11  13
ENDBRANCH   3   5
TORSDOF 12
ENDMDL
MODEL 2
REMARK VINA RESULT: -7.564555940      0.676      2.468
REMARK  12 active torsions:
REMARK  status: ('A' for Active; 'I' for Inactive)
REMARK    1  A    between atoms: N2_3  and  C2_5 
REMARK    2  A    between atoms: N6_12  and  C3_13 
REMARK    3  A    between atoms: C3_13  and  C4_14 
REMARK    4  A    between atoms: C4_14  and  O1_15 
REMARK    5  A    between atoms: C4_14  and  N7_17 
REMARK    6  A    between atoms: N7_17  and  C5_19 
REMARK    7  A    between atoms: C7_21  and  C8_22 
REMARK    8  A    between atoms: C8_22  and  O2_23 
REMARK    9  A    between atoms: C8_22  and  O3_25 
REMARK   10  A    between atoms: C9_28  and  C10_29 
REMARK   11  A    between atoms: C11_32  and  N9_33 
REMARK   12  A    between atoms: C12_41  and  N13_42 
ROOT
HETATM    1  N1  UNL     1      16.505  18.840  39.866  1.00  0.00    -0.171 NA
HETATM    2  C1  UNL     1      16.256  19.893  40.257  1.00  0.00     0.196 C 
HETATM    3  N2  UNL     1      15.931  21.100  40.712  1.00  0.00    -0.123 N 
ATOM      4  H2  UNL     1      15.111  21.061  41.317  1.00  0.00     0.197 HD
ENDROOT
BRANCH   3   5
HETATM    5  C2  UNL     1      16.362  22.276  40.597  1.00  0.00     0.725 A 
HETATM    6  N3  UNL     1      17.654  22.548  40.154  1.00  0.00    -0.114 N 
HETATM    7  N4  UNL     1      17.798  23.834  40.185  1.00  0.00    -0.213 N 
ATOM      8  H3  UNL     1      18.353  21.865  39.861  1.00  0.00     0.207 HD
HETATM    9  N5  UNL     1      16.701  24.387  40.610  1.00  0.00    -0.211 N 
ATOM     10  H4  UNL     1      18.644  24.337  39.917  1.00  0.00     0.210 HD
HETATM   11  N6  UNL     1      15.777  23.427  40.875  1.00  0.00    -0.102 N 
ATOM     12  H5  UNL     1      16.555  25.390  40.727  1.00  0.00     0.210 HD
BRANCH  11  13
HETATM   13  C3  UNL     1      14.413  23.789  41.298  1.00  0.00     0.223 C 
BRANCH  13  14
HETATM   14  C4  UNL     1      13.490  23.651  40.134  1.00  0.00     0.238 C 
BRANCH  14  15
HETATM   15  O1  UNL     1      12.278  23.124  40.521  1.00  0.00    -0.375 OA
ATOM     16  H1  UNL     1      11.558  23.664  40.220  1.00  0.00     0.212 HD
ENDBRANCH  14  15
BRANCH  14  17
HETATM   17  N7  UNL     1      13.315  24.798  39.307  1.00  0.00    -0.361 N 
ATOM     18  H7  UNL     1      14.139  25.153  38.821  1.00  0.00     0.162 HD
BRANCH  17  19
HETATM   19  C5  UNL     1      12.061  25.504  39.100  1.00  0.00     0.051 A 
HETATM   20  C6  UNL     1      11.488  25.547  37.880  1.00  0.00     0.050 A 
HETATM   21  C7  UNL     1      10.326  26.244  37.733  1.00  0.00     0.040 A 
HETATM   22  S1  UNL     1      10.042  26.834  39.302  1.00  0.00    -0.085 SA
HETATM   23  C9  UNL     1      11.427  26.167  40.105  1.00  0.00     0.063 A 
BRANCH  21  24
HETATM   24  C8  UNL     1       9.511  26.430  36.471  1.00  0.00     0.295 C 
BRANCH  24  25
HETATM   25  O2  UNL     1      10.024  25.658  35.444  1.00  0.00    -0.367 OA
ATOM     26  H2  UNL     1       9.613  25.886  34.618  1.00  0.00     0.213 HD
ENDBRANCH  24  25
BRANCH  24  27
HETATM   27  O3  UNL     1       9.701  27.773  36.114  1.00  0.00    -0.367 OA
ATOM     28  H3  UNL     1       9.363  27.840  35.228  1.00  0.00     0.213 HD
ENDBRANCH  24  27
ENDBRANCH  21  24
BRANCH  23  29
HETATM   29  C10 UNL     1      11.672  26.377  41.517  1.00  0.00     0.116 A 
HETATM   30  N8  UNL     1      11.123  25.615  42.451  1.00  0.00    -0.185 N 
HETATM   31  C11 UNL     1      11.347  25.817  43.746  1.00  0.00     0.692 A 
ATOM     32  H8  UNL     1      10.509  24.850  42.169  1.00  0.00     0.184 HD
HETATM   33  N10 UNL     1      12.147  26.809  44.166  1.00  0.00    -0.109 N 
HETATM   34  N11 UNL     1      12.718  27.597  43.278  1.00  0.00    -0.148 N 
ATOM     35  H10 UNL     1      12.311  26.952  45.163  1.00  0.00     0.208 HD
HETATM   36  N12 UNL     1      13.529  28.619  43.455  1.00  0.00    -0.109 N 
HETATM   37  C13 UNL     1      12.494  27.397  41.971  1.00  0.00     0.190 A 
HETATM   38  C12 UNL     1      13.840  29.098  42.231  1.00  0.00     0.693 A 
ATOM     39  H12 UNL     1      13.859  28.982  44.349  1.00  0.00     0.208 HD
HETATM   40  N14 UNL     1      13.199  28.338  41.340  1.00  0.00    -0.170 N 
ATOM     41  H14 UNL     1      13.242  28.458  40.327  1.00  0.00     0.186 HD
BRANCH  31  42
HETATM   42  N9  UNL     1      10.778  25.034  44.595  1.00  0.00    -0.233 N 
ATOM     43  H92 UNL     1      11.300  24.269  45.022  1.00  0.00     0.174 HD
ATOM     44  H91 UNL     1       9.798  25.199  44.823  1.00  0.00     0.174 HD
ENDBRANCH  31  42
BRANCH  38  45
HETATM   45  N13 UNL     1      14.622  30.107  42.030  1.00  0.00    -0.233 N 
ATOM     46 2H13 UNL     1      14.970  30.795  42.698  1.00  0.00     0.174 HD
ATOM     47 1H13 UNL     1      15.008  30.354  41.119  1.00  0.00     0.174 HD
ENDBRANCH  38  45
ENDBRANCH  23  29
ENDBRANCH  17  19
ENDBRANCH  14  17
ENDBRANCH  13  14
ENDBRANCH  11  13
ENDBRANCH   3   5
TORSDOF 12
ENDMDL
MODEL 3
REMARK VINA RESULT: -7.487612859      3.213      6.736
REMARK  12 active torsions:
REMARK  status: ('A' for Active; 'I' for Inactive)
REMARK    1  A    between atoms: N2_3  and  C2_5 
REMARK    2  A    between atoms: N6_12  and  C3_13 
REMARK    3  A    between atoms: C3_13  and  C4_14 
REMARK    4  A    between atoms: C4_14  and  O1_15 
REMARK    5  A    between atoms: C4_14  and  N7_17 
REMARK    6  A    between atoms: N7_17  and  C5_19 
REMARK    7  A    between atoms: C7_21  and  C8_22 
REMARK    8  A    between atoms: C8_22  and  O2_23 
REMARK    9  A    between atoms: C8_22  and  O3_25 
REMARK   10  A    between atoms: C9_28  and  C10_29 
REMARK   11  A    between atoms: C11_32  and  N9_33 
REMARK   12  A    between atoms: C12_41  and  N13_42 
ROOT
HETATM    1  N1  UNL     1      10.080  25.505  35.768  1.00  0.00    -0.171 NA
HETATM    2  C1  UNL     1      10.158  26.102  36.748  1.00  0.00     0.196 C 
HETATM    3  N2  UNL     1      10.259  26.825  37.861  1.00  0.00    -0.123 N 
ATOM      4  H2  UNL     1      10.052  27.808  37.686  1.00  0.00     0.197 HD
ENDROOT
BRANCH   3   5
HETATM    5  C2  UNL     1      10.539  26.623  39.070  1.00  0.00     0.725 A 
HETATM    6  N3  UNL     1       9.734  27.097  40.102  1.00  0.00    -0.114 N 
HETATM    7  N4  UNL     1      10.310  26.761  41.212  1.00  0.00    -0.213 N 
ATOM      8  H3  UNL     1       8.858  27.611  40.004  1.00  0.00     0.207 HD
HETATM    9  N5  UNL     1      11.409  26.115  40.956  1.00  0.00    -0.211 N 
ATOM     10  H4  UNL     1       9.956  26.972  42.145  1.00  0.00     0.210 HD
HETATM   11  N6  UNL     1      11.577  26.011  39.612  1.00  0.00    -0.102 N 
ATOM     12  H5  UNL     1      12.048  25.743  41.658  1.00  0.00     0.210 HD
BRANCH  11  13
HETATM   13  C3  UNL     1      12.707  25.254  39.049  1.00  0.00     0.223 C 
BRANCH  13  14
HETATM   14  C4  UNL     1      13.072  24.153  39.988  1.00  0.00     0.238 C 
BRANCH  14  15
HETATM   15  O1  UNL     1      11.975  23.379  40.296  1.00  0.00    -0.375 OA
ATOM     16  H1  UNL     1      11.917  22.625  39.722  1.00  0.00     0.212 HD
ENDBRANCH  14  15
BRANCH  14  17
HETATM   17  N7  UNL     1      14.192  23.347  39.637  1.00  0.00    -0.361 N 
ATOM     18  H7  UNL     1      14.453  23.313  38.651  1.00  0.00     0.162 HD
BRANCH  17  19
HETATM   19  C5  UNL     1      14.994  22.569  40.567  1.00  0.00     0.051 A 
HETATM   20  C6  UNL     1      15.536  21.391  40.193  1.00  0.00     0.050 A 
HETATM   21  C7  UNL     1      16.257  20.688  41.111  1.00  0.00     0.040 A 
HETATM   22  S1  UNL     1      16.175  21.678  42.490  1.00  0.00    -0.085 SA
HETATM   23  C9  UNL     1      15.214  22.971  41.848  1.00  0.00     0.063 A 
BRANCH  21  24
HETATM   24  C8  UNL     1      16.950  19.356  40.921  1.00  0.00     0.295 C 
BRANCH  24  25
HETATM   25  O2  UNL     1      18.302  19.542  40.688  1.00  0.00    -0.367 OA
ATOM     26  H2  UNL     1      18.774  18.724  40.793  1.00  0.00     0.213 HD
ENDBRANCH  24  25
BRANCH  24  27
HETATM   27  O3  UNL     1      16.397  18.827  39.746  1.00  0.00    -0.367 OA
ATOM     28  H3  UNL     1      17.143  18.536  39.234  1.00  0.00     0.213 HD
ENDBRANCH  24  27
ENDBRANCH  21  24
BRANCH  23  29
HETATM   29  C10 UNL     1      14.840  24.121  42.646  1.00  0.00     0.116 A 
HETATM   30  N8  UNL     1      13.976  24.036  43.648  1.00  0.00    -0.185 N 
HETATM   31  C11 UNL     1      13.633  25.096  44.372  1.00  0.00     0.692 A 
ATOM     32  H8  UNL     1      13.562  23.130  43.869  1.00  0.00     0.184 HD
HETATM   33  N10 UNL     1      14.151  26.308  44.120  1.00  0.00    -0.109 N 
HETATM   34  N11 UNL     1      15.014  26.448  43.135  1.00  0.00    -0.148 N 
ATOM     35  H10 UNL     1      13.879  27.113  44.685  1.00  0.00     0.208 HD
HETATM   36  N12 UNL     1      15.643  27.524  42.710  1.00  0.00    -0.109 N 
HETATM   37  C13 UNL     1      15.363  25.382  42.401  1.00  0.00     0.190 A 
HETATM   38  C12 UNL     1      16.421  27.148  41.672  1.00  0.00     0.693 A 
ATOM     39  H12 UNL     1      15.558  28.465  43.093  1.00  0.00     0.208 HD
HETATM   40  N14 UNL     1      16.236  25.837  41.501  1.00  0.00    -0.170 N 
ATOM     41  H14 UNL     1      16.693  25.269  40.787  1.00  0.00     0.186 HD
BRANCH  31  42
HETATM   42  N9  UNL     1      12.788  24.935  45.330  1.00  0.00    -0.233 N 
ATOM     43  H92 UNL     1      12.401  24.012  45.527  1.00  0.00     0.174 HD
ATOM     44  H91 UNL     1      12.517  25.751  45.879  1.00  0.00     0.174 HD
ENDBRANCH  31  42
BRANCH  38  45
HETATM   45  N13 UNL     1      17.182  27.959  41.012  1.00  0.00    -0.233 N 
ATOM     46 2H13 UNL     1      17.180  28.978  41.002  1.00  0.00     0.174 HD
ATOM     47 1H13 UNL     1      17.922  27.655  40.380  1.00  0.00     0.174 HD
ENDBRANCH  38  45
ENDBRANCH  23  29
ENDBRANCH  17  19
ENDBRANCH  14  17
ENDBRANCH  13  14
ENDBRANCH  11  13
ENDBRANCH   3   5
TORSDOF 12
ENDMDL
MODEL 4
REMARK VINA RESULT: -7.423538528      0.993      1.409
REMARK  12 active torsions:
REMARK  status: ('A' for Active; 'I' for Inactive)
REMARK    1  A    between atoms: N2_3  and  C2_5 
REMARK    2  A    between atoms: N6_12  and  C3_13 
REMARK    3  A    between atoms: C3_13  and  C4_14 
REMARK    4  A    between atoms: C4_14  and  O1_15 
REMARK    5  A    between atoms: C4_14  and  N7_17 
REMARK    6  A    between atoms: N7_17  and  C5_19 
REMARK    7  A    between atoms: C7_21  and  C8_22 
REMARK    8  A    between atoms: C8_22  and  O2_23 
REMARK    9  A    between atoms: C8_22  and  O3_25 
REMARK   10  A    between atoms: C9_28  and  C10_29 
REMARK   11  A    between atoms: C11_32  and  N9_33 
REMARK   12  A    between atoms: C12_41  and  N13_42 
ROOT
HETATM    1  N1  UNL     1      16.497  18.872  39.908  1.00  0.00    -0.171 NA
HETATM    2  C1  UNL     1      16.295  19.932  40.309  1.00  0.00     0.196 C 
HETATM    3  N2  UNL     1      16.086  21.171  40.747  1.00  0.00    -0.123 N 
ATOM      4  H2  UNL     1      16.205  21.855  39.999  1.00  0.00     0.197 HD
ENDROOT
BRANCH   3   5
HETATM    5  C2  UNL     1      15.782  21.727  41.833  1.00  0.00     0.725 A 
HETATM    6  N3  UNL     1      15.834  21.049  43.048  1.00  0.00    -0.114 N 
HETATM    7  N4  UNL     1      15.428  21.876  43.957  1.00  0.00    -0.213 N 
ATOM      8  H3  UNL     1      16.135  20.084  43.195  1.00  0.00     0.207 HD
HETATM    9  N5  UNL     1      15.127  23.015  43.409  1.00  0.00    -0.211 N 
ATOM     10  H4  UNL     1      15.354  21.665  44.953  1.00  0.00     0.210 HD
HETATM   11  N6  UNL     1      15.343  22.950  42.069  1.00  0.00    -0.102 N 
ATOM     12  H5  UNL     1      14.781  23.835  43.908  1.00  0.00     0.210 HD
BRANCH  11  13
HETATM   13  C3  UNL     1      15.156  24.136  41.216  1.00  0.00     0.223 C 
BRANCH  13  14
HETATM   14  C4  UNL     1      13.927  23.952  40.389  1.00  0.00     0.238 C 
BRANCH  14  15
HETATM   15  O1  UNL     1      12.832  23.687  41.180  1.00  0.00    -0.375 OA
ATOM     16  H1  UNL     1      12.219  23.114  40.736  1.00  0.00     0.212 HD
ENDBRANCH  14  15
BRANCH  14  17
HETATM   17  N7  UNL     1      13.639  24.960  39.425  1.00  0.00    -0.361 N 
ATOM     18  H7  UNL     1      14.422  25.329  38.886  1.00  0.00     0.162 HD
BRANCH  17  19
HETATM   19  C5  UNL     1      12.320  25.505  39.146  1.00  0.00     0.051 A 
HETATM   20  C6  UNL     1      11.625  25.107  38.060  1.00  0.00     0.050 A 
HETATM   21  C7  UNL     1      10.405  25.669  37.829  1.00  0.00     0.040 A 
HETATM   22  S1  UNL     1      10.237  26.749  39.131  1.00  0.00    -0.085 SA
HETATM   23  C9  UNL     1      11.742  26.448  39.938  1.00  0.00     0.063 A 
BRANCH  21  24
HETATM   24  C8  UNL     1       9.455  25.381  36.687  1.00  0.00     0.295 C 
BRANCH  24  25
HETATM   25  O2  UNL     1       9.074  24.051  36.695  1.00  0.00    -0.367 OA
ATOM     26  H2  UNL     1       8.150  23.968  36.492  1.00  0.00     0.213 HD
ENDBRANCH  24  25
BRANCH  24  27
HETATM   27  O3  UNL     1      10.215  25.587  35.526  1.00  0.00    -0.367 OA
ATOM     28  H3  UNL     1      10.188  24.755  35.066  1.00  0.00     0.213 HD
ENDBRANCH  24  27
ENDBRANCH  21  24
BRANCH  23  29
HETATM   29  C10 UNL     1      12.112  27.138  41.157  1.00  0.00     0.116 A 
HETATM   30  N8  UNL     1      12.874  28.222  41.152  1.00  0.00    -0.185 N 
HETATM   31  C11 UNL     1      13.215  28.847  42.275  1.00  0.00     0.692 A 
ATOM     32  H8  UNL     1      13.209  28.588  40.261  1.00  0.00     0.184 HD
HETATM   33  N10 UNL     1      12.798  28.405  43.471  1.00  0.00    -0.109 N 
HETATM   34  N11 UNL     1      12.039  27.331  43.532  1.00  0.00    -0.148 N 
ATOM     35  H10 UNL     1      13.067  28.895  44.324  1.00  0.00     0.208 HD
HETATM   36  N12 UNL     1      11.520  26.723  44.578  1.00  0.00    -0.109 N 
HETATM   37  C13 UNL     1      11.693  26.696  42.403  1.00  0.00     0.190 A 
HETATM   38  C12 UNL     1      10.818  25.665  44.117  1.00  0.00     0.693 A 
ATOM     39  H12 UNL     1      11.628  26.998  45.554  1.00  0.00     0.208 HD
HETATM   40  N14 UNL     1      10.936  25.667  42.788  1.00  0.00    -0.170 N 
ATOM     41  H14 UNL     1      10.511  24.984  42.160  1.00  0.00     0.186 HD
BRANCH  31  42
HETATM   42  N9  UNL     1      13.958  29.895  42.190  1.00  0.00    -0.233 N 
ATOM     43  H92 UNL     1      14.737  29.924  41.533  1.00  0.00     0.174 HD
ATOM     44  H91 UNL     1      13.746  30.689  42.795  1.00  0.00     0.174 HD
ENDBRANCH  31  42
BRANCH  38  45
HETATM   45  N13 UNL     1      10.172  24.843  44.878  1.00  0.00    -0.233 N 
ATOM     46 2H13 UNL     1       9.185  24.587  44.860  1.00  0.00     0.174 HD
ATOM     47 1H13 UNL     1      10.602  24.317  45.639  1.00  0.00     0.174 HD
ENDBRANCH  38  45
ENDBRANCH  23  29
ENDBRANCH  17  19
ENDBRANCH  14  17
ENDBRANCH  13  14
ENDBRANCH  11  13
ENDBRANCH   3   5
TORSDOF 12
ENDMDL
MODEL 5
REMARK VINA RESULT: -7.305587616      3.140      6.300
REMARK  12 active torsions:
REMARK  status: ('A' for Active; 'I' for Inactive)
REMARK    1  A    between atoms: N2_3  and  C2_5 
REMARK    2  A    between atoms: N6_12  and  C3_13 
REMARK    3  A    between atoms: C3_13  and  C4_14 
REMARK    4  A    between atoms: C4_14  and  O1_15 
REMARK    5  A    between atoms: C4_14  and  N7_17 
REMARK    6  A    between atoms: N7_17  and  C5_19 
REMARK    7  A    between atoms: C7_21  and  C8_22 
REMARK    8  A    between atoms: C8_22  and  O2_23 
REMARK    9  A    between atoms: C8_22  and  O3_25 
REMARK   10  A    between atoms: C9_28  and  C10_29 
REMARK   11  A    between atoms: C11_32  and  N9_33 
REMARK   12  A    between atoms: C12_41  and  N13_42 
ROOT
HETATM    1  N1  UNL     1      10.088  25.495  35.784  1.00  0.00    -0.171 NA
HETATM    2  C1  UNL     1       9.953  26.004  36.807  1.00  0.00     0.196 C 
HETATM    3  N2  UNL     1       9.783  26.624  37.971  1.00  0.00    -0.123 N 
ATOM      4  H2  UNL     1       9.033  27.313  37.920  1.00  0.00     0.197 HD
ENDROOT
BRANCH   3   5
HETATM    5  C2  UNL     1      10.298  26.591  39.118  1.00  0.00     0.725 A 
HETATM    6  N3  UNL     1       9.732  27.261  40.200  1.00  0.00    -0.114 N 
HETATM    7  N4  UNL     1      10.513  27.063  41.213  1.00  0.00    -0.213 N 
ATOM      8  H3  UNL     1       8.868  27.804  40.195  1.00  0.00     0.207 HD
HETATM    9  N5  UNL     1      11.519  26.324  40.853  1.00  0.00    -0.211 N 
ATOM     10  H4  UNL     1      10.361  27.433  42.152  1.00  0.00     0.210 HD
HETATM   11  N6  UNL     1      11.408  26.009  39.536  1.00  0.00    -0.102 N 
ATOM     12  H5  UNL     1      12.278  26.025  41.465  1.00  0.00     0.210 HD
BRANCH  11  13
HETATM   13  C3  UNL     1      12.380  25.111  38.890  1.00  0.00     0.223 C 
BRANCH  13  14
HETATM   14  C4  UNL     1      12.922  24.165  39.908  1.00  0.00     0.238 C 
BRANCH  14  15
HETATM   15  O1  UNL     1      11.907  23.595  40.645  1.00  0.00    -0.375 OA
ATOM     16  H1  UNL     1      11.101  24.087  40.556  1.00  0.00     0.212 HD
ENDBRANCH  14  15
BRANCH  14  17
HETATM   17  N7  UNL     1      13.847  23.183  39.453  1.00  0.00    -0.361 N 
ATOM     18  H7  UNL     1      13.732  22.839  38.499  1.00  0.00     0.162 HD
BRANCH  17  19
HETATM   19  C5  UNL     1      14.941  22.630  40.234  1.00  0.00     0.051 A 
HETATM   20  C6  UNL     1      15.307  21.339  40.091  1.00  0.00     0.050 A 
HETATM   21  C7  UNL     1      16.321  20.863  40.867  1.00  0.00     0.040 A 
HETATM   22  S1  UNL     1      16.756  22.222  41.791  1.00  0.00    -0.085 SA
HETATM   23  C9  UNL     1      15.621  23.367  41.154  1.00  0.00     0.063 A 
BRANCH  21  24
HETATM   24  C8  UNL     1      16.898  19.463  40.880  1.00  0.00     0.295 C 
BRANCH  24  25
HETATM   25  O2  UNL     1      18.274  19.505  40.738  1.00  0.00    -0.367 OA
ATOM     26  H2  UNL     1      18.595  18.692  40.364  1.00  0.00     0.213 HD
ENDBRANCH  24  25
BRANCH  24  27
HETATM   27  O3  UNL     1      16.382  18.850  39.729  1.00  0.00    -0.367 OA
ATOM     28  H3  UNL     1      16.382  19.533  39.068  1.00  0.00     0.213 HD
ENDBRANCH  24  27
ENDBRANCH  21  24
BRANCH  23  29
HETATM   29  C10 UNL     1      15.569  24.738  41.619  1.00  0.00     0.116 A 
HETATM   30  N8  UNL     1      16.381  25.675  41.152  1.00  0.00    -0.185 N 
HETATM   31  C11 UNL     1      16.332  26.930  41.587  1.00  0.00     0.692 A 
ATOM     32  H8  UNL     1      17.065  25.426  40.437  1.00  0.00     0.184 HD
HETATM   33  N10 UNL     1      15.450  27.305  42.526  1.00  0.00    -0.109 N 
HETATM   34  N11 UNL     1      14.619  26.414  43.024  1.00  0.00    -0.148 N 
ATOM     35  H10 UNL     1      15.423  28.272  42.850  1.00  0.00     0.208 HD
HETATM   36  N12 UNL     1      13.683  26.551  43.940  1.00  0.00    -0.109 N 
HETATM   37  C13 UNL     1      14.665  25.146  42.588  1.00  0.00     0.190 A 
HETATM   38  C12 UNL     1      13.105  25.341  44.104  1.00  0.00     0.693 A 
ATOM     39  H12 UNL     1      13.439  27.410  44.433  1.00  0.00     0.208 HD
HETATM   40  N14 UNL     1      13.719  24.499  43.270  1.00  0.00    -0.170 N 
ATOM     41  H14 UNL     1      13.497  23.508  43.169  1.00  0.00     0.186 HD
BRANCH  31  42
HETATM   42  N9  UNL     1      17.153  27.784  41.085  1.00  0.00    -0.233 N 
ATOM     43  H92 UNL     1      18.083  27.492  40.783  1.00  0.00     0.174 HD
ATOM     44  H91 UNL     1      16.851  28.755  41.000  1.00  0.00     0.174 HD
ENDBRANCH  31  42
BRANCH  38  45
HETATM   45  N13 UNL     1      12.139  25.111  44.932  1.00  0.00    -0.233 N 
ATOM     46 2H13 UNL     1      11.141  25.288  44.823  1.00  0.00     0.174 HD
ATOM     47 1H13 UNL     1      12.270  24.699  45.856  1.00  0.00     0.174 HD
ENDBRANCH  38  45
ENDBRANCH  23  29
ENDBRANCH  17  19
ENDBRANCH  14  17
ENDBRANCH  13  14
ENDBRANCH  11  13
ENDBRANCH   3   5
TORSDOF 12
ENDMDL
