MODEL 1
REMARK VINA RESULT: -7.233717052      0.000      0.000
REMARK  10 active torsions:
REMARK  status: ('A' for Active; 'I' for Inactive)
REMARK    1  A    between atoms: N1_1  and  C1_4 
REMARK    2  A    between atoms: C2_7  and  N3_8 
REMARK    3  A    between atoms: N3_8  and  C3_10 
REMARK    4  A    between atoms: C3_10  and  N4_11 
REMARK    5  A    between atoms: C3_10  and  O1_15 
REMARK    6  A    between atoms: C5_18  and  N5_19 
REMARK    7  A    between atoms: C6_24  and  C7_25 
REMARK    8  A    between atoms: C9_30  and  N10_31 
REMARK    9  A    between atoms: N10_31  and  N11_33 
REMARK   10  A    between atoms: C11_39  and  C12_40 
ROOT
HETATM    1  C1  UNL     1      11.474  26.129  39.896  1.00  0.00     0.679 A 
HETATM    2  N2  UNL     1      12.327  26.932  40.537  1.00  0.00    -0.176 N 
ATOM      3  H2  UNL     1      12.099  27.916  40.677  1.00  0.00     0.186 HD
HETATM    4  C2  UNL     1      13.509  26.427  41.004  1.00  0.00     0.136 A 
HETATM    5  C4  UNL     1      13.832  25.099  40.825  1.00  0.00     0.084 A 
HETATM    6  C5  UNL     1      14.992  24.557  41.283  1.00  0.00     0.106 A 
HETATM    7  C9  UNL     1      15.207  23.187  41.050  1.00  0.00     0.095 A 
HETATM    8  C13 UNL     1      14.226  22.461  40.368  1.00  0.00     0.123 A 
HETATM    9  N15 UNL     1      13.109  23.034  39.940  1.00  0.00    -0.349 N 
ATOM     10  H15 UNL     1      12.418  22.470  39.446  1.00  0.00     0.167 HD
HETATM   11  C14 UNL     1      12.866  24.346  40.143  1.00  0.00     0.137 A 
HETATM   12  N16 UNL     1      11.708  24.845  39.683  1.00  0.00    -0.176 N 
ATOM     13  H16 UNL     1      11.035  24.257  39.190  1.00  0.00     0.186 HD
ENDROOT
BRANCH   7  14
HETATM   14  N10 UNL     1      16.339  22.538  41.555  1.00  0.00    -0.274 N 
ATOM     15  H10 UNL     1      17.240  22.860  41.201  1.00  0.00     0.189 HD
BRANCH  14  16
HETATM   16  N11 UNL     1      16.377  21.500  42.489  1.00  0.00    -0.173 N 
HETATM   17  N12 UNL     1      16.000  21.599  43.752  1.00  0.00    -0.273 N 
HETATM   18  C10 UNL     1      16.146  20.457  44.390  1.00  0.00     0.201 A 
ATOM     19  H12 UNL     1      15.641  22.453  44.179  1.00  0.00     0.190 HD
HETATM   20  N13 UNL     1      16.636  19.601  43.493  1.00  0.00    -0.331 N 
HETATM   21  C11 UNL     1      16.783  20.236  42.310  1.00  0.00     0.211 A 
ATOM     22  H13 UNL     1      16.863  18.622  43.672  1.00  0.00     0.168 HD
BRANCH  21  23
HETATM   23  C12 UNL     1      17.299  19.598  41.078  1.00  0.00     0.302 C 
HETATM   24  N14 UNL     1      16.365  19.404  40.001  1.00  0.00    -0.054 NA
HETATM   25  O3  UNL     1      18.454  19.220  40.898  1.00  0.00    -0.268 OA
ENDBRANCH  21  23
ENDBRANCH  14  16
ENDBRANCH   7  14
BRANCH   6  26
HETATM   26  N5  UNL     1      15.957  25.287  42.020  1.00  0.00    -0.222 N 
HETATM   27  N6  UNL     1      16.198  25.514  43.281  1.00  0.00    -0.234 N 
HETATM   28  N7  UNL     1      17.206  26.345  43.462  1.00  0.00    -0.278 N 
ATOM     29  H6  UNL     1      15.665  25.095  44.044  1.00  0.00     0.209 HD
HETATM   30  C6  UNL     1      17.659  26.685  42.254  1.00  0.00     0.157 A 
ATOM     31  H7  UNL     1      17.572  26.668  44.358  1.00  0.00     0.189 HD
HETATM   32  C8  UNL     1      16.883  26.026  41.338  1.00  0.00     0.173 A 
HETATM   33  N9  UNL     1      17.038  26.116  39.902  1.00  0.00    -0.078 NA
BRANCH  30  34
HETATM   34  C7  UNL     1      18.769  27.585  41.922  1.00  0.00     0.286 C 
HETATM   35  N8  UNL     1      19.981  27.011  41.433  1.00  0.00    -0.056 NA
HETATM   36  O2  UNL     1      18.662  28.814  42.063  1.00  0.00    -0.269 OA
ENDBRANCH  30  34
ENDBRANCH   6  26
BRANCH   4  37
HETATM   37  N3  UNL     1      14.306  27.198  41.634  1.00  0.00    -0.327 N 
ATOM     38  H3  UNL     1      15.310  27.124  41.462  1.00  0.00     0.165 HD
BRANCH  37  39
HETATM   39  C3  UNL     1      13.828  28.167  42.576  1.00  0.00     0.425 C 
BRANCH  39  40
HETATM   40  N4  UNL     1      14.123  29.495  42.034  1.00  0.00    -0.035 N 
ATOM     41  H43 UNL     1      14.270  30.196  42.761  1.00  0.00     0.279 HD
ATOM     42  H42 UNL     1      15.045  29.553  41.604  1.00  0.00     0.279 HD
ATOM     43  H41 UNL     1      13.369  29.741  41.392  1.00  0.00     0.279 HD
ENDBRANCH  39  40
BRANCH  39  44
HETATM   44  O1  UNL     1      14.431  28.082  43.833  1.00  0.00    -0.355 OA
ATOM     45  H1  UNL     1      13.910  28.449  44.537  1.00  0.00     0.213 HD
ENDBRANCH  39  44
ENDBRANCH  37  39
ENDBRANCH   4  37
BRANCH   1  46
HETATM   46  N1  UNL     1      10.370  26.663  39.475  1.00  0.00    -0.234 N 
ATOM     47  H12 UNL     1      10.012  27.508  39.920  1.00  0.00     0.174 HD
ATOM     48  H11 UNL     1       9.901  26.199  38.698  1.00  0.00     0.174 HD
ENDBRANCH   1  46
TORSDOF 10
ENDMDL
MODEL 2
REMARK VINA RESULT: -6.899263624      1.254      1.767
REMARK  10 active torsions:
REMARK  status: ('A' for Active; 'I' for Inactive)
REMARK    1  A    between atoms: N1_1  and  C1_4 
REMARK    2  A    between atoms: C2_7  and  N3_8 
REMARK    3  A    between atoms: N3_8  and  C3_10 
REMARK    4  A    between atoms: C3_10  and  N4_11 
REMARK    5  A    between atoms: C3_10  and  O1_15 
REMARK    6  A    between atoms: C5_18  and  N5_19 
REMARK    7  A    between atoms: C6_24  and  C7_25 
REMARK    8  A    between atoms: C9_30  and  N10_31 
REMARK    9  A    between atoms: N10_31  and  N11_33 
REMARK   10  A    between atoms: C11_39  and  C12_40 
ROOT
HETATM    1  C1  UNL     1      11.580  26.108  39.818  1.00  0.00     0.679 A 
HETATM    2  N2  UNL     1      12.447  26.927  40.418  1.00  0.00    -0.176 N 
ATOM      3  H2  UNL     1      12.223  27.916  40.535  1.00  0.00     0.186 HD
HETATM    4  C2  UNL     1      13.637  26.433  40.876  1.00  0.00     0.136 A 
HETATM    5  C4  UNL     1      13.955  25.100  40.727  1.00  0.00     0.084 A 
HETATM    6  C5  UNL     1      15.124  24.569  41.177  1.00  0.00     0.106 A 
HETATM    7  C9  UNL     1      15.331  23.192  40.978  1.00  0.00     0.095 A 
HETATM    8  C13 UNL     1      14.336  22.450  40.336  1.00  0.00     0.123 A 
HETATM    9  N15 UNL     1      13.212  23.013  39.914  1.00  0.00    -0.349 N 
ATOM     10  H15 UNL     1      12.510  22.437  39.450  1.00  0.00     0.167 HD
HETATM   11  C14 UNL     1      12.975  24.331  40.086  1.00  0.00     0.137 A 
HETATM   12  N16 UNL     1      11.808  24.819  39.636  1.00  0.00    -0.176 N 
ATOM     13  H16 UNL     1      11.125  24.218  39.173  1.00  0.00     0.186 HD
ENDROOT
BRANCH   7  14
HETATM   14  N10 UNL     1      16.473  22.556  41.478  1.00  0.00    -0.274 N 
ATOM     15  H10 UNL     1      17.367  22.872  41.104  1.00  0.00     0.189 HD
BRANCH  14  16
HETATM   16  N11 UNL     1      16.527  21.536  42.431  1.00  0.00    -0.173 N 
HETATM   17  N12 UNL     1      16.217  21.671  43.709  1.00  0.00    -0.273 N 
HETATM   18  C10 UNL     1      16.362  20.537  44.362  1.00  0.00     0.201 A 
ATOM     19  H12 UNL     1      15.906  22.544  44.135  1.00  0.00     0.190 HD
HETATM   20  N13 UNL     1      16.780  19.650  43.461  1.00  0.00    -0.331 N 
HETATM   21  C11 UNL     1      16.886  20.256  42.258  1.00  0.00     0.211 A 
ATOM     22  H13 UNL     1      16.987  18.668  43.648  1.00  0.00     0.168 HD
BRANCH  21  23
HETATM   23  C12 UNL     1      17.320  19.578  41.016  1.00  0.00     0.302 C 
HETATM   24  N14 UNL     1      16.322  19.376  39.999  1.00  0.00    -0.054 NA
HETATM   25  O3  UNL     1      18.456  19.175  40.780  1.00  0.00    -0.268 OA
ENDBRANCH  21  23
ENDBRANCH  14  16
ENDBRANCH   7  14
BRANCH   6  26
HETATM   26  N5  UNL     1      16.104  25.317  41.873  1.00  0.00    -0.222 N 
HETATM   27  N6  UNL     1      17.098  26.095  41.545  1.00  0.00    -0.234 N 
HETATM   28  N7  UNL     1      17.782  26.512  42.592  1.00  0.00    -0.278 N 
ATOM     29  H6  UNL     1      17.321  26.353  40.583  1.00  0.00     0.209 HD
HETATM   30  C6  UNL     1      17.208  25.982  43.674  1.00  0.00     0.157 A 
ATOM     31  H7  UNL     1      18.597  27.124  42.579  1.00  0.00     0.189 HD
HETATM   32  C8  UNL     1      16.151  25.230  43.237  1.00  0.00     0.173 A 
HETATM   33  N9  UNL     1      15.255  24.481  44.092  1.00  0.00    -0.078 NA
BRANCH  30  34
HETATM   34  C7  UNL     1      17.597  26.147  45.079  1.00  0.00     0.286 C 
HETATM   35  N8  UNL     1      16.833  27.036  45.893  1.00  0.00    -0.056 NA
HETATM   36  O2  UNL     1      18.567  25.532  45.552  1.00  0.00    -0.269 OA
ENDBRANCH  30  34
ENDBRANCH   6  26
BRANCH   4  37
HETATM   37  N3  UNL     1      14.449  27.220  41.467  1.00  0.00    -0.327 N 
ATOM     38  H3  UNL     1      15.449  27.135  41.283  1.00  0.00     0.165 HD
BRANCH  37  39
HETATM   39  C3  UNL     1      13.990  28.221  42.384  1.00  0.00     0.425 C 
BRANCH  39  40
HETATM   40  N4  UNL     1      14.392  29.526  41.855  1.00  0.00    -0.035 N 
ATOM     41  H43 UNL     1      14.786  30.140  42.568  1.00  0.00     0.279 HD
ATOM     42  H42 UNL     1      15.215  29.474  41.254  1.00  0.00     0.279 HD
ATOM     43  H41 UNL     1      13.583  29.932  41.384  1.00  0.00     0.279 HD
ENDBRANCH  39  40
BRANCH  39  44
HETATM   44  O1  UNL     1      14.528  28.105  43.668  1.00  0.00    -0.355 OA
ATOM     45  H1  UNL     1      13.910  27.796  44.320  1.00  0.00     0.213 HD
ENDBRANCH  39  44
ENDBRANCH  37  39
ENDBRANCH   4  37
BRANCH   1  46
HETATM   46  N1  UNL     1      10.469  26.633  39.404  1.00  0.00    -0.234 N 
ATOM     47  H12 UNL     1       9.803  27.010  40.078  1.00  0.00     0.174 HD
ATOM     48  H11 UNL     1      10.312  26.644  38.396  1.00  0.00     0.174 HD
ENDBRANCH   1  46
TORSDOF 10
ENDMDL
MODEL 3
REMARK VINA RESULT: -6.689997770      2.791      4.834
REMARK  10 active torsions:
REMARK  status: ('A' for Active; 'I' for Inactive)
REMARK    1  A    between atoms: N1_1  and  C1_4 
REMARK    2  A    between atoms: C2_7  and  N3_8 
REMARK    3  A    between atoms: N3_8  and  C3_10 
REMARK    4  A    between atoms: C3_10  and  N4_11 
REMARK    5  A    between atoms: C3_10  and  O1_15 
REMARK    6  A    between atoms: C5_18  and  N5_19 
REMARK    7  A    between atoms: C6_24  and  C7_25 
REMARK    8  A    between atoms: C9_30  and  N10_31 
REMARK    9  A    between atoms: N10_31  and  N11_33 
REMARK   10  A    between atoms: C11_39  and  C12_40 
ROOT
HETATM    1  C1  UNL     1      13.355  26.870  45.967  1.00  0.00     0.679 A 
HETATM    2  N2  UNL     1      12.447  26.936  44.990  1.00  0.00    -0.176 N 
ATOM      3  H2  UNL     1      11.638  27.552  45.081  1.00  0.00     0.186 HD
HETATM    4  C2  UNL     1      12.607  26.175  43.865  1.00  0.00     0.136 A 
HETATM    5  C4  UNL     1      13.695  25.339  43.724  1.00  0.00     0.084 A 
HETATM    6  C5  UNL     1      13.894  24.575  42.617  1.00  0.00     0.106 A 
HETATM    7  C9  UNL     1      15.047  23.769  42.583  1.00  0.00     0.095 A 
HETATM    8  C13 UNL     1      15.919  23.799  43.676  1.00  0.00     0.123 A 
HETATM    9  N15 UNL     1      15.681  24.562  44.734  1.00  0.00    -0.349 N 
ATOM     10  H15 UNL     1      16.341  24.555  45.511  1.00  0.00     0.167 HD
HETATM   11  C14 UNL     1      14.585  25.348  44.806  1.00  0.00     0.137 A 
HETATM   12  N16 UNL     1      14.425  26.095  45.910  1.00  0.00    -0.176 N 
ATOM     13  H16 UNL     1      15.101  26.066  46.673  1.00  0.00     0.186 HD
ENDROOT
BRANCH   7  14
HETATM   14  N10 UNL     1      15.364  23.012  41.450  1.00  0.00    -0.274 N 
ATOM     15  H10 UNL     1      14.634  22.389  41.104  1.00  0.00     0.189 HD
BRANCH  14  16
HETATM   16  N11 UNL     1      16.566  23.011  40.738  1.00  0.00    -0.173 N 
HETATM   17  N12 UNL     1      17.264  24.089  40.424  1.00  0.00    -0.273 N 
HETATM   18  C10 UNL     1      18.353  23.777  39.753  1.00  0.00     0.201 A 
ATOM     19  H12 UNL     1      16.993  25.041  40.671  1.00  0.00     0.190 HD
HETATM   20  N13 UNL     1      18.343  22.450  39.638  1.00  0.00    -0.331 N 
HETATM   21  C11 UNL     1      17.239  21.963  40.245  1.00  0.00     0.211 A 
ATOM     22  H13 UNL     1      19.054  21.891  39.167  1.00  0.00     0.168 HD
BRANCH  21  23
HETATM   23  C12 UNL     1      16.893  20.525  40.322  1.00  0.00     0.302 C 
HETATM   24  N14 UNL     1      17.944  19.620  40.707  1.00  0.00    -0.054 NA
HETATM   25  O3  UNL     1      15.790  20.041  40.085  1.00  0.00    -0.268 OA
ENDBRANCH  21  23
ENDBRANCH  14  16
ENDBRANCH   7  14
BRANCH   6  26
HETATM   26  N5  UNL     1      13.035  24.591  41.492  1.00  0.00    -0.222 N 
HETATM   27  N6  UNL     1      11.899  24.035  41.172  1.00  0.00    -0.234 N 
HETATM   28  N7  UNL     1      11.529  24.316  39.938  1.00  0.00    -0.278 N 
ATOM     29  H6  UNL     1      11.357  23.449  41.807  1.00  0.00     0.209 HD
HETATM   30  C6  UNL     1      12.470  25.103  39.412  1.00  0.00     0.157 A 
ATOM     31  H7  UNL     1      10.681  23.994  39.472  1.00  0.00     0.189 HD
HETATM   32  C8  UNL     1      13.423  25.284  40.379  1.00  0.00     0.173 A 
HETATM   33  N9  UNL     1      14.623  26.077  40.223  1.00  0.00    -0.078 NA
BRANCH  30  34
HETATM   34  C7  UNL     1      12.517  25.685  38.067  1.00  0.00     0.286 C 
HETATM   35  N8  UNL     1      11.673  26.800  37.782  1.00  0.00    -0.056 NA
HETATM   36  O2  UNL     1      13.270  25.222  37.194  1.00  0.00    -0.269 OA
ENDBRANCH  30  34
ENDBRANCH   6  26
BRANCH   4  37
HETATM   37  N3  UNL     1      11.745  26.263  42.929  1.00  0.00    -0.327 N 
ATOM     38  H3  UNL     1      11.332  25.410  42.551  1.00  0.00     0.165 HD
BRANCH  37  39
HETATM   39  C3  UNL     1      11.343  27.531  42.395  1.00  0.00     0.425 C 
BRANCH  39  40
HETATM   40  N4  UNL     1      10.174  27.303  41.543  1.00  0.00    -0.035 N 
ATOM     41  H43 UNL     1       9.888  26.324  41.515  1.00  0.00     0.279 HD
ATOM     42  H42 UNL     1       9.315  27.683  41.939  1.00  0.00     0.279 HD
ATOM     43  H41 UNL     1      10.386  27.681  40.619  1.00  0.00     0.279 HD
ENDBRANCH  39  40
BRANCH  39  44
HETATM   44  O1  UNL     1      12.319  28.152  41.612  1.00  0.00    -0.355 OA
ATOM     45  H1  UNL     1      13.199  28.082  41.963  1.00  0.00     0.213 HD
ENDBRANCH  39  44
ENDBRANCH  37  39
ENDBRANCH   4  37
BRANCH   1  46
HETATM   46  N1  UNL     1      13.150  27.613  47.008  1.00  0.00    -0.234 N 
ATOM     47  H12 UNL     1      13.327  28.616  46.961  1.00  0.00     0.174 HD
ATOM     48  H11 UNL     1      12.812  27.144  47.849  1.00  0.00     0.174 HD
ENDBRANCH   1  46
TORSDOF 10
ENDMDL
MODEL 4
REMARK VINA RESULT: -6.593602862      2.362      6.274
REMARK  10 active torsions:
REMARK  status: ('A' for Active; 'I' for Inactive)
REMARK    1  A    between atoms: N1_1  and  C1_4 
REMARK    2  A    between atoms: C2_7  and  N3_8 
REMARK    3  A    between atoms: N3_8  and  C3_10 
REMARK    4  A    between atoms: C3_10  and  N4_11 
REMARK    5  A    between atoms: C3_10  and  O1_15 
REMARK    6  A    between atoms: C5_18  and  N5_19 
REMARK    7  A    between atoms: C6_24  and  C7_25 
REMARK    8  A    between atoms: C9_30  and  N10_31 
REMARK    9  A    between atoms: N10_31  and  N11_33 
REMARK   10  A    between atoms: C11_39  and  C12_40 
ROOT
HETATM    1  C1  UNL     1      16.242  20.226  43.940  1.00  0.00     0.679 A 
HETATM    2  N2  UNL     1      16.782  20.928  42.940  1.00  0.00    -0.176 N 
ATOM      3  H2  UNL     1      17.534  20.527  42.379  1.00  0.00     0.186 HD
HETATM    4  C2  UNL     1      16.320  22.187  42.672  1.00  0.00     0.136 A 
HETATM    5  C4  UNL     1      15.304  22.743  43.419  1.00  0.00     0.084 A 
HETATM    6  C5  UNL     1      14.811  23.988  43.177  1.00  0.00     0.106 A 
HETATM    7  C9  UNL     1      13.765  24.443  43.999  1.00  0.00     0.095 A 
HETATM    8  C13 UNL     1      13.290  23.602  45.010  1.00  0.00     0.123 A 
HETATM    9  N15 UNL     1      13.803  22.395  45.207  1.00  0.00    -0.349 N 
ATOM     10  H15 UNL     1      13.429  21.811  45.955  1.00  0.00     0.167 HD
HETATM   11  C14 UNL     1      14.809  21.921  44.440  1.00  0.00     0.137 A 
HETATM   12  N16 UNL     1      15.264  20.686  44.703  1.00  0.00    -0.176 N 
ATOM     13  H16 UNL     1      14.872  20.125  45.460  1.00  0.00     0.186 HD
ENDROOT
BRANCH   7  14
HETATM   14  N10 UNL     1      13.153  25.680  43.768  1.00  0.00    -0.274 N 
ATOM     15  H10 UNL     1      13.725  26.507  43.938  1.00  0.00     0.189 HD
BRANCH  14  16
HETATM   16  N11 UNL     1      11.847  25.913  43.330  1.00  0.00    -0.173 N 
HETATM   17  N12 UNL     1      10.752  25.552  43.977  1.00  0.00    -0.273 N 
HETATM   18  C10 UNL     1       9.667  25.908  43.322  1.00  0.00     0.201 A 
ATOM     19  H12 UNL     1      10.749  25.061  44.871  1.00  0.00     0.190 HD
HETATM   20  N13 UNL     1      10.093  26.517  42.216  1.00  0.00    -0.331 N 
HETATM   21  C11 UNL     1      11.443  26.526  42.209  1.00  0.00     0.211 A 
ATOM     22  H13 UNL     1       9.495  26.912  41.491  1.00  0.00     0.168 HD
BRANCH  21  23
HETATM   23  C12 UNL     1      12.269  27.124  41.135  1.00  0.00     0.302 C 
HETATM   24  N14 UNL     1      13.465  27.815  41.539  1.00  0.00    -0.054 NA
HETATM   25  O3  UNL     1      12.020  27.082  39.933  1.00  0.00    -0.268 OA
ENDBRANCH  21  23
ENDBRANCH  14  16
ENDBRANCH   7  14
BRANCH   6  26
HETATM   26  N5  UNL     1      15.261  24.813  42.118  1.00  0.00    -0.222 N 
HETATM   27  N6  UNL     1      14.921  25.011  40.875  1.00  0.00    -0.234 N 
HETATM   28  N7  UNL     1      15.720  25.862  40.261  1.00  0.00    -0.278 N 
ATOM     29  H6  UNL     1      14.125  24.557  40.427  1.00  0.00     0.209 HD
HETATM   30  C6  UNL     1      16.638  26.251  41.148  1.00  0.00     0.157 A 
ATOM     31  H7  UNL     1      15.650  26.167  39.291  1.00  0.00     0.189 HD
HETATM   32  C8  UNL     1      16.361  25.599  42.320  1.00  0.00     0.173 A 
HETATM   33  N9  UNL     1      17.119  25.738  43.546  1.00  0.00    -0.078 NA
BRANCH  30  34
HETATM   34  C7  UNL     1      17.746  27.191  40.952  1.00  0.00     0.286 C 
HETATM   35  N8  UNL     1      19.075  26.732  41.200  1.00  0.00    -0.056 NA
HETATM   36  O2  UNL     1      17.540  28.359  40.581  1.00  0.00    -0.269 OA
ENDBRANCH  30  34
ENDBRANCH   6  26
BRANCH   4  37
HETATM   37  N3  UNL     1      16.829  22.839  41.701  1.00  0.00    -0.327 N 
ATOM     38  H3  UNL     1      17.070  23.822  41.834  1.00  0.00     0.165 HD
BRANCH  37  39
HETATM   39  C3  UNL     1      17.070  22.226  40.428  1.00  0.00     0.425 C 
BRANCH  39  40
HETATM   40  N4  UNL     1      17.988  23.093  39.685  1.00  0.00    -0.035 N 
ATOM     41  H43 UNL     1      17.998  22.894  38.684  1.00  0.00     0.279 HD
ATOM     42  H42 UNL     1      17.663  24.057  39.627  1.00  0.00     0.279 HD
ATOM     43  H41 UNL     1      18.909  23.009  40.116  1.00  0.00     0.279 HD
ENDBRANCH  39  40
BRANCH  39  44
HETATM   44  O1  UNL     1      15.922  22.063  39.650  1.00  0.00    -0.355 OA
ATOM     45  H1  UNL     1      15.435  22.866  39.507  1.00  0.00     0.213 HD
ENDBRANCH  39  44
ENDBRANCH  37  39
ENDBRANCH   4  37
BRANCH   1  46
HETATM   46  N1  UNL     1      16.720  19.040  44.148  1.00  0.00    -0.234 N 
ATOM     47  H12 UNL     1      16.113  18.224  44.061  1.00  0.00     0.174 HD
ATOM     48  H11 UNL     1      17.708  18.978  44.395  1.00  0.00     0.174 HD
ENDBRANCH   1  46
TORSDOF 10
ENDMDL
MODEL 5
REMARK VINA RESULT: -6.512304737      2.400      7.016
REMARK  10 active torsions:
REMARK  status: ('A' for Active; 'I' for Inactive)
REMARK    1  A    between atoms: N1_1  and  C1_4 
REMARK    2  A    between atoms: C2_7  and  N3_8 
REMARK    3  A    between atoms: N3_8  and  C3_10 
REMARK    4  A    between atoms: C3_10  and  N4_11 
REMARK    5  A    between atoms: C3_10  and  O1_15 
REMARK    6  A    between atoms: C5_18  and  N5_19 
REMARK    7  A    between atoms: C6_24  and  C7_25 
REMARK    8  A    between atoms: C9_30  and  N10_31 
REMARK    9  A    between atoms: N10_31  and  N11_33 
REMARK   10  A    between atoms: C11_39  and  C12_40 
ROOT
HETATM    1  C1  UNL     1      16.449  20.384  44.085  1.00  0.00     0.679 A 
HETATM    2  N2  UNL     1      16.052  20.727  42.856  1.00  0.00    -0.176 N 
ATOM      3  H2  UNL     1      15.944  20.014  42.134  1.00  0.00     0.186 HD
HETATM    4  C2  UNL     1      15.789  22.038  42.572  1.00  0.00     0.136 A 
HETATM    5  C4  UNL     1      15.928  23.014  43.536  1.00  0.00     0.084 A 
HETATM    6  C5  UNL     1      15.667  24.327  43.296  1.00  0.00     0.106 A 
HETATM    7  C9  UNL     1      15.834  25.229  44.362  1.00  0.00     0.095 A 
HETATM    8  C13 UNL     1      16.253  24.733  45.600  1.00  0.00     0.123 A 
HETATM    9  N15 UNL     1      16.495  23.443  45.786  1.00  0.00    -0.349 N 
ATOM     10  H15 UNL     1      16.799  23.121  46.705  1.00  0.00     0.167 HD
HETATM   11  C14 UNL     1      16.348  22.545  44.789  1.00  0.00     0.137 A 
HETATM   12  N16 UNL     1      16.606  21.257  45.065  1.00  0.00    -0.176 N 
ATOM     13  H16 UNL     1      16.912  20.965  45.993  1.00  0.00     0.186 HD
ENDROOT
BRANCH   7  14
HETATM   14  N10 UNL     1      15.514  26.583  44.217  1.00  0.00    -0.274 N 
ATOM     15  H10 UNL     1      16.299  27.234  44.203  1.00  0.00     0.189 HD
BRANCH  14  16
HETATM   16  N11 UNL     1      14.242  27.146  44.090  1.00  0.00    -0.173 N 
HETATM   17  N12 UNL     1      13.168  26.758  44.756  1.00  0.00    -0.273 N 
HETATM   18  C10 UNL     1      12.114  27.475  44.429  1.00  0.00     0.201 A 
ATOM     19  H12 UNL     1      13.158  25.998  45.436  1.00  0.00     0.190 HD
HETATM   20  N13 UNL     1      12.538  28.352  43.521  1.00  0.00    -0.331 N 
HETATM   21  C11 UNL     1      13.856  28.159  43.301  1.00  0.00     0.211 A 
ATOM     22  H13 UNL     1      11.959  29.057  43.064  1.00  0.00     0.168 HD
BRANCH  21  23
HETATM   23  C12 UNL     1      14.672  28.954  42.355  1.00  0.00     0.302 C 
HETATM   24  N14 UNL     1      15.770  28.282  41.714  1.00  0.00    -0.054 NA
HETATM   25  O3  UNL     1      14.491  30.136  42.073  1.00  0.00    -0.268 OA
ENDBRANCH  21  23
ENDBRANCH  14  16
ENDBRANCH   7  14
BRANCH   6  26
HETATM   26  N5  UNL     1      15.192  24.813  42.053  1.00  0.00    -0.222 N 
HETATM   27  N6  UNL     1      15.722  25.372  41.001  1.00  0.00    -0.234 N 
HETATM   28  N7  UNL     1      14.820  25.718  40.103  1.00  0.00    -0.278 N 
ATOM     29  H6  UNL     1      16.724  25.524  40.885  1.00  0.00     0.209 HD
HETATM   30  C6  UNL     1      13.627  25.367  40.587  1.00  0.00     0.157 A 
ATOM     31  H7  UNL     1      15.000  26.169  39.207  1.00  0.00     0.189 HD
HETATM   32  C8  UNL     1      13.847  24.796  41.812  1.00  0.00     0.173 A 
HETATM   33  N9  UNL     1      12.814  24.274  42.681  1.00  0.00    -0.078 NA
BRANCH  30  34
HETATM   34  C7  UNL     1      12.311  25.538  39.964  1.00  0.00     0.286 C 
HETATM   35  N8  UNL     1      11.736  26.845  39.946  1.00  0.00    -0.056 NA
HETATM   36  O2  UNL     1      11.706  24.574  39.466  1.00  0.00    -0.269 OA
ENDBRANCH  30  34
ENDBRANCH   6  26
BRANCH   4  37
HETATM   37  N3  UNL     1      15.389  22.351  41.402  1.00  0.00    -0.327 N 
ATOM     38  H3  UNL     1      14.653  23.049  41.298  1.00  0.00     0.165 HD
BRANCH  37  39
HETATM   39  C3  UNL     1      15.949  21.745  40.230  1.00  0.00     0.425 C 
BRANCH  39  40
HETATM   40  N4  UNL     1      17.183  22.465  39.905  1.00  0.00    -0.035 N 
ATOM     41  H43 UNL     1      17.228  22.752  38.927  1.00  0.00     0.279 HD
ATOM     42  H42 UNL     1      17.220  23.395  40.320  1.00  0.00     0.279 HD
ATOM     43  H41 UNL     1      17.967  21.875  40.182  1.00  0.00     0.279 HD
ENDBRANCH  39  40
BRANCH  39  44
HETATM   44  O1  UNL     1      15.119  21.805  39.108  1.00  0.00    -0.355 OA
ATOM     45  H1  UNL     1      14.746  20.968  38.859  1.00  0.00     0.213 HD
ENDBRANCH  39  44
ENDBRANCH  37  39
ENDBRANCH   4  37
BRANCH   1  46
HETATM   46  N1  UNL     1      16.684  19.127  44.295  1.00  0.00    -0.234 N 
ATOM     47  H12 UNL     1      16.465  18.441  43.573  1.00  0.00     0.174 HD
ATOM     48  H11 UNL     1      17.088  18.878  45.198  1.00  0.00     0.174 HD
ENDBRANCH   1  46
TORSDOF 10
ENDMDL
