MODEL 1
REMARK VINA RESULT: -5.885121425      0.000      0.000
REMARK  12 active torsions:
REMARK  status: ('A' for Active; 'I' for Inactive)
REMARK    1  A    between atoms: O1_2  and  C2_3 
REMARK    2  A    between atoms: C5_12  and  O4_13 
REMARK    3  A    between atoms: C9_18  and  O5_19 
REMARK    4  A    between atoms: O5_19  and  C10_20 
REMARK    5  A    between atoms: C12_23  and  O7_24 
REMARK    6  A    between atoms: C13_26  and  O8_27 
REMARK    7  A    between atoms: C13_26  and  C14_29 
REMARK    8  A    between atoms: C14_29  and  O9_30 
REMARK    9  A    between atoms: C14_29  and  C15_32 
REMARK   10  A    between atoms: C15_32  and  O10_33 
REMARK   11  A    between atoms: C15_32  and  C16_35 
REMARK   12  A    between atoms: C16_35  and  O11_37 
ROOT
HETATM    1  C2  UNL     1      13.521  26.137  41.754  1.00  0.00     0.254 C 
HETATM    2  N1  UNL     1      14.907  26.205  41.650  1.00  0.00    -0.284 N 
ATOM      3  H1  UNL     1      15.371  26.957  42.160  1.00  0.00     0.185 HD
HETATM    4  N2  UNL     1      15.676  25.393  40.959  1.00  0.00    -0.296 N 
ATOM      5  H2  UNL     1      16.413  25.695  40.323  1.00  0.00     0.183 HD
HETATM    6  C3  UNL     1      15.339  24.022  41.223  1.00  0.00     0.228 C 
HETATM    7  O2  UNL     1      16.479  23.128  41.155  1.00  0.00    -0.279 OA
HETATM    8  C4  UNL     1      15.801  22.389  42.149  1.00  0.00     0.301 C 
HETATM    9  O3  UNL     1      15.726  21.181  42.443  1.00  0.00    -0.261 OA
HETATM   10  C5  UNL     1      15.281  23.688  42.614  1.00  0.00     0.203 C 
HETATM   11  C6  UNL     1      14.026  23.730  43.389  1.00  0.00     0.034 C 
HETATM   12  C7  UNL     1      14.292  22.781  44.595  1.00  0.00     0.014 C 
HETATM   13  C8  UNL     1      13.900  25.082  44.009  1.00  0.00     0.047 C 
HETATM   14  C9  UNL     1      13.154  26.126  43.225  1.00  0.00     0.211 C 
HETATM   15  C12 UNL     1      14.393  23.591  40.161  1.00  0.00     0.237 C 
HETATM   16  C13 UNL     1      13.067  24.248  40.149  1.00  0.00     0.191 C 
HETATM   17  N3  UNL     1      12.786  25.112  41.199  1.00  0.00    -0.336 N 
ATOM     18  H3  UNL     1      11.876  24.961  41.636  1.00  0.00     0.161 HD
ENDROOT
BRANCH  16  19
HETATM   19  O8  UNL     1      12.128  23.183  40.278  1.00  0.00    -0.366 OA
ATOM     20  H8  UNL     1      11.287  23.571  40.066  1.00  0.00     0.212 HD
ENDBRANCH  16  19
BRANCH  16  21
HETATM   21  C14 UNL     1      12.649  24.897  38.840  1.00  0.00     0.207 C 
BRANCH  21  22
HETATM   22  O9  UNL     1      13.375  26.182  38.835  1.00  0.00    -0.388 OA
ATOM     23  H9  UNL     1      13.711  26.250  37.949  1.00  0.00     0.210 HD
ENDBRANCH  21  22
BRANCH  21  24
HETATM   24  C15 UNL     1      11.244  25.413  38.760  1.00  0.00     0.180 C 
BRANCH  24  25
HETATM   25  O10 UNL     1      11.373  26.811  39.165  1.00  0.00    -0.390 OA
ATOM     26  H10 UNL     1      11.020  26.818  40.047  1.00  0.00     0.210 HD
ENDBRANCH  24  25
BRANCH  24  27
HETATM   27  C16 UNL     1      10.605  25.540  37.426  1.00  0.00     0.145 C 
HETATM   28  C17 UNL     1       9.627  26.695  37.429  1.00  0.00     0.042 C 
BRANCH  27  29
HETATM   29  O11 UNL     1       9.749  24.383  37.330  1.00  0.00    -0.393 OA
ATOM     30  H11 UNL     1       8.870  24.744  37.304  1.00  0.00     0.210 HD
ENDBRANCH  27  29
ENDBRANCH  24  27
ENDBRANCH  21  24
ENDBRANCH  16  21
BRANCH  15  31
HETATM   31  O7  UNL     1      14.356  22.203  40.077  1.00  0.00    -0.385 OA
ATOM     32  H7  UNL     1      14.192  21.929  39.183  1.00  0.00     0.210 HD
ENDBRANCH  15  31
BRANCH   1  33
HETATM   33  O1  UNL     1      13.030  27.314  41.206  1.00  0.00    -0.346 OA
HETATM   34  C1  UNL     1      13.373  28.490  41.777  1.00  0.00     0.207 C 
ENDBRANCH   1  33
BRANCH  10  35
HETATM   35  O4  UNL     1      16.309  24.311  43.354  1.00  0.00    -0.375 OA
ATOM     36  H4  UNL     1      16.326  24.021  44.258  1.00  0.00     0.211 HD
ENDBRANCH  10  35
BRANCH  14  37
HETATM   37  O5  UNL     1      11.777  25.907  43.331  1.00  0.00    -0.309 OA
BRANCH  37  38
HETATM   38  C10 UNL     1      10.864  26.729  43.932  1.00  0.00     0.255 C 
HETATM   39  C11 UNL     1       9.933  27.544  43.068  1.00  0.00     0.126 C 
HETATM   40  O6  UNL     1      10.815  26.793  45.174  1.00  0.00    -0.266 OA
ENDBRANCH  37  38
ENDBRANCH  14  37
TORSDOF 12
ENDMDL
MODEL 2
REMARK VINA RESULT: -5.756136026      2.052      2.938
REMARK  12 active torsions:
REMARK  status: ('A' for Active; 'I' for Inactive)
REMARK    1  A    between atoms: O1_2  and  C2_3 
REMARK    2  A    between atoms: C5_12  and  O4_13 
REMARK    3  A    between atoms: C9_18  and  O5_19 
REMARK    4  A    between atoms: O5_19  and  C10_20 
REMARK    5  A    between atoms: C12_23  and  O7_24 
REMARK    6  A    between atoms: C13_26  and  O8_27 
REMARK    7  A    between atoms: C13_26  and  C14_29 
REMARK    8  A    between atoms: C14_29  and  O9_30 
REMARK    9  A    between atoms: C14_29  and  C15_32 
REMARK   10  A    between atoms: C15_32  and  O10_33 
REMARK   11  A    between atoms: C15_32  and  C16_35 
REMARK   12  A    between atoms: C16_35  and  O11_37 
ROOT
HETATM    1  C2  UNL     1      10.752  26.344  42.117  1.00  0.00     0.254 C 
HETATM    2  N1  UNL     1      11.566  27.469  42.205  1.00  0.00    -0.284 N 
ATOM      3  H1  UNL     1      11.373  28.120  42.966  1.00  0.00     0.185 HD
HETATM    4  N2  UNL     1      12.561  27.774  41.401  1.00  0.00    -0.296 N 
ATOM      5  H2  UNL     1      12.701  28.690  40.975  1.00  0.00     0.183 HD
HETATM    6  C3  UNL     1      13.424  26.644  41.203  1.00  0.00     0.228 C 
HETATM    7  O2  UNL     1      14.813  27.010  41.009  1.00  0.00    -0.279 OA
HETATM    8  C4  UNL     1      15.097  25.785  41.651  1.00  0.00     0.301 C 
HETATM    9  O3  UNL     1      16.008  24.940  41.561  1.00  0.00    -0.261 OA
HETATM   10  C5  UNL     1      13.858  26.016  42.415  1.00  0.00     0.203 C 
HETATM   11  C6  UNL     1      13.150  24.868  43.012  1.00  0.00     0.034 C 
HETATM   12  C7  UNL     1      14.225  24.181  43.905  1.00  0.00     0.014 C 
HETATM   13  C8  UNL     1      12.145  25.388  43.986  1.00  0.00     0.047 C 
HETATM   14  C9  UNL     1      10.759  25.647  43.465  1.00  0.00     0.211 C 
HETATM   15  C12 UNL     1      12.981  25.966  39.957  1.00  0.00     0.237 C 
HETATM   16  C13 UNL     1      11.640  25.343  39.982  1.00  0.00     0.191 C 
HETATM   17  N3  UNL     1      10.973  25.340  41.200  1.00  0.00    -0.336 N 
ATOM     18  H3  UNL     1      10.577  24.436  41.460  1.00  0.00     0.161 HD
ENDROOT
BRANCH  16  19
HETATM   19  O8  UNL     1      11.868  23.969  39.676  1.00  0.00    -0.366 OA
ATOM     20  H8  UNL     1      11.001  23.595  39.568  1.00  0.00     0.212 HD
ENDBRANCH  16  19
BRANCH  16  21
HETATM   21  C14 UNL     1      10.678  25.768  38.885  1.00  0.00     0.207 C 
BRANCH  21  22
HETATM   22  O9  UNL     1      10.273  24.496  38.257  1.00  0.00    -0.388 OA
ATOM     23  H9  UNL     1      10.001  23.956  38.989  1.00  0.00     0.210 HD
ENDBRANCH  21  22
BRANCH  21  24
HETATM   24  C15 UNL     1      11.274  26.450  37.690  1.00  0.00     0.180 C 
BRANCH  24  25
HETATM   25  O10 UNL     1      11.886  25.352  36.946  1.00  0.00    -0.390 OA
ATOM     26  H10 UNL     1      12.696  25.730  36.624  1.00  0.00     0.210 HD
ENDBRANCH  24  25
BRANCH  24  27
HETATM   27  C16 UNL     1      10.362  27.036  36.676  1.00  0.00     0.145 C 
HETATM   28  C17 UNL     1       9.017  27.334  37.301  1.00  0.00     0.042 C 
BRANCH  27  29
HETATM   29  O11 UNL     1      10.076  25.941  35.781  1.00  0.00    -0.393 OA
ATOM     30  H11 UNL     1       9.224  26.154  35.416  1.00  0.00     0.210 HD
ENDBRANCH  27  29
ENDBRANCH  24  27
ENDBRANCH  21  24
ENDBRANCH  16  21
BRANCH  15  31
HETATM   31  O7  UNL     1      13.993  25.152  39.460  1.00  0.00    -0.385 OA
ATOM     32  H7  UNL     1      13.934  24.281  39.836  1.00  0.00     0.210 HD
ENDBRANCH  15  31
BRANCH   1  33
HETATM   33  O1  UNL     1       9.465  26.809  41.889  1.00  0.00    -0.346 OA
HETATM   34  C1  UNL     1       9.064  27.942  42.508  1.00  0.00     0.207 C 
ENDBRANCH   1  33
BRANCH  10  35
HETATM   35  O4  UNL     1      14.156  26.958  43.424  1.00  0.00    -0.375 OA
ATOM     36  H4  UNL     1      13.679  26.786  44.227  1.00  0.00     0.211 HD
ENDBRANCH  10  35
BRANCH  14  37
HETATM   37  O5  UNL     1      10.066  24.440  43.335  1.00  0.00    -0.309 OA
BRANCH  37  38
HETATM   38  C10 UNL     1       8.986  24.036  44.073  1.00  0.00     0.255 C 
HETATM   39  C11 UNL     1       8.194  25.069  44.836  1.00  0.00     0.126 C 
HETATM   40  O6  UNL     1       8.676  22.832  44.104  1.00  0.00    -0.266 OA
ENDBRANCH  37  38
ENDBRANCH  14  37
TORSDOF 12
ENDMDL
MODEL 3
REMARK VINA RESULT: -5.698928842      1.781      2.233
REMARK  12 active torsions:
REMARK  status: ('A' for Active; 'I' for Inactive)
REMARK    1  A    between atoms: O1_2  and  C2_3 
REMARK    2  A    between atoms: C5_12  and  O4_13 
REMARK    3  A    between atoms: C9_18  and  O5_19 
REMARK    4  A    between atoms: O5_19  and  C10_20 
REMARK    5  A    between atoms: C12_23  and  O7_24 
REMARK    6  A    between atoms: C13_26  and  O8_27 
REMARK    7  A    between atoms: C13_26  and  C14_29 
REMARK    8  A    between atoms: C14_29  and  O9_30 
REMARK    9  A    between atoms: C14_29  and  C15_32 
REMARK   10  A    between atoms: C15_32  and  O10_33 
REMARK   11  A    between atoms: C15_32  and  C16_35 
REMARK   12  A    between atoms: C16_35  and  O11_37 
ROOT
HETATM    1  C2  UNL     1      11.483  26.373  42.085  1.00  0.00     0.254 C 
HETATM    2  N1  UNL     1      12.478  27.290  42.408  1.00  0.00    -0.284 N 
ATOM      3  H1  UNL     1      12.247  27.991  43.113  1.00  0.00     0.185 HD
HETATM    4  N2  UNL     1      13.687  27.342  41.893  1.00  0.00    -0.296 N 
ATOM      5  H2  UNL     1      14.131  28.190  41.543  1.00  0.00     0.183 HD
HETATM    6  C3  UNL     1      14.297  26.042  41.890  1.00  0.00     0.228 C 
HETATM    7  O2  UNL     1      15.735  26.083  42.067  1.00  0.00    -0.279 OA
HETATM    8  C4  UNL     1      15.565  24.846  42.726  1.00  0.00     0.301 C 
HETATM    9  O3  UNL     1      16.257  23.817  42.847  1.00  0.00    -0.261 OA
HETATM   10  C5  UNL     1      14.256  25.370  43.154  1.00  0.00     0.203 C 
HETATM   11  C6  UNL     1      13.182  24.428  43.519  1.00  0.00     0.034 C 
HETATM   12  C7  UNL     1      13.812  23.546  44.636  1.00  0.00     0.014 C 
HETATM   13  C8  UNL     1      12.104  25.188  44.218  1.00  0.00     0.047 C 
HETATM   14  C9  UNL     1      10.990  25.734  43.369  1.00  0.00     0.211 C 
HETATM   15  C12 UNL     1      14.047  25.442  40.554  1.00  0.00     0.237 C 
HETATM   16  C13 UNL     1      12.639  25.135  40.218  1.00  0.00     0.191 C 
HETATM   17  N3  UNL     1      11.700  25.317  41.225  1.00  0.00    -0.336 N 
ATOM     18  H3  UNL     1      11.060  24.533  41.351  1.00  0.00     0.161 HD
ENDROOT
BRANCH  16  19
HETATM   19  O8  UNL     1      12.624  23.736  39.942  1.00  0.00    -0.366 OA
ATOM     20  H8  UNL     1      11.704  23.507  39.890  1.00  0.00     0.212 HD
ENDBRANCH  16  19
BRANCH  16  21
HETATM   21  C14 UNL     1      12.108  25.730  38.925  1.00  0.00     0.207 C 
BRANCH  21  22
HETATM   22  O9  UNL     1      11.867  27.147  39.260  1.00  0.00    -0.388 OA
ATOM     23  H9  UNL     1      12.735  27.490  39.438  1.00  0.00     0.210 HD
ENDBRANCH  21  22
BRANCH  21  24
HETATM   24  C15 UNL     1      10.719  25.337  38.520  1.00  0.00     0.180 C 
BRANCH  24  25
HETATM   25  O10 UNL     1       9.905  26.465  38.968  1.00  0.00    -0.390 OA
ATOM     26  H10 UNL     1       9.977  27.086  38.253  1.00  0.00     0.210 HD
ENDBRANCH  24  25
BRANCH  24  27
HETATM   27  C16 UNL     1      10.388  25.278  37.074  1.00  0.00     0.145 C 
HETATM   28  C17 UNL     1       9.574  26.492  36.680  1.00  0.00     0.042 C 
BRANCH  27  29
HETATM   29  O11 UNL     1       9.437  24.197  36.972  1.00  0.00    -0.393 OA
ATOM     30  H11 UNL     1       9.575  23.846  36.100  1.00  0.00     0.210 HD
ENDBRANCH  27  29
ENDBRANCH  24  27
ENDBRANCH  21  24
ENDBRANCH  16  21
BRANCH  15  31
HETATM   31  O7  UNL     1      14.943  24.409  40.309  1.00  0.00    -0.385 OA
ATOM     32  H7  UNL     1      15.547  24.649  39.616  1.00  0.00     0.210 HD
ENDBRANCH  15  31
BRANCH   1  33
HETATM   33  O1  UNL     1      10.434  27.106  41.549  1.00  0.00    -0.346 OA
HETATM   34  C1  UNL     1       9.794  27.997  42.339  1.00  0.00     0.207 C 
ENDBRANCH   1  33
BRANCH  10  35
HETATM   35  O4  UNL     1      14.490  26.252  44.232  1.00  0.00    -0.375 OA
ATOM     36  H4  UNL     1      13.838  26.941  44.280  1.00  0.00     0.211 HD
ENDBRANCH  10  35
BRANCH  14  37
HETATM   37  O5  UNL     1      10.102  24.708  43.033  1.00  0.00    -0.309 OA
BRANCH  37  38
HETATM   38  C10 UNL     1       9.056  24.254  43.790  1.00  0.00     0.255 C 
HETATM   39  C11 UNL     1       7.886  25.172  44.045  1.00  0.00     0.126 C 
HETATM   40  O6  UNL     1       9.085  23.100  44.254  1.00  0.00    -0.266 OA
ENDBRANCH  37  38
ENDBRANCH  14  37
TORSDOF 12
ENDMDL
MODEL 4
REMARK VINA RESULT: -5.610082137      2.413      5.054
REMARK  12 active torsions:
REMARK  status: ('A' for Active; 'I' for Inactive)
REMARK    1  A    between atoms: O1_2  and  C2_3 
REMARK    2  A    between atoms: C5_12  and  O4_13 
REMARK    3  A    between atoms: C9_18  and  O5_19 
REMARK    4  A    between atoms: O5_19  and  C10_20 
REMARK    5  A    between atoms: C12_23  and  O7_24 
REMARK    6  A    between atoms: C13_26  and  O8_27 
REMARK    7  A    between atoms: C13_26  and  C14_29 
REMARK    8  A    between atoms: C14_29  and  O9_30 
REMARK    9  A    between atoms: C14_29  and  C15_32 
REMARK   10  A    between atoms: C15_32  and  O10_33 
REMARK   11  A    between atoms: C15_32  and  C16_35 
REMARK   12  A    between atoms: C16_35  and  O11_37 
ROOT
HETATM    1  C2  UNL     1      13.539  26.466  41.417  1.00  0.00     0.254 C 
HETATM    2  N1  UNL     1      13.475  25.930  42.699  1.00  0.00    -0.284 N 
ATOM      3  H1  UNL     1      12.545  25.802  43.100  1.00  0.00     0.185 HD
HETATM    4  N2  UNL     1      14.497  25.572  43.446  1.00  0.00    -0.296 N 
ATOM      5  H2  UNL     1      14.619  25.834  44.424  1.00  0.00     0.183 HD
HETATM    6  C3  UNL     1      15.420  24.765  42.697  1.00  0.00     0.228 C 
HETATM    7  O2  UNL     1      16.096  23.769  43.504  1.00  0.00    -0.279 OA
HETATM    8  C4  UNL     1      16.087  22.989  42.327  1.00  0.00     0.301 C 
HETATM    9  O3  UNL     1      16.849  22.134  41.839  1.00  0.00    -0.261 OA
HETATM   10  C5  UNL     1      14.814  23.662  42.013  1.00  0.00     0.203 C 
HETATM   11  C6  UNL     1      14.366  23.747  40.610  1.00  0.00     0.034 C 
HETATM   12  C7  UNL     1      14.337  22.266  40.130  1.00  0.00     0.014 C 
HETATM   13  C8  UNL     1      12.932  24.163  40.597  1.00  0.00     0.047 C 
HETATM   14  C9  UNL     1      12.649  25.637  40.511  1.00  0.00     0.211 C 
HETATM   15  C12 UNL     1      16.470  25.674  42.169  1.00  0.00     0.237 C 
HETATM   16  C13 UNL     1      16.039  26.676  41.169  1.00  0.00     0.191 C 
HETATM   17  N3  UNL     1      14.725  26.594  40.726  1.00  0.00    -0.336 N 
ATOM     18  H3  UNL     1      14.619  26.635  39.712  1.00  0.00     0.161 HD
ENDROOT
BRANCH  16  19
HETATM   19  O8  UNL     1      16.839  26.415  40.018  1.00  0.00    -0.366 OA
ATOM     20  H8  UNL     1      16.428  26.908  39.317  1.00  0.00     0.212 HD
ENDBRANCH  16  19
BRANCH  16  21
HETATM   21  C14 UNL     1      16.372  28.125  41.479  1.00  0.00     0.207 C 
BRANCH  21  22
HETATM   22  O9  UNL     1      17.624  28.367  40.736  1.00  0.00    -0.388 OA
ATOM     23  H9  UNL     1      18.278  27.887  41.229  1.00  0.00     0.210 HD
ENDBRANCH  21  22
BRANCH  21  24
HETATM   24  C15 UNL     1      16.853  28.426  42.867  1.00  0.00     0.180 C 
BRANCH  24  25
HETATM   25  O10 UNL     1      18.003  29.299  42.645  1.00  0.00    -0.390 OA
ATOM     26  H10 UNL     1      17.983  29.884  43.393  1.00  0.00     0.210 HD
ENDBRANCH  24  25
BRANCH  24  27
HETATM   27  C16 UNL     1      16.001  29.262  43.751  1.00  0.00     0.145 C 
HETATM   28  C17 UNL     1      16.563  29.266  45.156  1.00  0.00     0.042 C 
BRANCH  27  29
HETATM   29  O11 UNL     1      14.780  28.506  43.886  1.00  0.00    -0.393 OA
ATOM     30  H11 UNL     1      14.344  28.615  43.049  1.00  0.00     0.210 HD
ENDBRANCH  27  29
ENDBRANCH  24  27
ENDBRANCH  21  24
ENDBRANCH  16  21
BRANCH  15  31
HETATM   31  O7  UNL     1      17.605  24.952  41.818  1.00  0.00    -0.385 OA
ATOM     32  H7  UNL     1      18.266  25.022  42.497  1.00  0.00     0.210 HD
ENDBRANCH  15  31
BRANCH   1  33
HETATM   33  O1  UNL     1      12.992  27.738  41.496  1.00  0.00    -0.346 OA
HETATM   34  C1  UNL     1      11.753  27.881  42.019  1.00  0.00     0.207 C 
ENDBRANCH   1  33
BRANCH  10  35
HETATM   35  O4  UNL     1      13.809  23.043  42.788  1.00  0.00    -0.375 OA
ATOM     36  H4  UNL     1      13.968  22.114  42.903  1.00  0.00     0.211 HD
ENDBRANCH  10  35
BRANCH  14  37
HETATM   37  O5  UNL     1      12.829  26.080  39.197  1.00  0.00    -0.309 OA
BRANCH  37  38
HETATM   38  C10 UNL     1      12.278  25.535  38.070  1.00  0.00     0.255 C 
HETATM   39  C11 UNL     1      10.776  25.434  37.965  1.00  0.00     0.126 C 
HETATM   40  O6  UNL     1      13.018  25.133  37.153  1.00  0.00    -0.266 OA
ENDBRANCH  37  38
ENDBRANCH  14  37
TORSDOF 12
ENDMDL
MODEL 5
REMARK VINA RESULT: -5.448502608      1.241      1.328
REMARK  12 active torsions:
REMARK  status: ('A' for Active; 'I' for Inactive)
REMARK    1  A    between atoms: O1_2  and  C2_3 
REMARK    2  A    between atoms: C5_12  and  O4_13 
REMARK    3  A    between atoms: C9_18  and  O5_19 
REMARK    4  A    between atoms: O5_19  and  C10_20 
REMARK    5  A    between atoms: C12_23  and  O7_24 
REMARK    6  A    between atoms: C13_26  and  O8_27 
REMARK    7  A    between atoms: C13_26  and  C14_29 
REMARK    8  A    between atoms: C14_29  and  O9_30 
REMARK    9  A    between atoms: C14_29  and  C15_32 
REMARK   10  A    between atoms: C15_32  and  O10_33 
REMARK   11  A    between atoms: C15_32  and  C16_35 
REMARK   12  A    between atoms: C16_35  and  O11_37 
ROOT
HETATM    1  C2  UNL     1      13.906  25.734  42.154  1.00  0.00     0.254 C 
HETATM    2  N1  UNL     1      15.272  25.808  41.904  1.00  0.00    -0.284 N 
ATOM      3  H1  UNL     1      15.805  26.487  42.447  1.00  0.00     0.185 HD
HETATM    4  N2  UNL     1      15.944  25.085  41.034  1.00  0.00    -0.296 N 
ATOM      5  H2  UNL     1      16.610  25.463  40.360  1.00  0.00     0.183 HD
HETATM    6  C3  UNL     1      15.612  23.694  41.160  1.00  0.00     0.228 C 
HETATM    7  O2  UNL     1      16.720  22.811  40.852  1.00  0.00    -0.279 OA
HETATM    8  C4  UNL     1      16.144  21.955  41.816  1.00  0.00     0.301 C 
HETATM    9  O3  UNL     1      16.078  20.720  41.963  1.00  0.00    -0.261 OA
HETATM   10  C5  UNL     1      15.704  23.187  42.496  1.00  0.00     0.203 C 
HETATM   11  C6  UNL     1      14.545  23.137  43.407  1.00  0.00     0.034 C 
HETATM   12  C7  UNL     1      14.926  22.042  44.447  1.00  0.00     0.014 C 
HETATM   13  C8  UNL     1      14.514  24.400  44.202  1.00  0.00     0.047 C 
HETATM   14  C9  UNL     1      13.706  25.539  43.645  1.00  0.00     0.211 C 
HETATM   15  C12 UNL     1      14.545  23.405  40.167  1.00  0.00     0.237 C 
HETATM   16  C13 UNL     1      13.239  24.065  40.387  1.00  0.00     0.191 C 
HETATM   17  N3  UNL     1      13.094  24.791  41.563  1.00  0.00    -0.336 N 
ATOM     18  H3  UNL     1      12.236  24.591  42.077  1.00  0.00     0.161 HD
ENDROOT
BRANCH  16  19
HETATM   19  O8  UNL     1      12.300  22.998  40.488  1.00  0.00    -0.366 OA
ATOM     20  H8  UNL     1      12.663  22.301  39.955  1.00  0.00     0.212 HD
ENDBRANCH  16  19
BRANCH  16  21
HETATM   21  C14 UNL     1      12.690  24.878  39.227  1.00  0.00     0.207 C 
BRANCH  21  22
HETATM   22  O9  UNL     1      13.618  26.020  39.123  1.00  0.00    -0.388 OA
ATOM     23  H9  UNL     1      13.069  26.732  38.817  1.00  0.00     0.210 HD
ENDBRANCH  21  22
BRANCH  21  24
HETATM   24  C15 UNL     1      11.412  25.624  39.469  1.00  0.00     0.180 C 
BRANCH  24  25
HETATM   25  O10 UNL     1      11.851  27.012  39.590  1.00  0.00    -0.390 OA
ATOM     26  H10 UNL     1      12.757  26.934  39.863  1.00  0.00     0.210 HD
ENDBRANCH  24  25
BRANCH  24  27
HETATM   27  C16 UNL     1      10.419  25.713  38.369  1.00  0.00     0.145 C 
HETATM   28  C17 UNL     1      11.116  25.585  37.031  1.00  0.00     0.042 C 
BRANCH  27  29
HETATM   29  O11 UNL     1       9.991  27.090  38.388  1.00  0.00    -0.393 OA
ATOM     30  H11 UNL     1       9.716  27.238  39.286  1.00  0.00     0.210 HD
ENDBRANCH  27  29
ENDBRANCH  24  27
ENDBRANCH  21  24
ENDBRANCH  16  21
BRANCH  15  31
HETATM   31  O7  UNL     1      14.472  22.040  39.915  1.00  0.00    -0.385 OA
ATOM     32  H7  UNL     1      15.331  21.696  39.699  1.00  0.00     0.210 HD
ENDBRANCH  15  31
BRANCH   1  33
HETATM   33  O1  UNL     1      13.379  26.973  41.817  1.00  0.00    -0.346 OA
HETATM   34  C1  UNL     1      14.098  28.083  42.098  1.00  0.00     0.207 C 
ENDBRANCH   1  33
BRANCH  10  35
HETATM   35  O4  UNL     1      16.820  23.707  43.187  1.00  0.00    -0.375 OA
ATOM     36  H4  UNL     1      17.154  24.499  42.782  1.00  0.00     0.211 HD
ENDBRANCH  10  35
BRANCH  14  37
HETATM   37  O5  UNL     1      12.346  25.315  43.878  1.00  0.00    -0.309 OA
BRANCH  37  38
HETATM   38  C10 UNL     1      11.772  24.940  45.062  1.00  0.00     0.255 C 
HETATM   39  C11 UNL     1      11.780  25.910  46.218  1.00  0.00     0.126 C 
HETATM   40  O6  UNL     1      11.255  23.812  45.168  1.00  0.00    -0.266 OA
ENDBRANCH  37  38
ENDBRANCH  14  37
TORSDOF 12
ENDMDL
