MODEL 1
REMARK VINA RESULT: -4.850059249      0.000      0.000
REMARK  6 active torsions:
REMARK  status: ('A' for Active; 'I' for Inactive)
REMARK    1  A    between atoms: N1_1  and  C1_4 
REMARK    2  A    between atoms: C2_7  and  C3_8 
REMARK    3  A    between atoms: C3_8  and  N3_9 
REMARK    4  A    between atoms: C3_8  and  C4_13 
REMARK    5  A    between atoms: C4_13  and  N4_14 
REMARK    6  A    between atoms: C4_13  and  O1_18 
ROOT
HETATM    1  C1  UNL     1      11.395 -21.798 -19.072  1.00  0.00     0.690 A 
HETATM    2  N2  UNL     1      10.167 -22.346 -19.046  1.00  0.00    -0.191 N 
ATOM      3  H2  UNL     1       9.479 -22.120 -19.766  1.00  0.00     0.184 HD
HETATM    4  C2  UNL     1       9.861 -23.211 -18.039  1.00  0.00     0.078 A 
HETATM    5  C5  UNL     1      10.767 -23.540 -17.055  1.00  0.00     0.135 A 
HETATM    6  N5  UNL     1      11.982 -22.968 -17.121  1.00  0.00    -0.296 N 
ATOM      7  H5  UNL     1      12.682 -23.185 -16.410  1.00  0.00     0.186 HD
HETATM    8  N6  UNL     1      12.283 -22.117 -18.111  1.00  0.00    -0.133 N 
ATOM      9  H6  UNL     1      13.213 -21.699 -18.139  1.00  0.00     0.205 HD
ENDROOT
BRANCH   4  10
HETATM   10  C3  UNL     1       8.514 -23.814 -18.008  1.00  0.00     0.290 C 
BRANCH  10  11
HETATM   11  N3  UNL     1       8.116 -24.189 -16.671  1.00  0.00    -0.065 N 
ATOM     12  H33 UNL     1       7.325 -24.833 -16.688  1.00  0.00     0.275 HD
ATOM     13  H32 UNL     1       8.810 -24.796 -16.236  1.00  0.00     0.275 HD
ATOM     14  H31 UNL     1       7.918 -23.376 -16.087  1.00  0.00     0.275 HD
ENDBRANCH  10  11
BRANCH  10  15
HETATM   15  C4  UNL     1       7.475 -22.889 -18.601  1.00  0.00     0.353 C 
BRANCH  15  16
HETATM   16  N4  UNL     1       6.171 -23.437 -18.223  1.00  0.00    -0.051 N 
ATOM     17  H43 UNL     1       6.182 -23.932 -17.332  1.00  0.00     0.277 HD
ATOM     18  H42 UNL     1       5.493 -22.721 -17.962  1.00  0.00     0.277 HD
ATOM     19  H41 UNL     1       5.865 -24.018 -19.005  1.00  0.00     0.277 HD
ENDBRANCH  15  16
BRANCH  15  20
HETATM   20  O1  UNL     1       7.582 -22.865 -19.991  1.00  0.00    -0.368 OA
ATOM     21  H1  UNL     1       7.732 -21.977 -20.296  1.00  0.00     0.212 HD
ENDBRANCH  15  20
ENDBRANCH  10  15
ENDBRANCH   4  10
BRANCH   1  22
HETATM   22  N1  UNL     1      11.747 -20.964 -20.008  1.00  0.00    -0.233 N 
ATOM     23  H12 UNL     1      11.542 -21.194 -20.980  1.00  0.00     0.174 HD
ATOM     24  H11 UNL     1      12.222 -20.087 -19.790  1.00  0.00     0.174 HD
ENDBRANCH   1  22
TORSDOF 6
ENDMDL
MODEL 2
REMARK VINA RESULT: -4.792767471      1.783      2.515
REMARK  6 active torsions:
REMARK  status: ('A' for Active; 'I' for Inactive)
REMARK    1  A    between atoms: N1_1  and  C1_4 
REMARK    2  A    between atoms: C2_7  and  C3_8 
REMARK    3  A    between atoms: C3_8  and  N3_9 
REMARK    4  A    between atoms: C3_8  and  C4_13 
REMARK    5  A    between atoms: C4_13  and  N4_14 
REMARK    6  A    between atoms: C4_13  and  O1_18 
ROOT
HETATM    1  C1  UNL     1      12.318 -22.974 -18.521  1.00  0.00     0.690 A 
HETATM    2  N2  UNL     1      11.076 -23.348 -18.163  1.00  0.00    -0.191 N 
ATOM      3  H2  UNL     1      10.928 -24.169 -17.576  1.00  0.00     0.184 HD
HETATM    4  C2  UNL     1      10.021 -22.605 -18.600  1.00  0.00     0.078 A 
HETATM    5  C5  UNL     1      10.188 -21.490 -19.392  1.00  0.00     0.135 A 
HETATM    6  N5  UNL     1      11.447 -21.154 -19.725  1.00  0.00    -0.296 N 
ATOM      7  H5  UNL     1      11.613 -20.335 -20.310  1.00  0.00     0.186 HD
HETATM    8  N6  UNL     1      12.484 -21.884 -19.295  1.00  0.00    -0.133 N 
ATOM      9  H6  UNL     1      13.429 -21.606 -19.561  1.00  0.00     0.205 HD
ENDROOT
BRANCH   4  10
HETATM   10  C3  UNL     1       8.658 -23.013 -18.209  1.00  0.00     0.290 C 
BRANCH  10  11
HETATM   11  N3  UNL     1       7.701 -22.803 -19.270  1.00  0.00    -0.065 N 
ATOM     12  H33 UNL     1       7.936 -21.977 -19.821  1.00  0.00     0.275 HD
ATOM     13  H32 UNL     1       7.793 -23.513 -19.996  1.00  0.00     0.275 HD
ATOM     14  H31 UNL     1       6.744 -22.754 -18.921  1.00  0.00     0.275 HD
ENDBRANCH  10  11
BRANCH  10  15
HETATM   15  C4  UNL     1       8.612 -24.459 -17.771  1.00  0.00     0.353 C 
BRANCH  15  16
HETATM   16  N4  UNL     1       7.207 -24.865 -17.831  1.00  0.00    -0.051 N 
ATOM     17  H43 UNL     1       6.615 -24.376 -17.159  1.00  0.00     0.277 HD
ATOM     18  H42 UNL     1       6.730 -24.546 -18.674  1.00  0.00     0.277 HD
ATOM     19  H41 UNL     1       7.194 -25.879 -17.718  1.00  0.00     0.277 HD
ENDBRANCH  15  16
BRANCH  15  20
HETATM   20  O1  UNL     1       9.075 -24.585 -16.462  1.00  0.00    -0.368 OA
ATOM     21  H1  UNL     1       8.344 -24.663 -15.858  1.00  0.00     0.212 HD
ENDBRANCH  15  20
ENDBRANCH  10  15
ENDBRANCH   4  10
BRANCH   1  22
HETATM   22  N1  UNL     1      13.367 -23.643 -18.136  1.00  0.00    -0.233 N 
ATOM     23  H12 UNL     1      13.304 -24.228 -17.302  1.00  0.00     0.174 HD
ATOM     24  H11 UNL     1      14.248 -23.595 -18.649  1.00  0.00     0.174 HD
ENDBRANCH   1  22
TORSDOF 6
ENDMDL
MODEL 3
REMARK VINA RESULT: -4.753391528      1.942      2.194
REMARK  6 active torsions:
REMARK  status: ('A' for Active; 'I' for Inactive)
REMARK    1  A    between atoms: N1_1  and  C1_4 
REMARK    2  A    between atoms: C2_7  and  C3_8 
REMARK    3  A    between atoms: C3_8  and  N3_9 
REMARK    4  A    between atoms: C3_8  and  C4_13 
REMARK    5  A    between atoms: C4_13  and  N4_14 
REMARK    6  A    between atoms: C4_13  and  O1_18 
ROOT
HETATM    1  C1  UNL     1       9.844 -22.234 -18.889  1.00  0.00     0.690 A 
HETATM    2  N2  UNL     1       8.542 -22.574 -18.896  1.00  0.00    -0.191 N 
ATOM      3  H2  UNL     1       7.901 -22.164 -19.576  1.00  0.00     0.184 HD
HETATM    4  C2  UNL     1       8.100 -23.476 -17.977  1.00  0.00     0.078 A 
HETATM    5  C5  UNL     1       8.940 -24.049 -17.047  1.00  0.00     0.135 A 
HETATM    6  N5  UNL     1      10.233 -23.680 -17.077  1.00  0.00    -0.296 N 
ATOM      7  H5  UNL     1      10.888 -24.080 -16.405  1.00  0.00     0.186 HD
HETATM    8  N6  UNL     1      10.669 -22.792 -17.981  1.00  0.00    -0.133 N 
ATOM      9  H6  UNL     1      11.655 -22.531 -17.983  1.00  0.00     0.205 HD
ENDROOT
BRANCH   4  10
HETATM   10  C3  UNL     1       6.672 -23.850 -17.983  1.00  0.00     0.290 C 
BRANCH  10  11
HETATM   11  N3  UNL     1       6.483 -25.276 -18.119  1.00  0.00    -0.065 N 
ATOM     12  H33 UNL     1       5.517 -25.499 -18.359  1.00  0.00     0.275 HD
ATOM     13  H32 UNL     1       6.944 -25.631 -18.956  1.00  0.00     0.275 HD
ATOM     14  H31 UNL     1       6.784 -25.784 -17.287  1.00  0.00     0.275 HD
ENDBRANCH  10  11
BRANCH  10  15
HETATM   15  C4  UNL     1       5.963 -23.366 -16.739  1.00  0.00     0.353 C 
BRANCH  15  16
HETATM   16  N4  UNL     1       5.246 -24.522 -16.195  1.00  0.00    -0.051 N 
ATOM     17  H43 UNL     1       5.271 -25.338 -16.807  1.00  0.00     0.277 HD
ATOM     18  H42 UNL     1       5.715 -24.949 -15.396  1.00  0.00     0.277 HD
ATOM     19  H41 UNL     1       4.300 -24.202 -15.985  1.00  0.00     0.277 HD
ENDBRANCH  15  16
BRANCH  15  20
HETATM   20  O1  UNL     1       5.048 -22.364 -17.059  1.00  0.00    -0.368 OA
ATOM     21  H1  UNL     1       5.109 -22.142 -17.981  1.00  0.00     0.212 HD
ENDBRANCH  15  20
ENDBRANCH  10  15
ENDBRANCH   4  10
BRANCH   1  22
HETATM   22  N1  UNL     1      10.328 -21.377 -19.741  1.00  0.00    -0.233 N 
ATOM     23  H12 UNL     1       9.912 -20.447 -19.800  1.00  0.00     0.174 HD
ATOM     24  H11 UNL     1      11.113 -21.614 -20.349  1.00  0.00     0.174 HD
ENDBRANCH   1  22
TORSDOF 6
ENDMDL
MODEL 4
REMARK VINA RESULT: -4.734443362      2.124      5.068
REMARK  6 active torsions:
REMARK  status: ('A' for Active; 'I' for Inactive)
REMARK    1  A    between atoms: N1_1  and  C1_4 
REMARK    2  A    between atoms: C2_7  and  C3_8 
REMARK    3  A    between atoms: C3_8  and  N3_9 
REMARK    4  A    between atoms: C3_8  and  C4_13 
REMARK    5  A    between atoms: C4_13  and  N4_14 
REMARK    6  A    between atoms: C4_13  and  O1_18 
ROOT
HETATM    1  C1  UNL     1       5.322 -23.039 -16.669  1.00  0.00     0.690 A 
HETATM    2  N2  UNL     1       6.326 -22.717 -17.505  1.00  0.00    -0.191 N 
ATOM      3  H2  UNL     1       6.519 -21.743 -17.738  1.00  0.00     0.184 HD
HETATM    4  C2  UNL     1       7.080 -23.722 -18.033  1.00  0.00     0.078 A 
HETATM    5  C5  UNL     1       6.848 -25.047 -17.737  1.00  0.00     0.135 A 
HETATM    6  N5  UNL     1       5.834 -25.321 -16.897  1.00  0.00    -0.296 N 
ATOM      7  H5  UNL     1       5.628 -26.290 -16.652  1.00  0.00     0.186 HD
HETATM    8  N6  UNL     1       5.092 -24.334 -16.377  1.00  0.00    -0.133 N 
ATOM      9  H6  UNL     1       4.330 -24.569 -15.741  1.00  0.00     0.205 HD
ENDROOT
BRANCH   4  10
HETATM   10  C3  UNL     1       8.182 -23.372 -18.951  1.00  0.00     0.290 C 
BRANCH  10  11
HETATM   11  N3  UNL     1       7.836 -22.273 -19.822  1.00  0.00    -0.065 N 
ATOM     12  H33 UNL     1       7.951 -22.528 -20.803  1.00  0.00     0.275 HD
ATOM     13  H32 UNL     1       6.830 -22.101 -19.818  1.00  0.00     0.275 HD
ATOM     14  H31 UNL     1       8.356 -21.425 -19.597  1.00  0.00     0.275 HD
ENDBRANCH  10  11
BRANCH  10  15
HETATM   15  C4  UNL     1       9.449 -23.036 -18.199  1.00  0.00     0.353 C 
BRANCH  15  16
HETATM   16  N4  UNL     1      10.125 -21.994 -18.974  1.00  0.00    -0.051 N 
ATOM     17  H43 UNL     1       9.791 -21.922 -19.934  1.00  0.00     0.277 HD
ATOM     18  H42 UNL     1       9.876 -21.048 -18.683  1.00  0.00     0.277 HD
ATOM     19  H41 UNL     1      11.125 -22.187 -18.906  1.00  0.00     0.277 HD
ENDBRANCH  15  16
BRANCH  15  20
HETATM   20  O1  UNL     1      10.274 -24.156 -18.113  1.00  0.00    -0.368 OA
ATOM     21  H1  UNL     1      10.177 -24.700 -18.886  1.00  0.00     0.212 HD
ENDBRANCH  15  20
ENDBRANCH  10  15
ENDBRANCH   4  10
BRANCH   1  22
HETATM   22  N1  UNL     1       4.565 -22.125 -16.132  1.00  0.00    -0.233 N 
ATOM     23  H12 UNL     1       4.591 -21.177 -16.508  1.00  0.00     0.174 HD
ATOM     24  H11 UNL     1       3.949 -22.337 -15.347  1.00  0.00     0.174 HD
ENDBRANCH   1  22
TORSDOF 6
ENDMDL
MODEL 5
REMARK VINA RESULT: -4.441347986      1.025      1.815
REMARK  6 active torsions:
REMARK  status: ('A' for Active; 'I' for Inactive)
REMARK    1  A    between atoms: N1_1  and  C1_4 
REMARK    2  A    between atoms: C2_7  and  C3_8 
REMARK    3  A    between atoms: C3_8  and  N3_9 
REMARK    4  A    between atoms: C3_8  and  C4_13 
REMARK    5  A    between atoms: C4_13  and  N4_14 
REMARK    6  A    between atoms: C4_13  and  O1_18 
ROOT
HETATM    1  C1  UNL     1      12.339 -22.604 -18.195  1.00  0.00     0.690 A 
HETATM    2  N2  UNL     1      11.193 -23.271 -17.969  1.00  0.00    -0.191 N 
ATOM      3  H2  UNL     1      11.184 -24.112 -17.392  1.00  0.00     0.184 HD
HETATM    4  C2  UNL     1      10.044 -22.796 -18.527  1.00  0.00     0.078 A 
HETATM    5  C5  UNL     1      10.021 -21.662 -19.308  1.00  0.00     0.135 A 
HETATM    6  N5  UNL     1      11.191 -21.029 -19.507  1.00  0.00    -0.296 N 
ATOM      7  H5  UNL     1      11.218 -20.185 -20.080  1.00  0.00     0.186 HD
HETATM    8  N6  UNL     1      12.321 -21.495 -18.959  1.00  0.00    -0.133 N 
ATOM      9  H6  UNL     1      13.195 -20.994 -19.124  1.00  0.00     0.205 HD
ENDROOT
BRANCH   4  10
HETATM   10  C3  UNL     1       8.785 -23.526 -18.280  1.00  0.00     0.290 C 
BRANCH  10  11
HETATM   11  N3  UNL     1       8.572 -23.786 -16.875  1.00  0.00    -0.065 N 
ATOM     12  H33 UNL     1       8.580 -22.921 -16.334  1.00  0.00     0.275 HD
ATOM     13  H32 UNL     1       7.612 -24.080 -16.695  1.00  0.00     0.275 HD
ATOM     14  H31 UNL     1       9.241 -24.461 -16.504  1.00  0.00     0.275 HD
ENDBRANCH  10  11
BRANCH  10  15
HETATM   15  C4  UNL     1       7.591 -22.785 -18.839  1.00  0.00     0.353 C 
BRANCH  15  16
HETATM   16  N4  UNL     1       6.403 -23.485 -18.349  1.00  0.00    -0.051 N 
ATOM     17  H43 UNL     1       6.615 -24.214 -17.667  1.00  0.00     0.277 HD
ATOM     18  H42 UNL     1       5.817 -22.911 -17.742  1.00  0.00     0.277 HD
ATOM     19  H41 UNL     1       5.912 -23.833 -19.173  1.00  0.00     0.277 HD
ENDBRANCH  15  16
BRANCH  15  20
HETATM   20  O1  UNL     1       7.607 -22.820 -20.233  1.00  0.00    -0.368 OA
ATOM     21  H1  UNL     1       7.126 -22.082 -20.589  1.00  0.00     0.212 HD
ENDBRANCH  15  20
ENDBRANCH  10  15
ENDBRANCH   4  10
BRANCH   1  22
HETATM   22  N1  UNL     1      13.470 -23.007 -17.691  1.00  0.00    -0.233 N 
ATOM     23  H12 UNL     1      13.486 -23.853 -17.121  1.00  0.00     0.174 HD
ATOM     24  H11 UNL     1      14.339 -22.496 -17.853  1.00  0.00     0.174 HD
ENDBRANCH   1  22
TORSDOF 6
ENDMDL
