MODEL 1
REMARK VINA RESULT: -5.522611602      0.000      0.000
REMARK  6 active torsions:
REMARK  status: ('A' for Active; 'I' for Inactive)
REMARK    1  A    between atoms: N1_1  and  C1_4 
REMARK    2  A    between atoms: C2_10  and  C3_11 
REMARK    3  A    between atoms: C3_11  and  N4_12 
REMARK    4  A    between atoms: C3_11  and  C4_16 
REMARK    5  A    between atoms: C4_16  and  N5_17 
REMARK    6  A    between atoms: C4_16  and  O2_21 
ROOT
HETATM    1  C3  UNL     1       7.111 -24.420 -17.399  1.00  0.00     0.294 C 
ENDROOT
BRANCH   1   2
HETATM    2  C2  UNL     1       7.958 -23.518 -18.204  1.00  0.00     0.114 A 
HETATM    3  C1  UNL     1       9.271 -23.162 -17.963  1.00  0.00     0.148 A 
HETATM    4  N2  UNL     1       9.643 -22.304 -18.945  1.00  0.00    -0.224 N 
HETATM    5  O1  UNL     1       8.617 -22.142 -19.747  1.00  0.00    -0.155 OA
ATOM      6  H2  UNL     1      10.558 -21.864 -19.043  1.00  0.00     0.198 HD
HETATM    7  N3  UNL     1       7.608 -22.854 -19.323  1.00  0.00    -0.240 N 
ATOM      8  H3  UNL     1       6.693 -22.901 -19.772  1.00  0.00     0.196 HD
BRANCH   3   9
HETATM    9  N1  UNL     1      10.003 -23.556 -17.005  1.00  0.00    -0.382 N 
ATOM     10  H12 UNL     1      11.012 -23.703 -17.026  1.00  0.00     0.157 HD
ATOM     11  H11 UNL     1       9.683 -23.786 -16.065  1.00  0.00     0.157 HD
ENDBRANCH   3   9
ENDBRANCH   1   2
BRANCH   1  12
HETATM   12  N4  UNL     1       6.126 -25.124 -18.158  1.00  0.00    -0.065 N 
ATOM     13  H43 UNL     1       5.963 -24.659 -19.051  1.00  0.00     0.275 HD
ATOM     14  H42 UNL     1       6.498 -26.013 -18.492  1.00  0.00     0.275 HD
ATOM     15  H41 UNL     1       5.245 -25.267 -17.663  1.00  0.00     0.275 HD
ENDBRANCH   1  12
BRANCH   1  16
HETATM   16  C4  UNL     1       6.345 -23.531 -16.407  1.00  0.00     0.353 C 
BRANCH  16  17
HETATM   17  N5  UNL     1       5.263 -22.873 -17.084  1.00  0.00    -0.051 N 
ATOM     18  H53 UNL     1       4.821 -22.163 -16.502  1.00  0.00     0.277 HD
ATOM     19  H52 UNL     1       5.592 -22.264 -17.834  1.00  0.00     0.277 HD
ATOM     20  H51 UNL     1       4.596 -23.568 -17.418  1.00  0.00     0.277 HD
ENDBRANCH  16  17
BRANCH  16  21
HETATM   21  O2  UNL     1       5.897 -24.319 -15.375  1.00  0.00    -0.368 OA
ATOM     22  H2  UNL     1       5.264 -24.937 -15.723  1.00  0.00     0.212 HD
ENDBRANCH  16  21
ENDBRANCH   1  16
TORSDOF 6
ENDMDL
MODEL 2
REMARK VINA RESULT: -4.902494011      1.449      1.658
REMARK  6 active torsions:
REMARK  status: ('A' for Active; 'I' for Inactive)
REMARK    1  A    between atoms: N1_1  and  C1_4 
REMARK    2  A    between atoms: C2_10  and  C3_11 
REMARK    3  A    between atoms: C3_11  and  N4_12 
REMARK    4  A    between atoms: C3_11  and  C4_16 
REMARK    5  A    between atoms: C4_16  and  N5_17 
REMARK    6  A    between atoms: C4_16  and  O2_21 
ROOT
HETATM    1  C3  UNL     1       8.059 -23.821 -17.747  1.00  0.00     0.294 C 
ENDROOT
BRANCH   1   2
HETATM    2  C2  UNL     1       8.624 -22.857 -18.711  1.00  0.00     0.114 A 
HETATM    3  C1  UNL     1       9.914 -22.362 -18.746  1.00  0.00     0.148 A 
HETATM    4  N2  UNL     1       9.986 -21.495 -19.786  1.00  0.00    -0.224 N 
HETATM    5  O1  UNL     1       8.806 -21.459 -20.361  1.00  0.00    -0.155 OA
ATOM      6  H2  UNL     1      10.809 -20.966 -20.071  1.00  0.00     0.198 HD
HETATM    7  N3  UNL     1       7.985 -22.260 -19.737  1.00  0.00    -0.240 N 
ATOM      8  H3  UNL     1       7.008 -22.412 -19.987  1.00  0.00     0.196 HD
BRANCH   3   9
HETATM    9  N1  UNL     1      10.863 -22.656 -17.958  1.00  0.00    -0.382 N 
ATOM     10  H12 UNL     1      10.953 -23.503 -17.397  1.00  0.00     0.157 HD
ATOM     11  H11 UNL     1      11.682 -22.079 -17.769  1.00  0.00     0.157 HD
ENDBRANCH   3   9
ENDBRANCH   1   2
BRANCH   1  12
HETATM   12  N4  UNL     1       8.527 -25.160 -17.923  1.00  0.00    -0.065 N 
ATOM     13  H43 UNL     1       8.054 -25.793 -17.278  1.00  0.00     0.275 HD
ATOM     14  H42 UNL     1       8.199 -25.541 -18.811  1.00  0.00     0.275 HD
ATOM     15  H41 UNL     1       9.539 -25.260 -17.843  1.00  0.00     0.275 HD
ENDBRANCH   1  12
BRANCH   1  16
HETATM   16  C4  UNL     1       6.543 -23.852 -17.998  1.00  0.00     0.353 C 
BRANCH  16  17
HETATM   17  N5  UNL     1       5.994 -25.077 -17.488  1.00  0.00    -0.051 N 
ATOM     18  H53 UNL     1       6.720 -25.737 -17.210  1.00  0.00     0.277 HD
ATOM     19  H52 UNL     1       5.554 -24.951 -16.576  1.00  0.00     0.277 HD
ATOM     20  H51 UNL     1       5.353 -25.476 -18.173  1.00  0.00     0.277 HD
ENDBRANCH  16  17
BRANCH  16  21
HETATM   21  O2  UNL     1       5.982 -22.752 -17.395  1.00  0.00    -0.368 OA
ATOM     22  H2  UNL     1       6.385 -21.973 -17.759  1.00  0.00     0.212 HD
ENDBRANCH  16  21
ENDBRANCH   1  16
TORSDOF 6
ENDMDL
MODEL 3
REMARK VINA RESULT: -4.605392874      1.030      1.769
REMARK  6 active torsions:
REMARK  status: ('A' for Active; 'I' for Inactive)
REMARK    1  A    between atoms: N1_1  and  C1_4 
REMARK    2  A    between atoms: C2_10  and  C3_11 
REMARK    3  A    between atoms: C3_11  and  N4_12 
REMARK    4  A    between atoms: C3_11  and  C4_16 
REMARK    5  A    between atoms: C4_16  and  N5_17 
REMARK    6  A    between atoms: C4_16  and  O2_21 
ROOT
HETATM    1  C3  UNL     1       7.002 -24.378 -16.991  1.00  0.00     0.294 C 
ENDROOT
BRANCH   1   2
HETATM    2  C2  UNL     1       8.226 -23.680 -17.430  1.00  0.00     0.114 A 
HETATM    3  C1  UNL     1       8.408 -22.954 -18.591  1.00  0.00     0.148 A 
HETATM    4  N2  UNL     1       9.688 -22.505 -18.590  1.00  0.00    -0.224 N 
HETATM    5  O1  UNL     1      10.262 -22.929 -17.489  1.00  0.00    -0.155 OA
ATOM      6  H2  UNL     1      10.126 -21.938 -19.316  1.00  0.00     0.198 HD
HETATM    7  N3  UNL     1       9.410 -23.628 -16.788  1.00  0.00    -0.240 N 
ATOM      8  H3  UNL     1       9.611 -24.069 -15.889  1.00  0.00     0.196 HD
BRANCH   3   9
HETATM    9  N1  UNL     1       7.547 -22.740 -19.498  1.00  0.00    -0.382 N 
ATOM     10  H12 UNL     1       7.603 -22.046 -20.243  1.00  0.00     0.157 HD
ATOM     11  H11 UNL     1       6.665 -23.238 -19.613  1.00  0.00     0.157 HD
ENDBRANCH   3   9
ENDBRANCH   1   2
BRANCH   1  12
HETATM   12  N4  UNL     1       6.239 -24.941 -18.061  1.00  0.00    -0.065 N 
ATOM     13  H43 UNL     1       5.912 -25.875 -17.814  1.00  0.00     0.275 HD
ATOM     14  H42 UNL     1       5.343 -24.462 -18.153  1.00  0.00     0.275 HD
ATOM     15  H41 UNL     1       6.730 -24.958 -18.955  1.00  0.00     0.275 HD
ENDBRANCH   1  12
BRANCH   1  16
HETATM   16  C4  UNL     1       6.108 -23.316 -16.329  1.00  0.00     0.353 C 
BRANCH  16  17
HETATM   17  N5  UNL     1       5.072 -22.922 -17.241  1.00  0.00    -0.051 N 
ATOM     18  H53 UNL     1       4.168 -22.829 -16.778  1.00  0.00     0.277 HD
ATOM     19  H52 UNL     1       5.178 -21.955 -17.549  1.00  0.00     0.277 HD
ATOM     20  H51 UNL     1       5.038 -23.574 -18.024  1.00  0.00     0.277 HD
ENDBRANCH  16  17
BRANCH  16  21
HETATM   21  O2  UNL     1       5.593 -23.845 -15.170  1.00  0.00    -0.368 OA
ATOM     22  H2  UNL     1       4.823 -23.344 -14.929  1.00  0.00     0.212 HD
ENDBRANCH  16  21
ENDBRANCH   1  16
TORSDOF 6
ENDMDL
MODEL 4
REMARK VINA RESULT: -4.495333074      1.861      2.512
REMARK  6 active torsions:
REMARK  status: ('A' for Active; 'I' for Inactive)
REMARK    1  A    between atoms: N1_1  and  C1_4 
REMARK    2  A    between atoms: C2_10  and  C3_11 
REMARK    3  A    between atoms: C3_11  and  N4_12 
REMARK    4  A    between atoms: C3_11  and  C4_16 
REMARK    5  A    between atoms: C4_16  and  N5_17 
REMARK    6  A    between atoms: C4_16  and  O2_21 
ROOT
HETATM    1  C3  UNL     1       7.792 -23.793 -18.591  1.00  0.00     0.294 C 
ENDROOT
BRANCH   1   2
HETATM    2  C2  UNL     1       8.991 -23.666 -17.739  1.00  0.00     0.114 A 
HETATM    3  C1  UNL     1      10.122 -22.913 -17.989  1.00  0.00     0.148 A 
HETATM    4  N2  UNL     1      10.972 -23.105 -16.950  1.00  0.00    -0.224 N 
HETATM    5  O1  UNL     1      10.396 -23.930 -16.106  1.00  0.00    -0.155 OA
ATOM      6  H2  UNL     1      11.895 -22.684 -16.843  1.00  0.00     0.198 HD
HETATM    7  N3  UNL     1       9.220 -24.273 -16.558  1.00  0.00    -0.240 N 
ATOM      8  H3  UNL     1       8.572 -24.906 -16.088  1.00  0.00     0.196 HD
BRANCH   3   9
HETATM    9  N1  UNL     1      10.339 -22.176 -18.998  1.00  0.00    -0.382 N 
ATOM     10  H12 UNL     1      11.028 -22.332 -19.733  1.00  0.00     0.157 HD
ATOM     11  H11 UNL     1       9.848 -21.310 -19.221  1.00  0.00     0.157 HD
ENDBRANCH   3   9
ENDBRANCH   1   2
BRANCH   1  12
HETATM   12  N4  UNL     1       7.390 -22.571 -19.214  1.00  0.00    -0.065 N 
ATOM     13  H43 UNL     1       7.239 -22.711 -20.213  1.00  0.00     0.275 HD
ATOM     14  H42 UNL     1       6.443 -22.318 -18.930  1.00  0.00     0.275 HD
ATOM     15  H41 UNL     1       8.032 -21.794 -19.055  1.00  0.00     0.275 HD
ENDBRANCH   1  12
BRANCH   1  16
HETATM   16  C4  UNL     1       6.640 -24.209 -17.663  1.00  0.00     0.353 C 
BRANCH  16  17
HETATM   17  N5  UNL     1       5.702 -23.128 -17.543  1.00  0.00    -0.051 N 
ATOM     18  H53 UNL     1       6.166 -22.222 -17.480  1.00  0.00     0.277 HD
ATOM     19  H52 UNL     1       5.186 -22.968 -18.409  1.00  0.00     0.277 HD
ATOM     20  H51 UNL     1       5.082 -23.299 -16.751  1.00  0.00     0.277 HD
ENDBRANCH  16  17
BRANCH  16  21
HETATM   21  O2  UNL     1       6.052 -25.338 -18.181  1.00  0.00    -0.368 OA
ATOM     22  H2  UNL     1       5.707 -25.128 -19.041  1.00  0.00     0.212 HD
ENDBRANCH  16  21
ENDBRANCH   1  16
TORSDOF 6
ENDMDL
MODEL 5
REMARK VINA RESULT: -4.442959514      1.706      2.370
REMARK  6 active torsions:
REMARK  status: ('A' for Active; 'I' for Inactive)
REMARK    1  A    between atoms: N1_1  and  C1_4 
REMARK    2  A    between atoms: C2_10  and  C3_11 
REMARK    3  A    between atoms: C3_11  and  N4_12 
REMARK    4  A    between atoms: C3_11  and  C4_16 
REMARK    5  A    between atoms: C4_16  and  N5_17 
REMARK    6  A    between atoms: C4_16  and  O2_21 
ROOT
HETATM    1  C3  UNL     1       6.422 -23.664 -18.074  1.00  0.00     0.294 C 
ENDROOT
BRANCH   1   2
HETATM    2  C2  UNL     1       7.836 -23.242 -18.121  1.00  0.00     0.114 A 
HETATM    3  C1  UNL     1       8.467 -22.531 -19.124  1.00  0.00     0.148 A 
HETATM    4  N2  UNL     1       9.763 -22.380 -18.757  1.00  0.00    -0.224 N 
HETATM    5  O1  UNL     1       9.923 -22.965 -17.593  1.00  0.00    -0.155 OA
ATOM      6  H2  UNL     1      10.486 -21.898 -19.291  1.00  0.00     0.198 HD
HETATM    7  N3  UNL     1       8.789 -23.482 -17.199  1.00  0.00    -0.240 N 
ATOM      8  H3  UNL     1       8.648 -23.991 -16.326  1.00  0.00     0.196 HD
BRANCH   3   9
HETATM    9  N1  UNL     1       7.942 -22.094 -20.193  1.00  0.00    -0.382 N 
ATOM     10  H12 UNL     1       8.431 -21.716 -21.004  1.00  0.00     0.157 HD
ATOM     11  H11 UNL     1       6.944 -22.059 -20.397  1.00  0.00     0.157 HD
ENDBRANCH   3   9
ENDBRANCH   1   2
BRANCH   1  12
HETATM   12  N4  UNL     1       5.605 -22.864 -17.217  1.00  0.00    -0.065 N 
ATOM     13  H43 UNL     1       5.351 -21.990 -17.678  1.00  0.00     0.275 HD
ATOM     14  H42 UNL     1       4.679 -23.280 -17.113  1.00  0.00     0.275 HD
ATOM     15  H41 UNL     1       6.019 -22.679 -16.303  1.00  0.00     0.275 HD
ENDBRANCH   1  12
BRANCH   1  16
HETATM   16  C4  UNL     1       6.410 -25.084 -17.487  1.00  0.00     0.353 C 
BRANCH  16  17
HETATM   17  N5  UNL     1       5.525 -25.132 -16.357  1.00  0.00    -0.051 N 
ATOM     18  H53 UNL     1       5.858 -24.556 -15.584  1.00  0.00     0.277 HD
ATOM     19  H52 UNL     1       4.647 -24.645 -16.536  1.00  0.00     0.277 HD
ATOM     20  H51 UNL     1       5.378 -26.102 -16.079  1.00  0.00     0.277 HD
ENDBRANCH  16  17
BRANCH  16  21
HETATM   21  O2  UNL     1       6.024 -25.958 -18.474  1.00  0.00    -0.368 OA
ATOM     22  H2  UNL     1       6.770 -26.120 -19.040  1.00  0.00     0.212 HD
ENDBRANCH  16  21
ENDBRANCH   1  16
TORSDOF 6
ENDMDL
