MODEL 1
REMARK VINA RESULT: -9.205169045      0.000      0.000
REMARK  10 active torsions:
REMARK  status: ('A' for Active; 'I' for Inactive)
REMARK    1  A    between atoms: O1_2  and  C2_3 
REMARK    2  A    between atoms: C8_9  and  O2_10 
REMARK    3  A    between atoms: C8_9  and  N1_12 
REMARK    4  A    between atoms: N1_12  and  C9_14 
REMARK    5  A    between atoms: C9_14  and  C10_15 
REMARK    6  A    between atoms: C10_15  and  N2_17 
REMARK       I    between atoms: N2_17  and  C12_19 
REMARK    7  A    between atoms: C12_19  and  C13_21 
REMARK    8  A    between atoms: C13_21  and  N3_22 
REMARK    9  A    between atoms: C13_21  and  C14_26 
REMARK   10  A    between atoms: C14_26  and  C15_27 
ROOT
HETATM    1  C13 UNL     1      13.923  17.455  33.674  1.00  0.00     0.297 C 
ENDROOT
BRANCH   1   2
HETATM    2  C12 UNL     1      14.675  18.604  33.247  1.00  0.00     0.252 C 
HETATM    3  N2  UNL     1      14.329  19.420  32.201  1.00  0.00    -0.350 N 
ATOM      4  H2  UNL     1      13.429  19.234  31.759  1.00  0.00     0.163 HD
HETATM    5  O3  UNL     1      15.777  18.878  33.869  1.00  0.00    -0.271 OA
BRANCH   3   6
HETATM    6  C10 UNL     1      15.137  20.572  31.630  1.00  0.00     0.119 C 
HETATM    7  C11 UNL     1      14.197  21.566  31.076  1.00  0.00     0.038 C 
BRANCH   6   8
HETATM    8  C9  UNL     1      15.977  19.880  30.658  1.00  0.00     0.088 C 
BRANCH   8   9
HETATM    9  N1  UNL     1      16.097  18.626  30.113  1.00  0.00    -0.348 N 
ATOM     10  H1  UNL     1      15.296  18.319  29.560  1.00  0.00     0.167 HD
BRANCH   9  11
HETATM   11  C8  UNL     1      17.127  17.716  30.194  1.00  0.00     0.152 C 
HETATM   12  C7  UNL     1      17.259  16.389  30.492  1.00  0.00     0.048 A 
HETATM   13  C2  UNL     1      17.382  15.141  30.772  1.00  0.00     0.082 A 
HETATM   14  C6  UNL     1      15.830  16.038  29.591  1.00  0.00     0.018 A 
HETATM   15  C3  UNL     1      16.981  13.895  30.705  1.00  0.00     0.038 A 
HETATM   16  C4  UNL     1      15.836  13.658  29.980  1.00  0.00     0.003 A 
HETATM   17  C5  UNL     1      15.347  14.861  29.460  1.00  0.00     0.001 A 
BRANCH  13  18
HETATM   18  O1  UNL     1      18.659  15.275  31.619  1.00  0.00    -0.355 OA
HETATM   19  C1  UNL     1      19.853  15.312  31.000  1.00  0.00     0.210 C 
ENDBRANCH  13  18
BRANCH  11  20
HETATM   20  O2  UNL     1      18.304  18.282  29.865  1.00  0.00    -0.345 OA
ATOM     21  H2  UNL     1      18.369  19.177  30.175  1.00  0.00     0.219 HD
ENDBRANCH  11  20
ENDBRANCH   9  11
ENDBRANCH   8   9
ENDBRANCH   6   8
ENDBRANCH   3   6
ENDBRANCH   1   2
BRANCH   1  22
HETATM   22  N3  UNL     1      13.646  16.658  32.425  1.00  0.00    -0.063 N 
ATOM     23  H33 UNL     1      13.174  17.193  31.695  1.00  0.00     0.275 HD
ATOM     24  H32 UNL     1      14.485  16.434  31.889  1.00  0.00     0.275 HD
ATOM     25  H31 UNL     1      13.125  15.836  32.730  1.00  0.00     0.275 HD
ENDBRANCH   1  22
BRANCH   1  26
HETATM   26  C14 UNL     1      14.307  16.507  34.712  1.00  0.00     0.019 C 
BRANCH  26  27
HETATM   27  C15 UNL     1      15.155  15.323  34.438  1.00  0.00    -0.056 C 
HETATM   28  C16 UNL     1      16.585  15.489  34.236  1.00  0.00     0.035 C 
HETATM   29  C17 UNL     1      17.484  14.422  34.809  1.00  0.00     0.004 C 
HETATM   30  C18 UNL     1      17.417  13.088  34.112  1.00  0.00     0.000 C 
HETATM   31  C19 UNL     1      17.471  11.906  35.055  1.00  0.00     0.000 C 
HETATM   32  C20 UNL     1      17.948  10.627  34.472  1.00  0.00     0.000 C 
HETATM   33  C21 UNL     1      17.416   9.511  35.371  1.00  0.00     0.000 C 
HETATM   34  C22 UNL     1      15.923   9.416  35.379  1.00  0.00     0.000 C 
HETATM   35  C23 UNL     1      15.380   9.553  36.768  1.00  0.00     0.002 C 
HETATM   36  C24 UNL     1      14.001   8.965  36.958  1.00  0.00     0.026 C 
HETATM   37  C25 UNL     1      12.876   9.848  36.530  1.00  0.00     0.167 C 
HETATM   38  O4  UNL     1      12.791  11.017  37.287  1.00  0.00    -0.389 OA
HETATM   39  C26 UNL     1      12.976  12.075  36.391  1.00  0.00     0.195 C 
HETATM   40  C27 UNL     1      13.345  13.369  37.043  1.00  0.00     0.258 C 
HETATM   41  N4  UNL     1      13.464  14.366  35.966  1.00  0.00    -0.070 N 
HETATM   42  C28 UNL     1      14.755  14.164  35.349  1.00  0.00     0.266 C 
ATOM     43  H42 UNL     1      12.692  14.334  35.301  1.00  0.00     0.277 HD
ATOM     44  H41 UNL     1      13.318  15.323  36.288  1.00  0.00     0.277 HD
ENDBRANCH  26  27
ENDBRANCH   1  26
TORSDOF 10
ENDMDL
MODEL 2
REMARK VINA RESULT: -8.994542538      1.042      1.701
REMARK  10 active torsions:
REMARK  status: ('A' for Active; 'I' for Inactive)
REMARK    1  A    between atoms: O1_2  and  C2_3 
REMARK    2  A    between atoms: C8_9  and  O2_10 
REMARK    3  A    between atoms: C8_9  and  N1_12 
REMARK    4  A    between atoms: N1_12  and  C9_14 
REMARK    5  A    between atoms: C9_14  and  C10_15 
REMARK    6  A    between atoms: C10_15  and  N2_17 
REMARK       I    between atoms: N2_17  and  C12_19 
REMARK    7  A    between atoms: C12_19  and  C13_21 
REMARK    8  A    between atoms: C13_21  and  N3_22 
REMARK    9  A    between atoms: C13_21  and  C14_26 
REMARK   10  A    between atoms: C14_26  and  C15_27 
ROOT
HETATM    1  C13 UNL     1      13.976  17.550  33.703  1.00  0.00     0.297 C 
ENDROOT
BRANCH   1   2
HETATM    2  C12 UNL     1      14.663  18.688  33.155  1.00  0.00     0.252 C 
HETATM    3  N2  UNL     1      14.172  19.492  32.159  1.00  0.00    -0.350 N 
ATOM      4  H2  UNL     1      13.217  19.304  31.854  1.00  0.00     0.163 HD
HETATM    5  O3  UNL     1      15.844  18.965  33.607  1.00  0.00    -0.271 OA
BRANCH   3   6
HETATM    6  C10 UNL     1      14.893  20.631  31.460  1.00  0.00     0.119 C 
HETATM    7  C11 UNL     1      14.013  21.816  31.478  1.00  0.00     0.038 C 
BRANCH   6   8
HETATM    8  C9  UNL     1      15.147  20.048  30.147  1.00  0.00     0.088 C 
BRANCH   8   9
HETATM    9  N1  UNL     1      15.839  18.992  29.609  1.00  0.00    -0.348 N 
ATOM     10  H1  UNL     1      16.558  19.249  28.933  1.00  0.00     0.167 HD
BRANCH   9  11
HETATM   11  C8  UNL     1      15.717  17.640  29.838  1.00  0.00     0.152 C 
HETATM   12  C7  UNL     1      16.564  16.585  30.037  1.00  0.00     0.048 A 
HETATM   13  C2  UNL     1      17.361  15.596  30.225  1.00  0.00     0.082 A 
HETATM   14  C6  UNL     1      17.566  17.571  31.038  1.00  0.00     0.018 A 
HETATM   15  C3  UNL     1      18.435  15.058  30.749  1.00  0.00     0.038 A 
HETATM   16  C4  UNL     1      19.208  15.878  31.538  1.00  0.00     0.003 A 
HETATM   17  C5  UNL     1      18.637  17.153  31.599  1.00  0.00     0.001 A 
BRANCH  13  18
HETATM   18  O1  UNL     1      16.593  14.584  29.357  1.00  0.00    -0.355 OA
HETATM   19  C1  UNL     1      15.536  13.939  29.884  1.00  0.00     0.210 C 
ENDBRANCH  13  18
BRANCH  11  20
HETATM   20  O2  UNL     1      14.424  17.273  29.911  1.00  0.00    -0.345 OA
ATOM     21  H2  UNL     1      14.018  17.553  30.723  1.00  0.00     0.219 HD
ENDBRANCH  11  20
ENDBRANCH   9  11
ENDBRANCH   8   9
ENDBRANCH   6   8
ENDBRANCH   3   6
ENDBRANCH   1   2
BRANCH   1  22
HETATM   22  N3  UNL     1      13.583  16.699  32.522  1.00  0.00    -0.063 N 
ATOM     23  H33 UNL     1      13.013  17.192  31.835  1.00  0.00     0.275 HD
ATOM     24  H32 UNL     1      14.362  16.481  31.900  1.00  0.00     0.275 HD
ATOM     25  H31 UNL     1      13.129  15.874  32.913  1.00  0.00     0.275 HD
ENDBRANCH   1  22
BRANCH   1  26
HETATM   26  C14 UNL     1      14.480  16.649  34.733  1.00  0.00     0.019 C 
BRANCH  26  27
HETATM   27  C15 UNL     1      15.314  15.465  34.419  1.00  0.00    -0.056 C 
HETATM   28  C16 UNL     1      16.740  15.628  34.186  1.00  0.00     0.035 C 
HETATM   29  C17 UNL     1      17.647  14.547  34.720  1.00  0.00     0.004 C 
HETATM   30  C18 UNL     1      17.556  13.225  34.003  1.00  0.00     0.000 C 
HETATM   31  C19 UNL     1      17.626  12.028  34.925  1.00  0.00     0.000 C 
HETATM   32  C20 UNL     1      18.083  10.756  34.309  1.00  0.00     0.000 C 
HETATM   33  C21 UNL     1      17.567   9.628  35.203  1.00  0.00     0.000 C 
HETATM   34  C22 UNL     1      16.073   9.541  35.245  1.00  0.00     0.000 C 
HETATM   35  C23 UNL     1      15.565   9.658  36.649  1.00  0.00     0.002 C 
HETATM   36  C24 UNL     1      14.188   9.073  36.863  1.00  0.00     0.026 C 
HETATM   37  C25 UNL     1      13.058   9.968  36.476  1.00  0.00     0.167 C 
HETATM   38  O4  UNL     1      12.997  11.126  37.254  1.00  0.00    -0.389 OA
HETATM   39  C26 UNL     1      13.166  12.197  36.371  1.00  0.00     0.195 C 
HETATM   40  C27 UNL     1      13.557  13.479  37.034  1.00  0.00     0.258 C 
HETATM   41  N4  UNL     1      13.656  14.493  35.972  1.00  0.00    -0.070 N 
HETATM   42  C28 UNL     1      14.930  14.294  35.320  1.00  0.00     0.266 C 
ATOM     43  H42 UNL     1      12.867  14.475  35.325  1.00  0.00     0.277 HD
ATOM     44  H41 UNL     1      13.522  15.445  36.312  1.00  0.00     0.277 HD
ENDBRANCH  26  27
ENDBRANCH   1  26
TORSDOF 10
ENDMDL
MODEL 3
REMARK VINA RESULT: -8.866743159      2.110      4.148
REMARK  10 active torsions:
REMARK  status: ('A' for Active; 'I' for Inactive)
REMARK    1  A    between atoms: O1_2  and  C2_3 
REMARK    2  A    between atoms: C8_9  and  O2_10 
REMARK    3  A    between atoms: C8_9  and  N1_12 
REMARK    4  A    between atoms: N1_12  and  C9_14 
REMARK    5  A    between atoms: C9_14  and  C10_15 
REMARK    6  A    between atoms: C10_15  and  N2_17 
REMARK       I    between atoms: N2_17  and  C12_19 
REMARK    7  A    between atoms: C12_19  and  C13_21 
REMARK    8  A    between atoms: C13_21  and  N3_22 
REMARK    9  A    between atoms: C13_21  and  C14_26 
REMARK   10  A    between atoms: C14_26  and  C15_27 
ROOT
HETATM    1  C13 UNL     1      14.679  17.694  33.995  1.00  0.00     0.297 C 
ENDROOT
BRANCH   1   2
HETATM    2  C12 UNL     1      15.437  17.907  32.792  1.00  0.00     0.252 C 
HETATM    3  N2  UNL     1      16.724  18.377  32.753  1.00  0.00    -0.350 N 
ATOM      4  H2  UNL     1      17.190  18.501  33.651  1.00  0.00     0.163 HD
HETATM    5  O3  UNL     1      14.861  17.671  31.657  1.00  0.00    -0.271 OA
BRANCH   3   6
HETATM    6  C10 UNL     1      17.534  18.733  31.518  1.00  0.00     0.119 C 
HETATM    7  C11 UNL     1      18.732  17.872  31.486  1.00  0.00     0.038 C 
BRANCH   6   8
HETATM    8  C9  UNL     1      17.777  20.155  31.734  1.00  0.00     0.088 C 
BRANCH   8   9
HETATM    9  N1  UNL     1      17.067  21.279  32.074  1.00  0.00    -0.348 N 
ATOM     10  H1  UNL     1      17.003  21.459  33.077  1.00  0.00     0.167 HD
BRANCH   9  11
HETATM   11  C8  UNL     1      16.427  22.201  31.278  1.00  0.00     0.152 C 
HETATM   12  C7  UNL     1      15.361  22.206  30.421  1.00  0.00     0.048 A 
HETATM   13  C2  UNL     1      14.360  22.208  29.617  1.00  0.00     0.082 A 
HETATM   14  C6  UNL     1      14.475  21.200  31.508  1.00  0.00     0.018 A 
HETATM   15  C3  UNL     1      13.145  21.849  29.280  1.00  0.00     0.038 A 
HETATM   16  C4  UNL     1      12.475  21.045  30.172  1.00  0.00     0.003 A 
HETATM   17  C5  UNL     1      13.286  20.788  31.282  1.00  0.00     0.001 A 
BRANCH  13  18
HETATM   18  O1  UNL     1      15.006  23.090  28.534  1.00  0.00    -0.355 OA
HETATM   19  C1  UNL     1      15.509  22.508  27.431  1.00  0.00     0.210 C 
ENDBRANCH  13  18
BRANCH  11  20
HETATM   20  O2  UNL     1      16.982  23.422  31.402  1.00  0.00    -0.345 OA
ATOM     21  H2  UNL     1      17.598  23.607  30.703  1.00  0.00     0.219 HD
ENDBRANCH  11  20
ENDBRANCH   9  11
ENDBRANCH   8   9
ENDBRANCH   6   8
ENDBRANCH   3   6
ENDBRANCH   1   2
BRANCH   1  22
HETATM   22  N3  UNL     1      13.270  18.125  33.676  1.00  0.00    -0.063 N 
ATOM     23  H33 UNL     1      13.210  19.061  33.274  1.00  0.00     0.275 HD
ATOM     24  H32 UNL     1      12.860  17.627  32.886  1.00  0.00     0.275 HD
ATOM     25  H31 UNL     1      12.744  18.019  34.543  1.00  0.00     0.275 HD
ENDBRANCH   1  22
BRANCH   1  26
HETATM   26  C14 UNL     1      14.586  16.451  34.751  1.00  0.00     0.019 C 
BRANCH  26  27
HETATM   27  C15 UNL     1      15.406  15.259  34.431  1.00  0.00    -0.056 C 
HETATM   28  C16 UNL     1      16.830  15.407  34.180  1.00  0.00     0.035 C 
HETATM   29  C17 UNL     1      17.733  14.319  34.706  1.00  0.00     0.004 C 
HETATM   30  C18 UNL     1      17.621  12.996  33.994  1.00  0.00     0.000 C 
HETATM   31  C19 UNL     1      17.691  11.801  34.919  1.00  0.00     0.000 C 
HETATM   32  C20 UNL     1      18.128  10.523  34.301  1.00  0.00     0.000 C 
HETATM   33  C21 UNL     1      17.611   9.402  35.204  1.00  0.00     0.000 C 
HETATM   34  C22 UNL     1      16.118   9.329  35.264  1.00  0.00     0.000 C 
HETATM   35  C23 UNL     1      15.627   9.455  36.674  1.00  0.00     0.002 C 
HETATM   36  C24 UNL     1      14.247   8.884  36.905  1.00  0.00     0.026 C 
HETATM   37  C25 UNL     1      13.121   9.789  36.529  1.00  0.00     0.167 C 
HETATM   38  O4  UNL     1      13.081  10.949  37.305  1.00  0.00    -0.389 OA
HETATM   39  C26 UNL     1      13.250  12.017  36.417  1.00  0.00     0.195 C 
HETATM   40  C27 UNL     1      13.661  13.296  37.072  1.00  0.00     0.258 C 
HETATM   41  N4  UNL     1      13.757  14.306  36.006  1.00  0.00    -0.070 N 
HETATM   42  C28 UNL     1      15.021  14.094  35.340  1.00  0.00     0.266 C 
ATOM     43  H42 UNL     1      12.960  14.295  35.369  1.00  0.00     0.277 HD
ATOM     44  H41 UNL     1      13.636  15.261  36.345  1.00  0.00     0.277 HD
ENDBRANCH  26  27
ENDBRANCH   1  26
TORSDOF 10
ENDMDL
MODEL 4
REMARK VINA RESULT: -8.693295612      2.314      4.807
REMARK  10 active torsions:
REMARK  status: ('A' for Active; 'I' for Inactive)
REMARK    1  A    between atoms: O1_2  and  C2_3 
REMARK    2  A    between atoms: C8_9  and  O2_10 
REMARK    3  A    between atoms: C8_9  and  N1_12 
REMARK    4  A    between atoms: N1_12  and  C9_14 
REMARK    5  A    between atoms: C9_14  and  C10_15 
REMARK    6  A    between atoms: C10_15  and  N2_17 
REMARK       I    between atoms: N2_17  and  C12_19 
REMARK    7  A    between atoms: C12_19  and  C13_21 
REMARK    8  A    between atoms: C13_21  and  N3_22 
REMARK    9  A    between atoms: C13_21  and  C14_26 
REMARK   10  A    between atoms: C14_26  and  C15_27 
ROOT
HETATM    1  C13 UNL     1      18.502  14.017  32.931  1.00  0.00     0.297 C 
ENDROOT
BRANCH   1   2
HETATM    2  C12 UNL     1      18.026  15.184  32.239  1.00  0.00     0.252 C 
HETATM    3  N2  UNL     1      18.725  15.858  31.271  1.00  0.00    -0.350 N 
ATOM      4  H2  UNL     1      19.607  15.441  30.975  1.00  0.00     0.163 HD
HETATM    5  O3  UNL     1      16.868  15.661  32.569  1.00  0.00    -0.271 OA
BRANCH   3   6
HETATM    6  C10 UNL     1      18.331  17.158  30.591  1.00  0.00     0.119 C 
HETATM    7  C11 UNL     1      18.751  17.086  29.178  1.00  0.00     0.038 C 
BRANCH   6   8
HETATM    8  C9  UNL     1      19.032  18.138  31.414  1.00  0.00     0.088 C 
BRANCH   8   9
HETATM    9  N1  UNL     1      18.733  19.089  32.357  1.00  0.00    -0.348 N 
ATOM     10  H1  UNL     1      19.095  18.896  33.292  1.00  0.00     0.167 HD
BRANCH   9  11
HETATM   11  C8  UNL     1      18.021  20.262  32.243  1.00  0.00     0.152 C 
HETATM   12  C7  UNL     1      16.786  20.634  31.792  1.00  0.00     0.048 A 
HETATM   13  C2  UNL     1      15.624  20.983  31.369  1.00  0.00     0.082 A 
HETATM   14  C6  UNL     1      16.089  19.238  32.529  1.00  0.00     0.018 A 
HETATM   15  C3  UNL     1      14.332  20.798  31.249  1.00  0.00     0.038 A 
HETATM   16  C4  UNL     1      13.817  19.671  31.848  1.00  0.00     0.003 A 
HETATM   17  C5  UNL     1      14.842  18.957  32.475  1.00  0.00     0.001 A 
BRANCH  13  18
HETATM   18  O1  UNL     1      16.077  22.263  30.646  1.00  0.00    -0.355 OA
HETATM   19  C1  UNL     1      15.148  23.072  30.104  1.00  0.00     0.210 C 
ENDBRANCH  13  18
BRANCH  11  20
HETATM   20  O2  UNL     1      18.720  21.305  32.729  1.00  0.00    -0.345 OA
ATOM     21  H2  UNL     1      19.051  21.137  33.604  1.00  0.00     0.219 HD
ENDBRANCH  11  20
ENDBRANCH   9  11
ENDBRANCH   8   9
ENDBRANCH   6   8
ENDBRANCH   3   6
ENDBRANCH   1   2
BRANCH   1  22
HETATM   22  N3  UNL     1      19.997  14.182  33.037  1.00  0.00    -0.063 N 
ATOM     23  H33 UNL     1      20.458  14.312  32.136  1.00  0.00     0.275 HD
ATOM     24  H32 UNL     1      20.281  15.071  33.449  1.00  0.00     0.275 HD
ATOM     25  H31 UNL     1      20.330  13.368  33.553  1.00  0.00     0.275 HD
ENDBRANCH   1  22
BRANCH   1  26
HETATM   26  C14 UNL     1      18.032  13.523  34.220  1.00  0.00     0.019 C 
BRANCH  26  27
HETATM   27  C15 UNL     1      17.406  12.190  34.384  1.00  0.00    -0.056 C 
HETATM   28  C16 UNL     1      18.235  11.036  34.690  1.00  0.00     0.035 C 
HETATM   29  C17 UNL     1      17.663  10.020  35.648  1.00  0.00     0.004 C 
HETATM   30  C18 UNL     1      16.515   9.207  35.108  1.00  0.00     0.000 C 
HETATM   31  C19 UNL     1      15.419   8.957  36.120  1.00  0.00     0.000 C 
HETATM   32  C20 UNL     1      14.563   7.769  35.874  1.00  0.00     0.000 C 
HETATM   33  C21 UNL     1      13.255   8.008  36.630  1.00  0.00     0.000 C 
HETATM   34  C22 UNL     1      12.477   9.178  36.114  1.00  0.00     0.000 C 
HETATM   35  C23 UNL     1      12.228  10.181  37.198  1.00  0.00     0.002 C 
HETATM   36  C24 UNL     1      11.053  11.095  36.941  1.00  0.00     0.026 C 
HETATM   37  C25 UNL     1      11.344  12.261  36.055  1.00  0.00     0.167 C 
HETATM   38  O4  UNL     1      12.271  13.143  36.613  1.00  0.00    -0.389 OA
HETATM   39  C26 UNL     1      13.366  13.159  35.742  1.00  0.00     0.195 C 
HETATM   40  C27 UNL     1      14.623  13.693  36.351  1.00  0.00     0.258 C 
HETATM   41  N4  UNL     1      15.648  13.669  35.296  1.00  0.00    -0.070 N 
HETATM   42  C28 UNL     1      16.122  12.307  35.202  1.00  0.00     0.266 C 
ATOM     43  H42 UNL     1      15.317  14.041  34.406  1.00  0.00     0.277 HD
ATOM     44  H41 UNL     1      16.396  14.346  35.448  1.00  0.00     0.277 HD
ENDBRANCH  26  27
ENDBRANCH   1  26
TORSDOF 10
ENDMDL
MODEL 5
REMARK VINA RESULT: -8.658267069      2.549      9.386
REMARK  10 active torsions:
REMARK  status: ('A' for Active; 'I' for Inactive)
REMARK    1  A    between atoms: O1_2  and  C2_3 
REMARK    2  A    between atoms: C8_9  and  O2_10 
REMARK    3  A    between atoms: C8_9  and  N1_12 
REMARK    4  A    between atoms: N1_12  and  C9_14 
REMARK    5  A    between atoms: C9_14  and  C10_15 
REMARK    6  A    between atoms: C10_15  and  N2_17 
REMARK       I    between atoms: N2_17  and  C12_19 
REMARK    7  A    between atoms: C12_19  and  C13_21 
REMARK    8  A    between atoms: C13_21  and  N3_22 
REMARK    9  A    between atoms: C13_21  and  C14_26 
REMARK   10  A    between atoms: C14_26  and  C15_27 
ROOT
HETATM    1  C13 UNL     1      19.096  14.725  32.736  1.00  0.00     0.297 C 
ENDROOT
BRANCH   1   2
HETATM    2  C12 UNL     1      18.677  13.821  33.772  1.00  0.00     0.252 C 
HETATM    3  N2  UNL     1      18.901  12.468  33.766  1.00  0.00    -0.350 N 
ATOM      4  H2  UNL     1      19.478  12.107  33.007  1.00  0.00     0.163 HD
HETATM    5  O3  UNL     1      18.013  14.303  34.773  1.00  0.00    -0.271 OA
BRANCH   3   6
HETATM    6  C10 UNL     1      18.385  11.448  34.766  1.00  0.00     0.119 C 
HETATM    7  C11 UNL     1      18.852  10.112  34.347  1.00  0.00     0.038 C 
BRANCH   6   8
HETATM    8  C9  UNL     1      16.945  11.672  34.689  1.00  0.00     0.088 C 
BRANCH   8   9
HETATM    9  N1  UNL     1      15.927  12.099  35.503  1.00  0.00    -0.348 N 
ATOM     10  H1  UNL     1      15.948  13.094  35.732  1.00  0.00     0.167 HD
BRANCH   9  11
HETATM   11  C8  UNL     1      14.882  11.399  36.062  1.00  0.00     0.152 C 
HETATM   12  C7  UNL     1      13.798  11.687  36.844  1.00  0.00     0.048 A 
HETATM   13  C2  UNL     1      12.780  11.959  37.579  1.00  0.00     0.082 A 
HETATM   14  C6  UNL     1      13.522  13.131  35.941  1.00  0.00     0.018 A 
HETATM   15  C3  UNL     1      11.768  12.720  37.919  1.00  0.00     0.038 A 
HETATM   16  C4  UNL     1      11.585  13.863  37.176  1.00  0.00     0.003 A 
HETATM   17  C5  UNL     1      12.567  13.947  36.185  1.00  0.00     0.001 A 
BRANCH  13  18
HETATM   18  O1  UNL     1      12.887  10.725  38.491  1.00  0.00    -0.355 OA
HETATM   19  C1  UNL     1      13.244  10.891  39.777  1.00  0.00     0.210 C 
ENDBRANCH  13  18
BRANCH  11  20
HETATM   20  O2  UNL     1      14.929  10.098  35.721  1.00  0.00    -0.345 OA
ATOM     21  H2  UNL     1      15.193   9.974  34.816  1.00  0.00     0.219 HD
ENDBRANCH  11  20
ENDBRANCH   9  11
ENDBRANCH   8   9
ENDBRANCH   6   8
ENDBRANCH   3   6
ENDBRANCH   1   2
BRANCH   1  22
HETATM   22  N3  UNL     1      18.809  14.020  31.434  1.00  0.00    -0.063 N 
ATOM     23  H33 UNL     1      19.642  13.849  30.870  1.00  0.00     0.275 HD
ATOM     24  H32 UNL     1      18.538  13.043  31.550  1.00  0.00     0.275 HD
ATOM     25  H31 UNL     1      18.105  14.586  30.961  1.00  0.00     0.275 HD
ENDBRANCH   1  22
BRANCH   1  26
HETATM   26  C14 UNL     1      18.674  16.111  32.574  1.00  0.00     0.019 C 
BRANCH  26  27
HETATM   27  C15 UNL     1      17.432  16.490  31.861  1.00  0.00    -0.056 C 
HETATM   28  C16 UNL     1      16.273  15.613  31.913  1.00  0.00     0.035 C 
HETATM   29  C17 UNL     1      14.920  16.274  32.001  1.00  0.00     0.004 C 
HETATM   30  C18 UNL     1      14.476  16.990  30.752  1.00  0.00     0.000 C 
HETATM   31  C19 UNL     1      13.765  18.298  31.022  1.00  0.00     0.000 C 
HETATM   32  C20 UNL     1      12.849  18.775  29.956  1.00  0.00     0.000 C 
HETATM   33  C21 UNL     1      12.691  20.283  30.157  1.00  0.00     0.000 C 
HETATM   34  C22 UNL     1      13.965  21.044  29.964  1.00  0.00     0.000 C 
HETATM   35  C23 UNL     1      14.311  21.836  31.188  1.00  0.00     0.002 C 
HETATM   36  C24 UNL     1      15.236  23.003  30.932  1.00  0.00     0.026 C 
HETATM   37  C25 UNL     1      16.685  22.653  30.860  1.00  0.00     0.167 C 
HETATM   38  O4  UNL     1      17.181  22.159  32.068  1.00  0.00    -0.389 OA
HETATM   39  C26 UNL     1      17.619  20.857  31.804  1.00  0.00     0.195 C 
HETATM   40  C27 UNL     1      17.786  20.011  33.026  1.00  0.00     0.258 C 
HETATM   41  N4  UNL     1      18.279  18.701  32.570  1.00  0.00    -0.070 N 
HETATM   42  C28 UNL     1      17.136  17.974  32.068  1.00  0.00     0.266 C 
ATOM     43  H42 UNL     1      19.039  18.771  31.893  1.00  0.00     0.277 HD
ATOM     44  H41 UNL     1      18.794  18.193  33.289  1.00  0.00     0.277 HD
ENDBRANCH  26  27
ENDBRANCH   1  26
TORSDOF 10
ENDMDL
