MODEL 1
REMARK VINA RESULT: -9.187643807      0.000      0.000
REMARK  10 active torsions:
REMARK  status: ('A' for Active; 'I' for Inactive)
REMARK    1  A    between atoms: C2_2  and  N1_5 
REMARK       I    between atoms: N1_5  and  C5_7 
REMARK       I    between atoms: C5_7  and  N2_9 
REMARK    2  A    between atoms: N2_9  and  C6_11 
REMARK    3  A    between atoms: C6_11  and  C7_12 
REMARK    4  A    between atoms: C6_11  and  C14_19 
REMARK    5  A    between atoms: C7_12  and  C8_13 
REMARK    6  A    between atoms: C14_19  and  O2_20 
REMARK    7  A    between atoms: C14_19  and  C15_22 
REMARK    8  A    between atoms: C15_22  and  N3_23 
REMARK    9  A    between atoms: C22_30  and  C23_31 
REMARK       I    between atoms: C23_31  and  N4_33 
REMARK   10  A    between atoms: N4_33  and  C24_35 
ROOT
HETATM    1  C14 UNL     1      14.998  16.327  34.423  1.00  0.00     0.169 C 
ENDROOT
BRANCH   1   2
HETATM    2  C6  UNL     1      16.085  15.355  34.108  1.00  0.00     0.117 C 
BRANCH   2   3
HETATM    3  N2  UNL     1      17.174  16.195  33.549  1.00  0.00    -0.336 N 
HETATM    4  C5  UNL     1      17.679  16.026  32.259  1.00  0.00     0.317 C 
HETATM    5  N1  UNL     1      18.711  16.845  31.778  1.00  0.00    -0.335 N 
HETATM    6  O1  UNL     1      17.158  15.100  31.552  1.00  0.00    -0.247 OA
ATOM      7  H1  UNL     1      19.099  17.580  32.371  1.00  0.00     0.165 HD
ATOM      8  H2  UNL     1      17.571  16.929  34.136  1.00  0.00     0.164 HD
BRANCH   5   9
HETATM    9  C2  UNL     1      19.223  16.645  30.438  1.00  0.00     0.023 C 
HETATM   10  C1  UNL     1      19.921  15.299  30.400  1.00  0.00     0.037 C 
HETATM   11  C3  UNL     1      20.256  17.700  30.156  1.00  0.00     0.037 C 
HETATM   12  C4  UNL     1      18.123  16.731  29.428  1.00  0.00     0.037 C 
ENDBRANCH   5   9
ENDBRANCH   2   3
BRANCH   2  13
HETATM   13  C7  UNL     1      16.689  14.609  35.225  1.00  0.00     0.032 C 
BRANCH  13  14
HETATM   14  C8  UNL     1      16.876  13.161  35.167  1.00  0.00    -0.013 C 
HETATM   15  C9  UNL     1      15.748  12.226  35.227  1.00  0.00     0.005 C 
HETATM   16  C10 UNL     1      16.295  10.873  35.702  1.00  0.00     0.000 C 
HETATM   17  C11 UNL     1      17.407  10.386  34.821  1.00  0.00     0.000 C 
HETATM   18  C12 UNL     1      18.391  11.419  34.403  1.00  0.00     0.000 C 
HETATM   19  C13 UNL     1      17.742  12.714  33.972  1.00  0.00     0.005 C 
ENDBRANCH  13  14
ENDBRANCH   2  13
ENDBRANCH   1   2
BRANCH   1  20
HETATM   20  O2  UNL     1      14.310  15.853  35.574  1.00  0.00    -0.392 OA
ATOM     21  H2  UNL     1      13.930  15.010  35.358  1.00  0.00     0.210 HD
ENDBRANCH   1  20
BRANCH   1  22
HETATM   22  C15 UNL     1      13.974  16.530  33.355  1.00  0.00     0.306 C 
BRANCH  22  23
HETATM   23  N3  UNL     1      14.168  17.834  32.750  1.00  0.00     0.096 N 
HETATM   24  C16 UNL     1      13.031  18.690  32.770  1.00  0.00     0.278 C 
HETATM   25  C17 UNL     1      13.028  19.557  31.495  1.00  0.00     0.027 C 
HETATM   26  C18 UNL     1      12.810  18.592  30.366  1.00  0.00     0.009 C 
HETATM   27  C22 UNL     1      14.392  20.195  31.353  1.00  0.00     0.086 C 
HETATM   28  C19 UNL     1      13.834  17.479  30.368  1.00  0.00     0.036 C 
HETATM   29  C20 UNL     1      14.834  17.787  31.481  1.00  0.00     0.224 C 
HETATM   30  C21 UNL     1      15.439  19.143  31.166  1.00  0.00     0.050 C 
BRANCH  27  31
HETATM   31  C23 UNL     1      14.426  21.150  30.243  1.00  0.00     0.227 C 
HETATM   32  O3  UNL     1      13.630  22.122  30.209  1.00  0.00    -0.273 OA
HETATM   33  N4  UNL     1      15.351  21.024  29.169  1.00  0.00    -0.313 N 
ATOM     34  H4  UNL     1      16.005  20.241  29.162  1.00  0.00     0.170 HD
BRANCH  33  35
HETATM   35  C24 UNL     1      15.383  21.966  28.110  1.00  0.00     0.107 A 
HETATM   36  C25 UNL     1      15.321  21.556  26.774  1.00  0.00     0.048 A 
HETATM   37  C26 UNL     1      15.362  22.447  25.727  1.00  0.00     0.005 A 
HETATM   38  C27 UNL     1      15.471  23.801  25.987  1.00  0.00     0.017 A 
HETATM   39  C28 UNL     1      15.531  24.171  27.321  1.00  0.00     0.089 A 
HETATM   40  N5  UNL     1      15.487  23.284  28.314  1.00  0.00    -0.352 N 
ATOM     41  H5  UNL     1      15.536  23.625  29.274  1.00  0.00     0.166 HD
ENDBRANCH  33  35
ENDBRANCH  27  31
ENDBRANCH  22  23
ENDBRANCH   1  22
TORSDOF 10
ENDMDL
MODEL 2
REMARK VINA RESULT: -8.764757527      0.902      1.284
REMARK  10 active torsions:
REMARK  status: ('A' for Active; 'I' for Inactive)
REMARK    1  A    between atoms: C2_2  and  N1_5 
REMARK       I    between atoms: N1_5  and  C5_7 
REMARK       I    between atoms: C5_7  and  N2_9 
REMARK    2  A    between atoms: N2_9  and  C6_11 
REMARK    3  A    between atoms: C6_11  and  C7_12 
REMARK    4  A    between atoms: C6_11  and  C14_19 
REMARK    5  A    between atoms: C7_12  and  C8_13 
REMARK    6  A    between atoms: C14_19  and  O2_20 
REMARK    7  A    between atoms: C14_19  and  C15_22 
REMARK    8  A    between atoms: C15_22  and  N3_23 
REMARK    9  A    between atoms: C22_30  and  C23_31 
REMARK       I    between atoms: C23_31  and  N4_33 
REMARK   10  A    between atoms: N4_33  and  C24_35 
ROOT
HETATM    1  C14 UNL     1      14.964  16.491  34.305  1.00  0.00     0.169 C 
ENDROOT
BRANCH   1   2
HETATM    2  C6  UNL     1      16.026  15.468  34.069  1.00  0.00     0.117 C 
BRANCH   2   3
HETATM    3  N2  UNL     1      17.177  16.251  33.555  1.00  0.00    -0.336 N 
HETATM    4  C5  UNL     1      17.662  16.126  32.251  1.00  0.00     0.317 C 
HETATM    5  N1  UNL     1      18.755  16.888  31.815  1.00  0.00    -0.335 N 
HETATM    6  O1  UNL     1      17.064  15.293  31.492  1.00  0.00    -0.247 OA
ATOM      7  H1  UNL     1      19.205  17.548  32.450  1.00  0.00     0.165 HD
ATOM      8  H2  UNL     1      17.635  16.911  34.183  1.00  0.00     0.164 HD
BRANCH   5   9
HETATM    9  C2  UNL     1      19.244  16.734  30.459  1.00  0.00     0.023 C 
HETATM   10  C1  UNL     1      19.919  15.379  30.357  1.00  0.00     0.037 C 
HETATM   11  C3  UNL     1      20.290  17.783  30.205  1.00  0.00     0.037 C 
HETATM   12  C4  UNL     1      18.131  16.878  29.471  1.00  0.00     0.037 C 
ENDBRANCH   5   9
ENDBRANCH   2   3
BRANCH   2  13
HETATM   13  C7  UNL     1      16.537  14.722  35.230  1.00  0.00     0.032 C 
BRANCH  13  14
HETATM   14  C8  UNL     1      16.809  13.288  35.160  1.00  0.00    -0.013 C 
HETATM   15  C9  UNL     1      15.737  12.288  35.190  1.00  0.00     0.005 C 
HETATM   16  C10 UNL     1      16.355  10.964  35.661  1.00  0.00     0.000 C 
HETATM   17  C11 UNL     1      17.508  10.553  34.795  1.00  0.00     0.000 C 
HETATM   18  C12 UNL     1      18.437  11.647  34.404  1.00  0.00     0.000 C 
HETATM   19  C13 UNL     1      17.720  12.907  33.976  1.00  0.00     0.005 C 
ENDBRANCH  13  14
ENDBRANCH   2  13
ENDBRANCH   1   2
BRANCH   1  20
HETATM   20  O2  UNL     1      14.309  16.162  35.524  1.00  0.00    -0.392 OA
ATOM     21  H2  UNL     1      13.397  15.985  35.324  1.00  0.00     0.210 HD
ENDBRANCH   1  20
BRANCH   1  22
HETATM   22  C15 UNL     1      13.909  16.591  33.253  1.00  0.00     0.306 C 
BRANCH  22  23
HETATM   23  N3  UNL     1      14.404  17.400  32.156  1.00  0.00     0.096 N 
HETATM   24  C16 UNL     1      14.865  18.697  32.515  1.00  0.00     0.278 C 
HETATM   25  C17 UNL     1      14.556  19.679  31.367  1.00  0.00     0.027 C 
HETATM   26  C18 UNL     1      13.058  19.763  31.316  1.00  0.00     0.009 C 
HETATM   27  C22 UNL     1      15.070  19.077  30.078  1.00  0.00     0.086 C 
HETATM   28  C19 UNL     1      12.421  18.399  31.166  1.00  0.00     0.036 C 
HETATM   29  C20 UNL     1      13.553  17.387  31.001  1.00  0.00     0.224 C 
HETATM   30  C21 UNL     1      14.343  17.806  29.775  1.00  0.00     0.050 C 
BRANCH  27  31
HETATM   31  C23 UNL     1      14.944  20.015  28.959  1.00  0.00     0.227 C 
HETATM   32  O3  UNL     1      14.113  19.805  28.040  1.00  0.00    -0.273 OA
HETATM   33  N4  UNL     1      15.741  21.189  28.866  1.00  0.00    -0.313 N 
ATOM     34  H4  UNL     1      16.431  21.384  29.592  1.00  0.00     0.170 HD
BRANCH  33  35
HETATM   35  C24 UNL     1      15.596  22.094  27.785  1.00  0.00     0.107 A 
HETATM   36  C25 UNL     1      15.517  23.474  28.000  1.00  0.00     0.048 A 
HETATM   37  C26 UNL     1      15.363  24.373  26.971  1.00  0.00     0.005 A 
HETATM   38  C27 UNL     1      15.279  23.912  25.669  1.00  0.00     0.017 A 
HETATM   39  C28 UNL     1      15.360  22.540  25.493  1.00  0.00     0.089 A 
HETATM   40  N5  UNL     1      15.510  21.695  26.511  1.00  0.00    -0.352 N 
ATOM     41  H5  UNL     1      15.562  20.696  26.310  1.00  0.00     0.166 HD
ENDBRANCH  33  35
ENDBRANCH  27  31
ENDBRANCH  22  23
ENDBRANCH   1  22
TORSDOF 10
ENDMDL
MODEL 3
REMARK VINA RESULT: -8.490004776      1.903      4.709
REMARK  10 active torsions:
REMARK  status: ('A' for Active; 'I' for Inactive)
REMARK    1  A    between atoms: C2_2  and  N1_5 
REMARK       I    between atoms: N1_5  and  C5_7 
REMARK       I    between atoms: C5_7  and  N2_9 
REMARK    2  A    between atoms: N2_9  and  C6_11 
REMARK    3  A    between atoms: C6_11  and  C7_12 
REMARK    4  A    between atoms: C6_11  and  C14_19 
REMARK    5  A    between atoms: C7_12  and  C8_13 
REMARK    6  A    between atoms: C14_19  and  O2_20 
REMARK    7  A    between atoms: C14_19  and  C15_22 
REMARK    8  A    between atoms: C15_22  and  N3_23 
REMARK    9  A    between atoms: C22_30  and  C23_31 
REMARK       I    between atoms: C23_31  and  N4_33 
REMARK   10  A    between atoms: N4_33  and  C24_35 
ROOT
HETATM    1  C14 UNL     1      15.684  15.667  34.911  1.00  0.00     0.169 C 
ENDROOT
BRANCH   1   2
HETATM    2  C6  UNL     1      16.387  14.357  34.776  1.00  0.00     0.117 C 
BRANCH   2   3
HETATM    3  N2  UNL     1      15.383  13.358  35.219  1.00  0.00    -0.336 N 
HETATM    4  C5  UNL     1      15.696  12.018  35.456  1.00  0.00     0.317 C 
HETATM    5  N1  UNL     1      14.709  11.112  35.872  1.00  0.00    -0.335 N 
HETATM    6  O1  UNL     1      16.909  11.669  35.276  1.00  0.00    -0.247 OA
ATOM      7  H1  UNL     1      13.749  11.429  36.010  1.00  0.00     0.165 HD
ATOM      8  H2  UNL     1      14.420  13.664  35.357  1.00  0.00     0.164 HD
BRANCH   5   9
HETATM    9  C2  UNL     1      15.058   9.725  36.103  1.00  0.00     0.023 C 
HETATM   10  C1  UNL     1      14.039   8.860  35.386  1.00  0.00     0.037 C 
HETATM   11  C3  UNL     1      14.939   9.440  37.575  1.00  0.00     0.037 C 
HETATM   12  C4  UNL     1      16.452   9.441  35.644  1.00  0.00     0.037 C 
ENDBRANCH   5   9
ENDBRANCH   2   3
BRANCH   2  13
HETATM   13  C7  UNL     1      16.805  13.933  33.429  1.00  0.00     0.032 C 
BRANCH  13  14
HETATM   14  C8  UNL     1      17.495  14.845  32.519  1.00  0.00    -0.013 C 
HETATM   15  C9  UNL     1      18.792  15.442  32.850  1.00  0.00     0.005 C 
HETATM   16  C10 UNL     1      18.943  16.714  32.002  1.00  0.00     0.000 C 
HETATM   17  C11 UNL     1      18.794  16.423  30.539  1.00  0.00     0.000 C 
HETATM   18  C12 UNL     1      17.699  15.482  30.182  1.00  0.00     0.000 C 
HETATM   19  C13 UNL     1      17.633  14.278  31.092  1.00  0.00     0.005 C 
ENDBRANCH  13  14
ENDBRANCH   2  13
ENDBRANCH   1   2
BRANCH   1  20
HETATM   20  O2  UNL     1      15.220  15.775  36.251  1.00  0.00    -0.392 OA
ATOM     21  H2  UNL     1      15.682  16.497  36.661  1.00  0.00     0.210 HD
ENDBRANCH   1  20
BRANCH   1  22
HETATM   22  C15 UNL     1      14.500  15.867  34.022  1.00  0.00     0.306 C 
BRANCH  22  23
HETATM   23  N3  UNL     1      14.551  17.202  33.455  1.00  0.00     0.096 N 
HETATM   24  C16 UNL     1      13.303  17.883  33.391  1.00  0.00     0.278 C 
HETATM   25  C17 UNL     1      13.278  18.774  32.134  1.00  0.00     0.027 C 
HETATM   26  C18 UNL     1      13.296  17.819  30.975  1.00  0.00     0.009 C 
HETATM   27  C22 UNL     1      14.541  19.606  32.117  1.00  0.00     0.086 C 
HETATM   28  C19 UNL     1      14.468  16.866  31.048  1.00  0.00     0.036 C 
HETATM   29  C20 UNL     1      15.318  17.285  32.246  1.00  0.00     0.224 C 
HETATM   30  C21 UNL     1      15.742  18.722  32.004  1.00  0.00     0.050 C 
BRANCH  27  31
HETATM   31  C23 UNL     1      14.526  20.586  31.027  1.00  0.00     0.227 C 
HETATM   32  O3  UNL     1      13.667  21.502  31.003  1.00  0.00    -0.273 OA
HETATM   33  N4  UNL     1      15.471  20.546  29.965  1.00  0.00    -0.313 N 
ATOM     34  H4  UNL     1      16.176  19.809  29.951  1.00  0.00     0.170 HD
BRANCH  33  35
HETATM   35  C24 UNL     1      15.454  21.510  28.927  1.00  0.00     0.107 A 
HETATM   36  C25 UNL     1      15.325  21.131  27.587  1.00  0.00     0.048 A 
HETATM   37  C26 UNL     1      15.318  22.045  26.559  1.00  0.00     0.005 A 
HETATM   38  C27 UNL     1      15.444  23.392  26.843  1.00  0.00     0.017 A 
HETATM   39  C28 UNL     1      15.570  23.733  28.181  1.00  0.00     0.089 A 
HETATM   40  N5  UNL     1      15.573  22.824  29.154  1.00  0.00    -0.352 N 
ATOM     41  H5  UNL     1      15.669  23.143  30.118  1.00  0.00     0.166 HD
ENDBRANCH  33  35
ENDBRANCH  27  31
ENDBRANCH  22  23
ENDBRANCH   1  22
TORSDOF 10
ENDMDL
MODEL 4
REMARK VINA RESULT: -8.430542595      1.547      2.040
REMARK  10 active torsions:
REMARK  status: ('A' for Active; 'I' for Inactive)
REMARK    1  A    between atoms: C2_2  and  N1_5 
REMARK       I    between atoms: N1_5  and  C5_7 
REMARK       I    between atoms: C5_7  and  N2_9 
REMARK    2  A    between atoms: N2_9  and  C6_11 
REMARK    3  A    between atoms: C6_11  and  C7_12 
REMARK    4  A    between atoms: C6_11  and  C14_19 
REMARK    5  A    between atoms: C7_12  and  C8_13 
REMARK    6  A    between atoms: C14_19  and  O2_20 
REMARK    7  A    between atoms: C14_19  and  C15_22 
REMARK    8  A    between atoms: C15_22  and  N3_23 
REMARK    9  A    between atoms: C22_30  and  C23_31 
REMARK       I    between atoms: C23_31  and  N4_33 
REMARK   10  A    between atoms: N4_33  and  C24_35 
ROOT
HETATM    1  C14 UNL     1      14.838  17.428  33.909  1.00  0.00     0.169 C 
ENDROOT
BRANCH   1   2
HETATM    2  C6  UNL     1      15.410  16.064  34.115  1.00  0.00     0.117 C 
BRANCH   2   3
HETATM    3  N2  UNL     1      16.846  16.217  33.775  1.00  0.00    -0.336 N 
HETATM    4  C5  UNL     1      17.328  16.167  32.465  1.00  0.00     0.317 C 
HETATM    5  N1  UNL     1      18.697  16.315  32.197  1.00  0.00    -0.335 N 
HETATM    6  O1  UNL     1      16.469  15.981  31.542  1.00  0.00    -0.247 OA
ATOM      7  H1  UNL     1      19.355  16.467  32.962  1.00  0.00     0.165 HD
ATOM      8  H2  UNL     1      17.512  16.366  34.533  1.00  0.00     0.164 HD
BRANCH   5   9
HETATM    9  C2  UNL     1      19.173  16.251  30.830  1.00  0.00     0.023 C 
HETATM   10  C1  UNL     1      20.121  15.072  30.720  1.00  0.00     0.037 C 
HETATM   11  C3  UNL     1      19.962  17.497  30.538  1.00  0.00     0.037 C 
HETATM   12  C4  UNL     1      18.030  16.139  29.872  1.00  0.00     0.037 C 
ENDBRANCH   5   9
ENDBRANCH   2   3
BRANCH   2  13
HETATM   13  C7  UNL     1      15.379  15.501  35.474  1.00  0.00     0.032 C 
BRANCH  13  14
HETATM   14  C8  UNL     1      14.363  14.531  35.879  1.00  0.00    -0.013 C 
HETATM   15  C9  UNL     1      12.955  14.670  35.494  1.00  0.00     0.005 C 
HETATM   16  C10 UNL     1      12.121  13.866  36.501  1.00  0.00     0.000 C 
HETATM   17  C11 UNL     1      12.566  12.435  36.571  1.00  0.00     0.000 C 
HETATM   18  C12 UNL     1      14.038  12.222  36.569  1.00  0.00     0.000 C 
HETATM   19  C13 UNL     1      14.758  13.077  35.552  1.00  0.00     0.005 C 
ENDBRANCH  13  14
ENDBRANCH   2  13
ENDBRANCH   1   2
BRANCH   1  20
HETATM   20  O2  UNL     1      14.335  17.881  35.159  1.00  0.00    -0.392 OA
ATOM     21  H2  UNL     1      13.387  17.852  35.119  1.00  0.00     0.210 HD
ENDBRANCH   1  20
BRANCH   1  22
HETATM   22  C15 UNL     1      13.717  17.524  32.926  1.00  0.00     0.306 C 
BRANCH  22  23
HETATM   23  N3  UNL     1      13.792  18.801  32.241  1.00  0.00     0.096 N 
HETATM   24  C16 UNL     1      12.539  19.375  31.885  1.00  0.00     0.278 C 
HETATM   25  C17 UNL     1      12.694  20.143  30.558  1.00  0.00     0.027 C 
HETATM   26  C18 UNL     1      12.984  19.090  29.527  1.00  0.00     0.009 C 
HETATM   27  C22 UNL     1      13.886  21.066  30.681  1.00  0.00     0.086 C 
HETATM   28  C19 UNL     1      14.177  18.242  29.907  1.00  0.00     0.036 C 
HETATM   29  C20 UNL     1      14.764  18.834  31.187  1.00  0.00     0.224 C 
HETATM   30  C21 UNL     1      15.138  20.271  30.876  1.00  0.00     0.050 C 
BRANCH  27  31
HETATM   31  C23 UNL     1      14.015  21.937  29.510  1.00  0.00     0.227 C 
HETATM   32  O3  UNL     1      13.085  22.720  29.190  1.00  0.00    -0.273 OA
HETATM   33  N4  UNL     1      15.182  21.939  28.697  1.00  0.00    -0.313 N 
ATOM     34  H4  UNL     1      15.951  21.309  28.925  1.00  0.00     0.170 HD
BRANCH  33  35
HETATM   35  C24 UNL     1      15.298  22.800  27.577  1.00  0.00     0.107 A 
HETATM   36  C25 UNL     1      15.235  22.304  26.271  1.00  0.00     0.048 A 
HETATM   37  C26 UNL     1      15.358  23.115  25.167  1.00  0.00     0.005 A 
HETATM   38  C27 UNL     1      15.552  24.474  25.337  1.00  0.00     0.017 A 
HETATM   39  C28 UNL     1      15.610  24.931  26.644  1.00  0.00     0.089 A 
HETATM   40  N5  UNL     1      15.488  24.120  27.693  1.00  0.00    -0.352 N 
ATOM     41  H5  UNL     1      15.540  24.523  28.628  1.00  0.00     0.166 HD
ENDBRANCH  33  35
ENDBRANCH  27  31
ENDBRANCH  22  23
ENDBRANCH   1  22
TORSDOF 10
ENDMDL
MODEL 5
REMARK VINA RESULT: -8.330092767      1.392      4.229
REMARK  10 active torsions:
REMARK  status: ('A' for Active; 'I' for Inactive)
REMARK    1  A    between atoms: C2_2  and  N1_5 
REMARK       I    between atoms: N1_5  and  C5_7 
REMARK       I    between atoms: C5_7  and  N2_9 
REMARK    2  A    between atoms: N2_9  and  C6_11 
REMARK    3  A    between atoms: C6_11  and  C7_12 
REMARK    4  A    between atoms: C6_11  and  C14_19 
REMARK    5  A    between atoms: C7_12  and  C8_13 
REMARK    6  A    between atoms: C14_19  and  O2_20 
REMARK    7  A    between atoms: C14_19  and  C15_22 
REMARK    8  A    between atoms: C15_22  and  N3_23 
REMARK    9  A    between atoms: C22_30  and  C23_31 
REMARK       I    between atoms: C23_31  and  N4_33 
REMARK   10  A    between atoms: N4_33  and  C24_35 
ROOT
HETATM    1  C14 UNL     1      15.882  16.009  34.571  1.00  0.00     0.169 C 
ENDROOT
BRANCH   1   2
HETATM    2  C6  UNL     1      16.965  15.170  33.979  1.00  0.00     0.117 C 
BRANCH   2   3
HETATM    3  N2  UNL     1      16.762  13.832  34.587  1.00  0.00    -0.336 N 
HETATM    4  C5  UNL     1      17.630  12.759  34.374  1.00  0.00     0.317 C 
HETATM    5  N1  UNL     1      17.392  11.512  34.971  1.00  0.00    -0.335 N 
HETATM    6  O1  UNL     1      18.635  12.972  33.618  1.00  0.00    -0.247 OA
ATOM      7  H1  UNL     1      16.580  11.381  35.574  1.00  0.00     0.165 HD
ATOM      8  H2  UNL     1      15.951  13.689  35.189  1.00  0.00     0.164 HD
BRANCH   5   9
HETATM    9  C2  UNL     1      18.304  10.413  34.727  1.00  0.00     0.023 C 
HETATM   10  C1  UNL     1      18.392  10.201  33.228  1.00  0.00     0.037 C 
HETATM   11  C3  UNL     1      17.722   9.165  35.329  1.00  0.00     0.037 C 
HETATM   12  C4  UNL     1      19.645  10.688  35.331  1.00  0.00     0.037 C 
ENDBRANCH   5   9
ENDBRANCH   2   3
BRANCH   2  13
HETATM   13  C7  UNL     1      16.953  14.953  32.523  1.00  0.00     0.032 C 
BRANCH  13  14
HETATM   14  C8  UNL     1      17.795  15.739  31.623  1.00  0.00    -0.013 C 
HETATM   15  C9  UNL     1      19.231  15.918  31.859  1.00  0.00     0.005 C 
HETATM   16  C10 UNL     1      19.665  17.188  31.112  1.00  0.00     0.000 C 
HETATM   17  C11 UNL     1      19.319  17.117  29.655  1.00  0.00     0.000 C 
HETATM   18  C12 UNL     1      17.977  16.558  29.341  1.00  0.00     0.000 C 
HETATM   19  C13 UNL     1      17.649  15.322  30.147  1.00  0.00     0.005 C 
ENDBRANCH  13  14
ENDBRANCH   2  13
ENDBRANCH   1   2
BRANCH   1  20
HETATM   20  O2  UNL     1      15.452  15.379  35.771  1.00  0.00    -0.392 OA
ATOM     21  H2  UNL     1      14.663  14.889  35.575  1.00  0.00     0.210 HD
ENDBRANCH   1  20
BRANCH   1  22
HETATM   22  C15 UNL     1      14.669  16.205  33.721  1.00  0.00     0.306 C 
BRANCH  22  23
HETATM   23  N3  UNL     1      14.705  17.533  33.138  1.00  0.00     0.096 N 
HETATM   24  C16 UNL     1      13.461  18.224  33.120  1.00  0.00     0.278 C 
HETATM   25  C17 UNL     1      13.389  19.101  31.855  1.00  0.00     0.027 C 
HETATM   26  C18 UNL     1      13.349  18.133  30.708  1.00  0.00     0.009 C 
HETATM   27  C22 UNL     1      14.656  19.923  31.775  1.00  0.00     0.086 C 
HETATM   28  C19 UNL     1      14.516  17.172  30.741  1.00  0.00     0.036 C 
HETATM   29  C20 UNL     1      15.421  17.597  31.896  1.00  0.00     0.224 C 
HETATM   30  C21 UNL     1      15.844  19.028  31.620  1.00  0.00     0.050 C 
BRANCH  27  31
HETATM   31  C23 UNL     1      14.601  20.890  30.676  1.00  0.00     0.227 C 
HETATM   32  O3  UNL     1      13.777  21.839  30.699  1.00  0.00    -0.273 OA
HETATM   33  N4  UNL     1      15.468  20.803  29.551  1.00  0.00    -0.313 N 
ATOM     34  H4  UNL     1      16.142  20.039  29.498  1.00  0.00     0.170 HD
BRANCH  33  35
HETATM   35  C24 UNL     1      15.413  21.756  28.503  1.00  0.00     0.107 A 
HETATM   36  C25 UNL     1      15.391  21.360  27.163  1.00  0.00     0.048 A 
HETATM   37  C26 UNL     1      15.352  22.264  26.127  1.00  0.00     0.005 A 
HETATM   38  C27 UNL     1      15.335  23.619  26.404  1.00  0.00     0.017 A 
HETATM   39  C28 UNL     1      15.358  23.976  27.743  1.00  0.00     0.089 A 
HETATM   40  N5  UNL     1      15.396  23.076  28.724  1.00  0.00    -0.352 N 
ATOM     41  H5  UNL     1      15.411  23.408  29.688  1.00  0.00     0.166 HD
ENDBRANCH  33  35
ENDBRANCH  27  31
ENDBRANCH  22  23
ENDBRANCH   1  22
TORSDOF 10
ENDMDL
