MODEL 1
REMARK VINA RESULT: -7.226207486      0.000      0.000
REMARK  10 active torsions:
REMARK  status: ('A' for Active; 'I' for Inactive)
REMARK       I    between atoms: C2_2  and  N1_4 
REMARK    1  A    between atoms: N1_4  and  C3_6 
REMARK    2  A    between atoms: C3_6  and  C4_7 
REMARK    3  A    between atoms: C4_7  and  C5_8 
REMARK    4  A    between atoms: C5_8  and  C7_10 
REMARK    5  A    between atoms: C5_8  and  C8_13 
REMARK    6  A    between atoms: C7_10  and  O2_11 
REMARK    7  A    between atoms: C8_13  and  C9_14 
REMARK    8  A    between atoms: C17_22  and  O3_23 
REMARK    9  A    between atoms: C26_33  and  O4_34 
REMARK   10  A    between atoms: C28_38  and  C29_39 
ROOT
HETATM    1  C9  UNL     1      12.415   9.542  39.150  1.00  0.00    -0.052 C 
HETATM    2  C10 UNL     1      12.729   8.537  40.177  1.00  0.00     0.034 C 
HETATM    3  C11 UNL     1      14.063   8.651  40.883  1.00  0.00     0.019 C 
HETATM    4  C12 UNL     1      11.711   8.275  41.198  1.00  0.00    -0.017 C 
HETATM    5  C13 UNL     1      10.882   9.180  41.501  1.00  0.00     0.005 C 
HETATM    6  C14 UNL     1      10.860  10.526  40.889  1.00  0.00    -0.039 C 
HETATM    7  C15 UNL     1      11.152  11.555  41.877  1.00  0.00    -0.013 C 
HETATM    8  C16 UNL     1      12.323  12.434  41.984  1.00  0.00     0.096 C 
HETATM    9  C17 UNL     1      13.206  12.608  40.831  1.00  0.00     0.166 C 
HETATM   10  C18 UNL     1      13.458  13.884  40.128  1.00  0.00     0.069 C 
HETATM   11  C19 UNL     1      12.989  13.930  38.710  1.00  0.00     0.014 C 
HETATM   12  C20 UNL     1      12.377  12.642  38.088  1.00  0.00     0.033 C 
HETATM   13  C21 UNL     1      11.770  13.199  36.835  1.00  0.00    -0.041 C 
HETATM   14  C22 UNL     1      12.671  14.312  36.249  1.00  0.00     0.015 C 
HETATM   15  C23 UNL     1      11.659  12.311  35.654  1.00  0.00     0.015 C 
HETATM   16  C24 UNL     1      10.481  13.923  37.134  1.00  0.00     0.012 C 
HETATM   17  C25 UNL     1       9.632  13.205  38.108  1.00  0.00     0.035 C 
HETATM   18  C26 UNL     1      10.395  12.749  39.369  1.00  0.00     0.155 C 
HETATM   19  C27 UNL     1      11.630  12.014  39.127  1.00  0.00     0.117 C 
HETATM   20  O5  UNL     1      12.676  11.864  39.947  1.00  0.00    -0.339 OA
HETATM   21  C28 UNL     1      11.306  10.558  39.433  1.00  0.00     0.098 C 
ENDROOT
BRANCH   1  22
HETATM   22  C8  UNL     1      12.351   9.062  37.747  1.00  0.00    -0.010 C 
BRANCH  22  23
HETATM   23  C5  UNL     1      13.463   8.785  36.861  1.00  0.00    -0.003 C 
HETATM   24  C6  UNL     1      14.401   7.677  37.294  1.00  0.00     0.021 C 
BRANCH  23  25
HETATM   25  C4  UNL     1      14.363  10.051  37.071  1.00  0.00     0.035 C 
BRANCH  25  26
HETATM   26  C3  UNL     1      15.295  10.334  35.994  1.00  0.00     0.123 C 
BRANCH  26  27
HETATM   27  N1  UNL     1      15.259  11.782  35.722  1.00  0.00    -0.361 N 
HETATM   28  C2  UNL     1      16.337  12.505  35.176  1.00  0.00     0.213 C 
HETATM   29  C1  UNL     1      16.186  13.965  34.951  1.00  0.00     0.117 C 
HETATM   30  O1  UNL     1      17.438  12.006  34.855  1.00  0.00    -0.274 OA
ATOM     31  H1  UNL     1      14.403  12.291  35.943  1.00  0.00     0.162 HD
ENDBRANCH  26  27
ENDBRANCH  25  26
ENDBRANCH  23  25
BRANCH  23  32
HETATM   32  C7  UNL     1      13.264   8.809  35.372  1.00  0.00     0.177 C 
BRANCH  32  33
HETATM   33  O2  UNL     1      12.966   7.566  34.819  1.00  0.00    -0.400 OA
ATOM     34  H2  UNL     1      12.647   7.607  33.925  1.00  0.00     0.209 HD
ENDBRANCH  32  33
ENDBRANCH  23  32
ENDBRANCH  22  23
ENDBRANCH   1  22
BRANCH  21  35
HETATM   35  C29 UNL     1      10.133  10.178  38.595  1.00  0.00     0.253 C 
HETATM   36  O6  UNL     1       9.115   9.659  39.097  1.00  0.00    -0.305 OA
ENDBRANCH  21  35
BRANCH  18  37
HETATM   37  O4  UNL     1      10.425  13.972  40.049  1.00  0.00    -0.392 OA
ATOM     38  H4  UNL     1       9.671  13.839  40.611  1.00  0.00     0.210 HD
ENDBRANCH  18  37
BRANCH   9  39
HETATM   39  O3  UNL     1      14.509  12.155  41.190  1.00  0.00    -0.365 OA
ATOM     40  H3  UNL     1      14.592  11.245  40.930  1.00  0.00     0.213 HD
ENDBRANCH   9  39
TORSDOF 10
ENDMDL
MODEL 2
REMARK VINA RESULT: -7.116542572      2.502      5.979
REMARK  10 active torsions:
REMARK  status: ('A' for Active; 'I' for Inactive)
REMARK       I    between atoms: C2_2  and  N1_4 
REMARK    1  A    between atoms: N1_4  and  C3_6 
REMARK    2  A    between atoms: C3_6  and  C4_7 
REMARK    3  A    between atoms: C4_7  and  C5_8 
REMARK    4  A    between atoms: C5_8  and  C7_10 
REMARK    5  A    between atoms: C5_8  and  C8_13 
REMARK    6  A    between atoms: C7_10  and  O2_11 
REMARK    7  A    between atoms: C8_13  and  C9_14 
REMARK    8  A    between atoms: C17_22  and  O3_23 
REMARK    9  A    between atoms: C26_33  and  O4_34 
REMARK   10  A    between atoms: C28_38  and  C29_39 
ROOT
HETATM    1  C9  UNL     1      12.958  12.295  39.879  1.00  0.00    -0.052 C 
HETATM    2  C10 UNL     1      12.476  13.442  40.664  1.00  0.00     0.034 C 
HETATM    3  C11 UNL     1      13.296  14.714  40.621  1.00  0.00     0.019 C 
HETATM    4  C12 UNL     1      11.069  13.820  40.511  1.00  0.00    -0.017 C 
HETATM    5  C13 UNL     1      10.464  13.554  39.434  1.00  0.00     0.005 C 
HETATM    6  C14 UNL     1      11.084  12.872  38.278  1.00  0.00    -0.039 C 
HETATM    7  C15 UNL     1      11.131  13.749  37.116  1.00  0.00    -0.013 C 
HETATM    8  C16 UNL     1      12.296  14.342  36.448  1.00  0.00     0.096 C 
HETATM    9  C17 UNL     1      13.630  13.793  36.692  1.00  0.00     0.166 C 
HETATM   10  C18 UNL     1      14.505  13.181  35.670  1.00  0.00     0.069 C 
HETATM   11  C19 UNL     1      14.793  11.728  35.867  1.00  0.00     0.014 C 
HETATM   12  C20 UNL     1      14.234  11.027  37.140  1.00  0.00     0.033 C 
HETATM   13  C21 UNL     1      14.460   9.588  36.787  1.00  0.00    -0.041 C 
HETATM   14  C22 UNL     1      15.785   9.426  36.005  1.00  0.00     0.015 C 
HETATM   15  C23 UNL     1      14.692   8.623  37.887  1.00  0.00     0.015 C 
HETATM   16  C24 UNL     1      13.421   9.103  35.805  1.00  0.00     0.012 C 
HETATM   17  C25 UNL     1      12.059   9.578  36.129  1.00  0.00     0.035 C 
HETATM   18  C26 UNL     1      11.989  11.093  36.411  1.00  0.00     0.155 C 
HETATM   19  C27 UNL     1      12.951  11.601  37.380  1.00  0.00     0.117 C 
HETATM   20  O5  UNL     1      13.407  12.850  37.516  1.00  0.00    -0.339 OA
HETATM   21  C28 UNL     1      12.155  11.856  38.653  1.00  0.00     0.098 C 
ENDROOT
BRANCH   1  22
HETATM   22  C8  UNL     1      13.441  11.120  40.647  1.00  0.00    -0.010 C 
BRANCH  22  23
HETATM   23  C5  UNL     1      14.515  11.086  41.618  1.00  0.00    -0.003 C 
HETATM   24  C6  UNL     1      15.515   9.958  41.468  1.00  0.00     0.021 C 
BRANCH  23  25
HETATM   25  C4  UNL     1      13.756  10.655  42.920  1.00  0.00     0.035 C 
BRANCH  25  26
HETATM   26  C3  UNL     1      12.507   9.945  42.703  1.00  0.00     0.123 C 
BRANCH  26  27
HETATM   27  N1  UNL     1      11.715  10.015  43.943  1.00  0.00    -0.361 N 
HETATM   28  C2  UNL     1      10.787  11.036  44.225  1.00  0.00     0.213 C 
HETATM   29  C1  UNL     1      10.050  11.005  45.513  1.00  0.00     0.117 C 
HETATM   30  O1  UNL     1      10.526  11.989  43.460  1.00  0.00    -0.274 OA
ATOM     31  H1  UNL     1      11.847   9.281  44.639  1.00  0.00     0.162 HD
ENDBRANCH  26  27
ENDBRANCH  25  26
ENDBRANCH  23  25
BRANCH  23  32
HETATM   32  C7  UNL     1      15.166  12.364  42.067  1.00  0.00     0.177 C 
BRANCH  32  33
HETATM   33  O2  UNL     1      14.812  12.759  43.354  1.00  0.00    -0.400 OA
ATOM     34  H2  UNL     1      15.335  12.359  44.039  1.00  0.00     0.209 HD
ENDBRANCH  32  33
ENDBRANCH  23  32
ENDBRANCH  22  23
ENDBRANCH   1  22
BRANCH  21  35
HETATM   35  C29 UNL     1      11.463  10.584  39.007  1.00  0.00     0.253 C 
HETATM   36  O6  UNL     1      10.237  10.553  39.241  1.00  0.00    -0.305 OA
ENDBRANCH  21  35
BRANCH  18  37
HETATM   37  O4  UNL     1      12.011  11.552  35.089  1.00  0.00    -0.392 OA
ATOM     38  H4  UNL     1      12.417  12.397  35.240  1.00  0.00     0.210 HD
ENDBRANCH  18  37
BRANCH   9  39
HETATM   39  O3  UNL     1      14.440  14.815  37.266  1.00  0.00    -0.365 OA
ATOM     40  H3  UNL     1      15.103  14.404  37.807  1.00  0.00     0.213 HD
ENDBRANCH   9  39
TORSDOF 10
ENDMDL
MODEL 3
REMARK VINA RESULT: -7.043496745      9.201     12.771
REMARK  10 active torsions:
REMARK  status: ('A' for Active; 'I' for Inactive)
REMARK       I    between atoms: C2_2  and  N1_4 
REMARK    1  A    between atoms: N1_4  and  C3_6 
REMARK    2  A    between atoms: C3_6  and  C4_7 
REMARK    3  A    between atoms: C4_7  and  C5_8 
REMARK    4  A    between atoms: C5_8  and  C7_10 
REMARK    5  A    between atoms: C5_8  and  C8_13 
REMARK    6  A    between atoms: C7_10  and  O2_11 
REMARK    7  A    between atoms: C8_13  and  C9_14 
REMARK    8  A    between atoms: C17_22  and  O3_23 
REMARK    9  A    between atoms: C26_33  and  O4_34 
REMARK   10  A    between atoms: C28_38  and  C29_39 
ROOT
HETATM    1  C9  UNL     1      15.206  19.307  30.466  1.00  0.00    -0.052 C 
HETATM    2  C10 UNL     1      13.840  19.670  30.056  1.00  0.00     0.034 C 
HETATM    3  C11 UNL     1      13.360  19.179  28.707  1.00  0.00     0.019 C 
HETATM    4  C12 UNL     1      12.762  19.435  31.020  1.00  0.00    -0.017 C 
HETATM    5  C13 UNL     1      12.888  18.526  31.890  1.00  0.00     0.005 C 
HETATM    6  C14 UNL     1      14.075  17.654  32.014  1.00  0.00    -0.039 C 
HETATM    7  C15 UNL     1      13.733  16.263  31.750  1.00  0.00    -0.013 C 
HETATM    8  C16 UNL     1      14.138  15.404  30.631  1.00  0.00     0.096 C 
HETATM    9  C17 UNL     1      15.281  15.785  29.801  1.00  0.00     0.166 C 
HETATM   10  C18 UNL     1      16.529  15.009  29.651  1.00  0.00     0.069 C 
HETATM   11  C19 UNL     1      17.760  15.679  30.172  1.00  0.00     0.014 C 
HETATM   12  C20 UNL     1      17.637  17.127  30.728  1.00  0.00     0.033 C 
HETATM   13  C21 UNL     1      18.964  17.275  31.411  1.00  0.00    -0.041 C 
HETATM   14  C22 UNL     1      20.070  16.561  30.600  1.00  0.00     0.015 C 
HETATM   15  C23 UNL     1      19.554  18.631  31.510  1.00  0.00     0.015 C 
HETATM   16  C24 UNL     1      18.978  16.543  32.730  1.00  0.00     0.012 C 
HETATM   17  C25 UNL     1      17.729  16.722  33.499  1.00  0.00     0.035 C 
HETATM   18  C26 UNL     1      16.454  16.476  32.665  1.00  0.00     0.155 C 
HETATM   19  C27 UNL     1      16.381  17.192  31.398  1.00  0.00     0.117 C 
HETATM   20  O5  UNL     1      15.657  16.885  30.316  1.00  0.00    -0.339 OA
HETATM   21  C28 UNL     1      15.387  18.323  31.623  1.00  0.00     0.098 C 
ENDROOT
BRANCH   1  22
HETATM   22  C8  UNL     1      16.190  20.415  30.551  1.00  0.00    -0.010 C 
BRANCH  22  23
HETATM   23  C5  UNL     1      15.911  21.831  30.666  1.00  0.00    -0.003 C 
HETATM   24  C6  UNL     1      14.460  22.211  30.876  1.00  0.00     0.021 C 
BRANCH  23  25
HETATM   25  C4  UNL     1      16.151  22.325  29.198  1.00  0.00     0.035 C 
BRANCH  25  26
HETATM   26  C3  UNL     1      14.949  22.504  28.401  1.00  0.00     0.123 C 
BRANCH  26  27
HETATM   27  N1  UNL     1      15.135  23.690  27.547  1.00  0.00    -0.361 N 
HETATM   28  C2  UNL     1      15.141  23.651  26.139  1.00  0.00     0.213 C 
HETATM   29  C1  UNL     1      15.343  24.913  25.384  1.00  0.00     0.117 C 
HETATM   30  O1  UNL     1      14.985  22.615  25.457  1.00  0.00    -0.274 OA
ATOM     31  H1  UNL     1      15.267  24.593  28.002  1.00  0.00     0.162 HD
ENDBRANCH  26  27
ENDBRANCH  25  26
ENDBRANCH  23  25
BRANCH  23  32
HETATM   32  C7  UNL     1      16.846  22.724  31.433  1.00  0.00     0.177 C 
BRANCH  32  33
HETATM   33  O2  UNL     1      17.800  22.038  32.181  1.00  0.00    -0.400 OA
ATOM     34  H2  UNL     1      18.476  21.623  31.658  1.00  0.00     0.209 HD
ENDBRANCH  32  33
ENDBRANCH  23  32
ENDBRANCH  22  23
ENDBRANCH   1  22
BRANCH  21  35
HETATM   35  C29 UNL     1      15.861  19.104  32.801  1.00  0.00     0.253 C 
HETATM   36  O6  UNL     1      15.367  18.938  33.935  1.00  0.00    -0.305 OA
ENDBRANCH  21  35
BRANCH  18  37
HETATM   37  O4  UNL     1      16.458  15.076  32.685  1.00  0.00    -0.392 OA
ATOM     38  H4  UNL     1      15.624  14.939  33.116  1.00  0.00     0.210 HD
ENDBRANCH  18  37
BRANCH   9  39
HETATM   39  O3  UNL     1      14.826  15.960  28.461  1.00  0.00    -0.365 OA
ATOM     40  H3  UNL     1      14.840  15.115  28.027  1.00  0.00     0.213 HD
ENDBRANCH   9  39
TORSDOF 10
ENDMDL
MODEL 4
REMARK VINA RESULT: -6.974923934      5.154     10.129
REMARK  10 active torsions:
REMARK  status: ('A' for Active; 'I' for Inactive)
REMARK       I    between atoms: C2_2  and  N1_4 
REMARK    1  A    between atoms: N1_4  and  C3_6 
REMARK    2  A    between atoms: C3_6  and  C4_7 
REMARK    3  A    between atoms: C4_7  and  C5_8 
REMARK    4  A    between atoms: C5_8  and  C7_10 
REMARK    5  A    between atoms: C5_8  and  C8_13 
REMARK    6  A    between atoms: C7_10  and  O2_11 
REMARK    7  A    between atoms: C8_13  and  C9_14 
REMARK    8  A    between atoms: C17_22  and  O3_23 
REMARK    9  A    between atoms: C26_33  and  O4_34 
REMARK   10  A    between atoms: C28_38  and  C29_39 
ROOT
HETATM    1  C9  UNL     1      15.658  15.987  32.912  1.00  0.00    -0.052 C 
HETATM    2  C10 UNL     1      14.399  16.032  33.673  1.00  0.00     0.034 C 
HETATM    3  C11 UNL     1      14.329  16.975  34.855  1.00  0.00     0.019 C 
HETATM    4  C12 UNL     1      13.157  16.187  32.912  1.00  0.00    -0.017 C 
HETATM    5  C13 UNL     1      13.180  16.763  31.787  1.00  0.00     0.005 C 
HETATM    6  C14 UNL     1      14.401  17.313  31.160  1.00  0.00    -0.039 C 
HETATM    7  C15 UNL     1      14.311  18.760  31.019  1.00  0.00    -0.013 C 
HETATM    8  C16 UNL     1      15.082  19.808  31.699  1.00  0.00     0.096 C 
HETATM    9  C17 UNL     1      16.335  19.466  32.371  1.00  0.00     0.166 C 
HETATM   10  C18 UNL     1      17.670  19.993  32.016  1.00  0.00     0.069 C 
HETATM   11  C19 UNL     1      18.642  18.974  31.515  1.00  0.00     0.014 C 
HETATM   12  C20 UNL     1      18.206  17.481  31.493  1.00  0.00     0.033 C 
HETATM   13  C21 UNL     1      19.296  16.885  30.654  1.00  0.00    -0.041 C 
HETATM   14  C22 UNL     1      20.648  17.572  30.959  1.00  0.00     0.015 C 
HETATM   15  C23 UNL     1      19.669  15.470  30.887  1.00  0.00     0.015 C 
HETATM   16  C24 UNL     1      19.080  17.190  29.192  1.00  0.00     0.012 C 
HETATM   17  C25 UNL     1      17.668  17.045  28.778  1.00  0.00     0.035 C 
HETATM   18  C26 UNL     1      16.677  17.764  29.716  1.00  0.00     0.155 C 
HETATM   19  C27 UNL     1      16.826  17.473  31.136  1.00  0.00     0.117 C 
HETATM   20  O5  UNL     1      16.433  18.213  32.178  1.00  0.00    -0.339 OA
HETATM   21  C28 UNL     1      15.673  16.542  31.486  1.00  0.00     0.098 C 
ENDROOT
BRANCH   1  22
HETATM   22  C8  UNL     1      16.445  14.732  33.003  1.00  0.00    -0.010 C 
BRANCH  22  23
HETATM   23  C5  UNL     1      17.419  14.377  34.014  1.00  0.00    -0.003 C 
HETATM   24  C6  UNL     1      18.478  13.377  33.598  1.00  0.00     0.021 C 
BRANCH  23  25
HETATM   25  C4  UNL     1      16.556  13.520  35.003  1.00  0.00     0.035 C 
BRANCH  25  26
HETATM   26  C3  UNL     1      16.904  12.111  35.068  1.00  0.00     0.123 C 
BRANCH  26  27
HETATM   27  N1  UNL     1      15.746  11.375  35.604  1.00  0.00    -0.361 N 
HETATM   28  C2  UNL     1      15.757   9.998  35.895  1.00  0.00     0.213 C 
HETATM   29  C1  UNL     1      14.525   9.363  36.428  1.00  0.00     0.117 C 
HETATM   30  O1  UNL     1      16.744   9.247  35.737  1.00  0.00    -0.274 OA
ATOM     31  H1  UNL     1      14.884  11.895  35.776  1.00  0.00     0.162 HD
ENDBRANCH  26  27
ENDBRANCH  25  26
ENDBRANCH  23  25
BRANCH  23  32
HETATM   32  C7  UNL     1      17.966  15.430  34.937  1.00  0.00     0.177 C 
BRANCH  32  33
HETATM   33  O2  UNL     1      19.114  16.058  34.462  1.00  0.00    -0.400 OA
ATOM     34  H2  UNL     1      19.587  16.551  35.123  1.00  0.00     0.209 HD
ENDBRANCH  32  33
ENDBRANCH  23  32
ENDBRANCH  22  23
ENDBRANCH   1  22
BRANCH  21  35
HETATM   35  C29 UNL     1      15.743  15.378  30.558  1.00  0.00     0.253 C 
HETATM   36  O6  UNL     1      14.895  15.210  29.658  1.00  0.00    -0.305 OA
ENDBRANCH  21  35
BRANCH  18  37
HETATM   37  O4  UNL     1      16.852  19.070  29.243  1.00  0.00    -0.392 OA
ATOM     38  H4  UNL     1      17.537  19.346  29.840  1.00  0.00     0.210 HD
ENDBRANCH  18  37
BRANCH   9  39
HETATM   39  O3  UNL     1      16.203  19.777  33.756  1.00  0.00    -0.365 OA
ATOM     40  H3  UNL     1      16.474  19.020  34.260  1.00  0.00     0.213 HD
ENDBRANCH   9  39
TORSDOF 10
ENDMDL
MODEL 5
REMARK VINA RESULT: -6.933494236      1.491      1.748
REMARK  10 active torsions:
REMARK  status: ('A' for Active; 'I' for Inactive)
REMARK       I    between atoms: C2_2  and  N1_4 
REMARK    1  A    between atoms: N1_4  and  C3_6 
REMARK    2  A    between atoms: C3_6  and  C4_7 
REMARK    3  A    between atoms: C4_7  and  C5_8 
REMARK    4  A    between atoms: C5_8  and  C7_10 
REMARK    5  A    between atoms: C5_8  and  C8_13 
REMARK    6  A    between atoms: C7_10  and  O2_11 
REMARK    7  A    between atoms: C8_13  and  C9_14 
REMARK    8  A    between atoms: C17_22  and  O3_23 
REMARK    9  A    between atoms: C26_33  and  O4_34 
REMARK   10  A    between atoms: C28_38  and  C29_39 
ROOT
HETATM    1  C9  UNL     1      12.467   9.478  38.869  1.00  0.00    -0.052 C 
HETATM    2  C10 UNL     1      12.153   8.379  39.797  1.00  0.00     0.034 C 
HETATM    3  C11 UNL     1      12.799   8.412  41.165  1.00  0.00     0.019 C 
HETATM    4  C12 UNL     1      10.740   8.039  39.985  1.00  0.00    -0.017 C 
HETATM    5  C13 UNL     1       9.855   8.924  39.806  1.00  0.00     0.005 C 
HETATM    6  C14 UNL     1      10.142  10.320  39.411  1.00  0.00    -0.039 C 
HETATM    7  C15 UNL     1       9.744  11.252  40.457  1.00  0.00    -0.013 C 
HETATM    8  C16 UNL     1      10.583  12.103  41.310  1.00  0.00     0.096 C 
HETATM    9  C17 UNL     1      11.969  12.369  40.929  1.00  0.00     0.166 C 
HETATM   10  C18 UNL     1      12.533  13.699  40.620  1.00  0.00     0.069 C 
HETATM   11  C19 UNL     1      12.999  13.880  39.211  1.00  0.00     0.014 C 
HETATM   12  C20 UNL     1      12.932  12.661  38.246  1.00  0.00     0.033 C 
HETATM   13  C21 UNL     1      13.165  13.336  36.928  1.00  0.00    -0.041 C 
HETATM   14  C22 UNL     1      14.189  14.485  37.085  1.00  0.00     0.015 C 
HETATM   15  C23 UNL     1      13.817  12.560  35.847  1.00  0.00     0.015 C 
HETATM   16  C24 UNL     1      11.921  14.047  36.457  1.00  0.00     0.012 C 
HETATM   17  C25 UNL     1      10.691  13.254  36.671  1.00  0.00     0.035 C 
HETATM   18  C26 UNL     1      10.576  12.677  38.097  1.00  0.00     0.155 C 
HETATM   19  C27 UNL     1      11.742  11.951  38.581  1.00  0.00     0.117 C 
HETATM   20  O5  UNL     1      12.102  11.715  39.847  1.00  0.00    -0.339 OA
HETATM   21  C28 UNL     1      11.364  10.477  38.516  1.00  0.00     0.098 C 
ENDROOT
BRANCH   1  22
HETATM   22  C8  UNL     1      13.270   9.126  37.672  1.00  0.00    -0.010 C 
BRANCH  22  23
HETATM   23  C5  UNL     1      13.583   7.800  37.182  1.00  0.00    -0.003 C 
HETATM   24  C6  UNL     1      14.455   6.945  38.079  1.00  0.00     0.021 C 
BRANCH  23  25
HETATM   25  C4  UNL     1      14.568   8.117  36.004  1.00  0.00     0.035 C 
BRANCH  25  26
HETATM   26  C3  UNL     1      15.288   9.373  36.120  1.00  0.00     0.123 C 
BRANCH  26  27
HETATM   27  N1  UNL     1      16.661   9.163  35.629  1.00  0.00    -0.361 N 
HETATM   28  C2  UNL     1      17.492  10.198  35.158  1.00  0.00     0.213 C 
HETATM   29  C1  UNL     1      18.859   9.864  34.682  1.00  0.00     0.117 C 
HETATM   30  O1  UNL     1      17.166  11.404  35.107  1.00  0.00    -0.274 OA
ATOM     31  H1  UNL     1      17.032   8.213  35.631  1.00  0.00     0.162 HD
ENDBRANCH  26  27
ENDBRANCH  25  26
ENDBRANCH  23  25
BRANCH  23  32
HETATM   32  C7  UNL     1      12.532   6.989  36.476  1.00  0.00     0.177 C 
BRANCH  32  33
HETATM   33  O2  UNL     1      12.908   6.554  35.208  1.00  0.00    -0.400 OA
ATOM     34  H2  UNL     1      12.464   5.763  34.924  1.00  0.00     0.209 HD
ENDBRANCH  32  33
ENDBRANCH  23  32
ENDBRANCH  22  23
ENDBRANCH   1  22
BRANCH  21  35
HETATM   35  C29 UNL     1      10.936  10.190  37.117  1.00  0.00     0.253 C 
HETATM   36  O6  UNL     1       9.863   9.602  36.872  1.00  0.00    -0.305 OA
ENDBRANCH  21  35
BRANCH  18  37
HETATM   37  O4  UNL     1      10.141  13.833  38.756  1.00  0.00    -0.392 OA
ATOM     38  H4  UNL     1      10.963  14.084  39.158  1.00  0.00     0.210 HD
ENDBRANCH  18  37
BRANCH   9  39
HETATM   39  O3  UNL     1      12.822  11.869  41.956  1.00  0.00    -0.365 OA
ATOM     40  H3  UNL     1      12.496  12.176  42.793  1.00  0.00     0.213 HD
ENDBRANCH   9  39
TORSDOF 10
ENDMDL
