MODEL 1
REMARK VINA RESULT: -8.548696915      0.000      0.000
REMARK  12 active torsions:
REMARK  status: ('A' for Active; 'I' for Inactive)
REMARK    1  A    between atoms: C2_2  and  O1_5 
REMARK    2  A    between atoms: O1_5  and  C5_6 
REMARK       I    between atoms: C5_6  and  N1_8 
REMARK    3  A    between atoms: N1_8  and  C6_10 
REMARK    4  A    between atoms: C6_10  and  C7_11 
REMARK    5  A    between atoms: C6_10  and  C23_36 
REMARK       I    between atoms: C7_11  and  N2_13 
REMARK    6  A    between atoms: N2_13  and  C8_15 
REMARK    7  A    between atoms: C8_15  and  C9_16 
REMARK    8  A    between atoms: C8_15  and  C16_23 
REMARK    9  A    between atoms: C9_16  and  C10_17 
REMARK   10  A    between atoms: C16_23  and  C17_25 
REMARK       I    between atoms: C17_25  and  N3_27 
REMARK   11  A    between atoms: N3_27  and  C18_29 
REMARK   12  A    between atoms: C21_32  and  O6_33 
ROOT
HETATM    1  C8  UNL     1      14.173  17.239  33.367  1.00  0.00     0.165 C 
ENDROOT
BRANCH   1   2
HETATM    2  N2  UNL     1      15.291  16.454  32.870  1.00  0.00    -0.347 N 
HETATM    3  C7  UNL     1      16.530  17.040  32.605  1.00  0.00     0.241 C 
HETATM    4  O3  UNL     1      16.590  18.309  32.864  1.00  0.00    -0.271 OA
ATOM      5  H2  UNL     1      15.167  15.454  32.712  1.00  0.00     0.163 HD
BRANCH   3   6
HETATM    6  C6  UNL     1      17.728  16.412  32.077  1.00  0.00     0.186 C 
BRANCH   6   7
HETATM    7  N1  UNL     1      17.868  15.069  32.673  1.00  0.00    -0.323 N 
HETATM    8  C5  UNL     1      18.621  14.815  33.828  1.00  0.00     0.362 C 
HETATM    9  O2  UNL     1      19.211  15.803  34.383  1.00  0.00    -0.238 OA
ATOM     10  H1  UNL     1      17.393  14.288  32.222  1.00  0.00     0.165 HD
BRANCH   8  11
HETATM   11  O1  UNL     1      18.781  13.595  34.417  1.00  0.00    -0.294 OA
BRANCH  11  12
HETATM   12  C2  UNL     1      18.090  12.422  34.108  1.00  0.00     0.061 C 
HETATM   13  C1  UNL     1      16.745  12.501  34.841  1.00  0.00     0.046 C 
HETATM   14  C3  UNL     1      18.781  11.174  34.606  1.00  0.00     0.046 C 
HETATM   15  C4  UNL     1      17.780  12.290  32.638  1.00  0.00     0.046 C 
ENDBRANCH  11  12
ENDBRANCH   8  11
ENDBRANCH   6   7
BRANCH   6  16
HETATM   16  C23 UNL     1      17.880  16.318  30.584  1.00  0.00    -0.022 C 
HETATM   17  C24 UNL     1      17.280  17.474  29.834  1.00  0.00     0.017 C 
HETATM   18  C25 UNL     1      19.256  16.037  30.092  1.00  0.00     0.017 C 
HETATM   19  C26 UNL     1      17.063  15.036  30.161  1.00  0.00     0.017 C 
ENDBRANCH   6  16
ENDBRANCH   3   6
ENDBRANCH   1   2
BRANCH   1  20
HETATM   20  C9  UNL     1      13.163  16.564  34.173  1.00  0.00     0.038 C 
BRANCH  20  21
HETATM   21  C10 UNL     1      13.466  15.375  34.980  1.00  0.00    -0.012 C 
HETATM   22  C11 UNL     1      14.542  15.409  35.983  1.00  0.00     0.005 C 
HETATM   23  C12 UNL     1      14.368  14.382  37.089  1.00  0.00     0.000 C 
HETATM   24  C13 UNL     1      13.765  13.099  36.585  1.00  0.00     0.000 C 
HETATM   25  C14 UNL     1      12.514  13.301  35.799  1.00  0.00     0.000 C 
HETATM   26  C15 UNL     1      12.230  14.778  35.657  1.00  0.00     0.005 C 
ENDBRANCH  20  21
ENDBRANCH   1  20
BRANCH   1  27
HETATM   27  C16 UNL     1      13.531  17.787  32.118  1.00  0.00     0.238 C 
HETATM   28  O4  UNL     1      13.188  16.989  31.175  1.00  0.00    -0.285 OA
BRANCH  27  29
HETATM   29  C17 UNL     1      13.264  19.186  31.887  1.00  0.00     0.289 C 
HETATM   30  O5  UNL     1      12.090  19.622  32.088  1.00  0.00    -0.264 OA
HETATM   31  N3  UNL     1      14.291  20.084  31.439  1.00  0.00    -0.350 N 
ATOM     32  H3  UNL     1      15.236  19.736  31.277  1.00  0.00     0.163 HD
BRANCH  31  33
HETATM   33  C18 UNL     1      13.992  21.461  31.222  1.00  0.00     0.087 C 
HETATM   34  C19 UNL     1      13.354  21.684  29.847  1.00  0.00     0.028 C 
HETATM   35  C20 UNL     1      14.561  21.437  28.945  1.00  0.00     0.034 C 
HETATM   36  C21 UNL     1      15.742  22.035  29.697  1.00  0.00     0.120 C 
HETATM   37  C22 UNL     1      15.240  22.314  31.091  1.00  0.00     0.057 C 
BRANCH  36  38
HETATM   38  O6  UNL     1      16.156  23.200  29.054  1.00  0.00    -0.396 OA
ATOM     39  H6  UNL     1      17.102  23.268  29.104  1.00  0.00     0.210 HD
ENDBRANCH  36  38
ENDBRANCH  31  33
ENDBRANCH  27  29
ENDBRANCH   1  27
TORSDOF 12
ENDMDL
MODEL 2
REMARK VINA RESULT: -8.541305651      2.063      6.502
REMARK  12 active torsions:
REMARK  status: ('A' for Active; 'I' for Inactive)
REMARK    1  A    between atoms: C2_2  and  O1_5 
REMARK    2  A    between atoms: O1_5  and  C5_6 
REMARK       I    between atoms: C5_6  and  N1_8 
REMARK    3  A    between atoms: N1_8  and  C6_10 
REMARK    4  A    between atoms: C6_10  and  C7_11 
REMARK    5  A    between atoms: C6_10  and  C23_36 
REMARK       I    between atoms: C7_11  and  N2_13 
REMARK    6  A    between atoms: N2_13  and  C8_15 
REMARK    7  A    between atoms: C8_15  and  C9_16 
REMARK    8  A    between atoms: C8_15  and  C16_23 
REMARK    9  A    between atoms: C9_16  and  C10_17 
REMARK   10  A    between atoms: C16_23  and  C17_25 
REMARK       I    between atoms: C17_25  and  N3_27 
REMARK   11  A    between atoms: N3_27  and  C18_29 
REMARK   12  A    between atoms: C21_32  and  O6_33 
ROOT
HETATM    1  C8  UNL     1      14.169  17.114  32.525  1.00  0.00     0.165 C 
ENDROOT
BRANCH   1   2
HETATM    2  N2  UNL     1      15.613  17.226  32.656  1.00  0.00    -0.347 N 
HETATM    3  C7  UNL     1      16.474  16.381  31.953  1.00  0.00     0.241 C 
HETATM    4  O3  UNL     1      15.877  15.531  31.176  1.00  0.00    -0.271 OA
ATOM      5  H2  UNL     1      16.004  17.937  33.273  1.00  0.00     0.163 HD
BRANCH   3   6
HETATM    6  C6  UNL     1      17.925  16.337  31.997  1.00  0.00     0.186 C 
BRANCH   6   7
HETATM    7  N1  UNL     1      18.353  14.969  32.348  1.00  0.00    -0.323 N 
HETATM    8  C5  UNL     1      18.807  14.610  33.625  1.00  0.00     0.362 C 
HETATM    9  O2  UNL     1      18.848  15.520  34.521  1.00  0.00    -0.238 OA
ATOM     10  H1  UNL     1      18.317  14.250  31.626  1.00  0.00     0.165 HD
BRANCH   8  11
HETATM   11  O1  UNL     1      19.214  13.363  33.999  1.00  0.00    -0.294 OA
BRANCH  11  12
HETATM   12  C2  UNL     1      18.404  12.238  34.173  1.00  0.00     0.061 C 
HETATM   13  C1  UNL     1      17.992  11.776  32.770  1.00  0.00     0.046 C 
HETATM   14  C3  UNL     1      17.127  12.534  34.924  1.00  0.00     0.046 C 
HETATM   15  C4  UNL     1      19.129  11.084  34.819  1.00  0.00     0.046 C 
ENDBRANCH  11  12
ENDBRANCH   8  11
ENDBRANCH   6   7
BRANCH   6  16
HETATM   16  C23 UNL     1      18.685  16.807  30.787  1.00  0.00    -0.022 C 
HETATM   17  C24 UNL     1      19.609  15.773  30.205  1.00  0.00     0.017 C 
HETATM   18  C25 UNL     1      17.867  17.435  29.715  1.00  0.00     0.017 C 
HETATM   19  C26 UNL     1      19.598  17.986  31.301  1.00  0.00     0.017 C 
ENDBRANCH   6  16
ENDBRANCH   3   6
ENDBRANCH   1   2
BRANCH   1  20
HETATM   20  C9  UNL     1      13.449  18.211  31.888  1.00  0.00     0.038 C 
BRANCH  20  21
HETATM   21  C10 UNL     1      14.065  19.067  30.866  1.00  0.00    -0.012 C 
HETATM   22  C11 UNL     1      14.261  18.568  29.495  1.00  0.00     0.005 C 
HETATM   23  C12 UNL     1      14.346  19.673  28.457  1.00  0.00     0.000 C 
HETATM   24  C13 UNL     1      15.043  20.898  28.986  1.00  0.00     0.000 C 
HETATM   25  C14 UNL     1      14.489  21.382  30.283  1.00  0.00     0.000 C 
HETATM   26  C15 UNL     1      13.404  20.443  30.758  1.00  0.00     0.005 C 
ENDBRANCH  20  21
ENDBRANCH   1  20
BRANCH   1  27
HETATM   27  C16 UNL     1      13.687  16.958  33.945  1.00  0.00     0.238 C 
HETATM   28  O4  UNL     1      12.764  17.727  34.393  1.00  0.00    -0.285 OA
BRANCH  27  29
HETATM   29  C17 UNL     1      14.200  15.982  34.875  1.00  0.00     0.289 C 
HETATM   30  O5  UNL     1      15.432  16.021  35.178  1.00  0.00    -0.264 OA
HETATM   31  N3  UNL     1      13.354  14.980  35.457  1.00  0.00    -0.350 N 
ATOM     32  H3  UNL     1      12.364  14.945  35.214  1.00  0.00     0.163 HD
BRANCH  31  33
HETATM   33  C18 UNL     1      13.896  14.031  36.374  1.00  0.00     0.087 C 
HETATM   34  C19 UNL     1      13.603  12.593  35.929  1.00  0.00     0.028 C 
HETATM   35  C20 UNL     1      12.101  12.528  36.197  1.00  0.00     0.034 C 
HETATM   36  C21 UNL     1      11.896  13.325  37.477  1.00  0.00     0.120 C 
HETATM   37  C22 UNL     1      13.193  14.053  37.718  1.00  0.00     0.057 C 
BRANCH  36  38
HETATM   38  O6  UNL     1      11.593  12.451  38.521  1.00  0.00    -0.396 OA
ATOM     39  H6  UNL     1      11.342  12.952  39.288  1.00  0.00     0.210 HD
ENDBRANCH  36  38
ENDBRANCH  31  33
ENDBRANCH  27  29
ENDBRANCH   1  27
TORSDOF 12
ENDMDL
MODEL 3
REMARK VINA RESULT: -8.510423392      1.642      2.549
REMARK  12 active torsions:
REMARK  status: ('A' for Active; 'I' for Inactive)
REMARK    1  A    between atoms: C2_2  and  O1_5 
REMARK    2  A    between atoms: O1_5  and  C5_6 
REMARK       I    between atoms: C5_6  and  N1_8 
REMARK    3  A    between atoms: N1_8  and  C6_10 
REMARK    4  A    between atoms: C6_10  and  C7_11 
REMARK    5  A    between atoms: C6_10  and  C23_36 
REMARK       I    between atoms: C7_11  and  N2_13 
REMARK    6  A    between atoms: N2_13  and  C8_15 
REMARK    7  A    between atoms: C8_15  and  C9_16 
REMARK    8  A    between atoms: C8_15  and  C16_23 
REMARK    9  A    between atoms: C9_16  and  C10_17 
REMARK   10  A    between atoms: C16_23  and  C17_25 
REMARK       I    between atoms: C17_25  and  N3_27 
REMARK   11  A    between atoms: N3_27  and  C18_29 
REMARK   12  A    between atoms: C21_32  and  O6_33 
ROOT
HETATM    1  C8  UNL     1      15.233  16.130  34.682  1.00  0.00     0.165 C 
ENDROOT
BRANCH   1   2
HETATM    2  N2  UNL     1      15.983  15.389  33.682  1.00  0.00    -0.347 N 
HETATM    3  C7  UNL     1      17.370  15.512  33.573  1.00  0.00     0.241 C 
HETATM    4  O3  UNL     1      17.908  16.307  34.445  1.00  0.00    -0.271 OA
ATOM      5  H2  UNL     1      15.486  14.766  33.045  1.00  0.00     0.163 HD
BRANCH   3   6
HETATM    6  C6  UNL     1      18.257  14.875  32.616  1.00  0.00     0.186 C 
BRANCH   6   7
HETATM    7  N1  UNL     1      17.943  13.435  32.555  1.00  0.00    -0.323 N 
HETATM    8  C5  UNL     1      18.432  12.502  33.480  1.00  0.00     0.362 C 
HETATM    9  O2  UNL     1      19.186  12.932  34.418  1.00  0.00    -0.238 OA
ATOM     10  H1  UNL     1      17.341  13.102  31.803  1.00  0.00     0.165 HD
BRANCH   8  11
HETATM   11  O1  UNL     1      18.172  11.163  33.467  1.00  0.00    -0.294 OA
BRANCH  11  12
HETATM   12  C2  UNL     1      18.529  10.234  34.447  1.00  0.00     0.061 C 
HETATM   13  C1  UNL     1      18.802   8.912  33.720  1.00  0.00     0.046 C 
HETATM   14  C3  UNL     1      17.422   9.961  35.439  1.00  0.00     0.046 C 
HETATM   15  C4  UNL     1      19.796  10.604  35.176  1.00  0.00     0.046 C 
ENDBRANCH  11  12
ENDBRANCH   8  11
ENDBRANCH   6   7
BRANCH   6  16
HETATM   16  C23 UNL     1      18.316  15.437  31.222  1.00  0.00    -0.022 C 
HETATM   17  C24 UNL     1      17.978  16.899  31.137  1.00  0.00     0.017 C 
HETATM   18  C25 UNL     1      19.561  15.146  30.462  1.00  0.00     0.017 C 
HETATM   19  C26 UNL     1      17.197  14.670  30.416  1.00  0.00     0.017 C 
ENDBRANCH   6  16
ENDBRANCH   3   6
ENDBRANCH   1   2
BRANCH   1  20
HETATM   20  C9  UNL     1      14.730  15.404  35.842  1.00  0.00     0.038 C 
BRANCH  20  21
HETATM   21  C10 UNL     1      14.130  14.068  35.734  1.00  0.00    -0.012 C 
HETATM   22  C11 UNL     1      14.981  12.868  35.710  1.00  0.00     0.005 C 
HETATM   23  C12 UNL     1      14.265  11.611  36.170  1.00  0.00     0.000 C 
HETATM   24  C13 UNL     1      12.820  11.593  35.750  1.00  0.00     0.000 C 
HETATM   25  C14 UNL     1      12.079  12.833  36.120  1.00  0.00     0.000 C 
HETATM   26  C15 UNL     1      13.024  13.821  36.763  1.00  0.00     0.005 C 
ENDBRANCH  20  21
ENDBRANCH   1  20
BRANCH   1  27
HETATM   27  C16 UNL     1      14.073  16.709  33.912  1.00  0.00     0.238 C 
HETATM   28  O4  UNL     1      12.926  16.819  34.475  1.00  0.00    -0.285 OA
BRANCH  27  29
HETATM   29  C17 UNL     1      14.150  17.160  32.544  1.00  0.00     0.289 C 
HETATM   30  O5  UNL     1      14.076  16.298  31.615  1.00  0.00    -0.264 OA
HETATM   31  N3  UNL     1      14.306  18.548  32.218  1.00  0.00    -0.350 N 
ATOM     32  H3  UNL     1      14.367  19.243  32.962  1.00  0.00     0.163 HD
BRANCH  31  33
HETATM   33  C18 UNL     1      14.378  18.959  30.854  1.00  0.00     0.087 C 
HETATM   34  C19 UNL     1      15.069  20.320  30.715  1.00  0.00     0.028 C 
HETATM   35  C20 UNL     1      13.993  21.231  31.303  1.00  0.00     0.034 C 
HETATM   36  C21 UNL     1      12.674  20.636  30.830  1.00  0.00     0.120 C 
HETATM   37  C22 UNL     1      13.015  19.279  30.269  1.00  0.00     0.057 C 
BRANCH  36  38
HETATM   38  O6  UNL     1      12.113  21.469  29.863  1.00  0.00    -0.396 OA
ATOM     39  H6  UNL     1      11.218  21.198  29.694  1.00  0.00     0.210 HD
ENDBRANCH  36  38
ENDBRANCH  31  33
ENDBRANCH  27  29
ENDBRANCH   1  27
TORSDOF 12
ENDMDL
MODEL 4
REMARK VINA RESULT: -8.479528773      2.243      7.359
REMARK  12 active torsions:
REMARK  status: ('A' for Active; 'I' for Inactive)
REMARK    1  A    between atoms: C2_2  and  O1_5 
REMARK    2  A    between atoms: O1_5  and  C5_6 
REMARK       I    between atoms: C5_6  and  N1_8 
REMARK    3  A    between atoms: N1_8  and  C6_10 
REMARK    4  A    between atoms: C6_10  and  C7_11 
REMARK    5  A    between atoms: C6_10  and  C23_36 
REMARK       I    between atoms: C7_11  and  N2_13 
REMARK    6  A    between atoms: N2_13  and  C8_15 
REMARK    7  A    between atoms: C8_15  and  C9_16 
REMARK    8  A    between atoms: C8_15  and  C16_23 
REMARK    9  A    between atoms: C9_16  and  C10_17 
REMARK   10  A    between atoms: C16_23  and  C17_25 
REMARK       I    between atoms: C17_25  and  N3_27 
REMARK   11  A    between atoms: N3_27  and  C18_29 
REMARK   12  A    between atoms: C21_32  and  O6_33 
ROOT
HETATM    1  C8  UNL     1      15.912  15.374  34.356  1.00  0.00     0.165 C 
ENDROOT
BRANCH   1   2
HETATM    2  N2  UNL     1      16.061  15.742  32.957  1.00  0.00    -0.347 N 
HETATM    3  C7  UNL     1      17.138  16.516  32.520  1.00  0.00     0.241 C 
HETATM    4  O3  UNL     1      17.980  16.840  33.451  1.00  0.00    -0.271 OA
ATOM      5  H2  UNL     1      15.364  15.429  32.282  1.00  0.00     0.163 HD
BRANCH   3   6
HETATM    6  C6  UNL     1      17.413  16.997  31.177  1.00  0.00     0.186 C 
BRANCH   6   7
HETATM    7  N1  UNL     1      17.126  18.442  31.117  1.00  0.00    -0.323 N 
HETATM    8  C5  UNL     1      15.826  18.968  31.127  1.00  0.00     0.362 C 
HETATM    9  O2  UNL     1      14.851  18.145  31.193  1.00  0.00    -0.238 OA
ATOM     10  H1  UNL     1      17.911  19.091  31.064  1.00  0.00     0.165 HD
BRANCH   8  11
HETATM   11  O1  UNL     1      15.508  20.294  31.073  1.00  0.00    -0.294 OA
BRANCH  11  12
HETATM   12  C2  UNL     1      14.878  20.958  30.019  1.00  0.00     0.061 C 
HETATM   13  C1  UNL     1      15.417  22.393  30.021  1.00  0.00     0.046 C 
HETATM   14  C3  UNL     1      13.380  21.058  30.188  1.00  0.00     0.046 C 
HETATM   15  C4  UNL     1      15.206  20.368  28.670  1.00  0.00     0.046 C 
ENDBRANCH  11  12
ENDBRANCH   8  11
ENDBRANCH   6   7
BRANCH   6  16
HETATM   16  C23 UNL     1      18.774  16.730  30.594  1.00  0.00    -0.022 C 
HETATM   17  C24 UNL     1      19.815  17.742  30.983  1.00  0.00     0.017 C 
HETATM   18  C25 UNL     1      19.296  15.349  30.780  1.00  0.00     0.017 C 
HETATM   19  C26 UNL     1      18.590  16.853  29.032  1.00  0.00     0.017 C 
ENDBRANCH   6  16
ENDBRANCH   3   6
ENDBRANCH   1   2
BRANCH   1  20
HETATM   20  C9  UNL     1      15.740  13.963  34.681  1.00  0.00     0.038 C 
BRANCH  20  21
HETATM   21  C10 UNL     1      16.878  13.047  34.836  1.00  0.00    -0.012 C 
HETATM   22  C11 UNL     1      16.659  11.647  35.232  1.00  0.00     0.005 C 
HETATM   23  C12 UNL     1      17.779  10.717  34.802  1.00  0.00     0.000 C 
HETATM   24  C13 UNL     1      19.128  11.381  34.868  1.00  0.00     0.000 C 
HETATM   25  C14 UNL     1      19.179  12.692  34.160  1.00  0.00     0.000 C 
HETATM   26  C15 UNL     1      17.809  13.037  33.622  1.00  0.00     0.005 C 
ENDBRANCH  20  21
ENDBRANCH   1  20
BRANCH   1  27
HETATM   27  C16 UNL     1      14.696  16.143  34.806  1.00  0.00     0.238 C 
HETATM   28  O4  UNL     1      14.717  17.425  34.809  1.00  0.00    -0.285 OA
BRANCH  27  29
HETATM   29  C17 UNL     1      13.468  15.532  35.254  1.00  0.00     0.289 C 
HETATM   30  O5  UNL     1      12.382  15.866  34.688  1.00  0.00    -0.264 OA
HETATM   31  N3  UNL     1      13.452  14.565  36.314  1.00  0.00    -0.350 N 
ATOM     32  H3  UNL     1      14.323  14.296  36.771  1.00  0.00     0.163 HD
BRANCH  31  33
HETATM   33  C18 UNL     1      12.219  13.981  36.731  1.00  0.00     0.087 C 
HETATM   34  C19 UNL     1      12.278  13.538  38.197  1.00  0.00     0.028 C 
HETATM   35  C20 UNL     1      13.217  12.340  38.081  1.00  0.00     0.034 C 
HETATM   36  C21 UNL     1      12.840  11.672  36.766  1.00  0.00     0.120 C 
HETATM   37  C22 UNL     1      11.945  12.653  36.051  1.00  0.00     0.057 C 
BRANCH  36  38
HETATM   38  O6  UNL     1      12.183  10.472  37.030  1.00  0.00    -0.396 OA
ATOM     39  H6  UNL     1      12.674   9.753  36.648  1.00  0.00     0.210 HD
ENDBRANCH  36  38
ENDBRANCH  31  33
ENDBRANCH  27  29
ENDBRANCH   1  27
TORSDOF 12
ENDMDL
MODEL 5
REMARK VINA RESULT: -8.448118129      2.491      7.683
REMARK  12 active torsions:
REMARK  status: ('A' for Active; 'I' for Inactive)
REMARK    1  A    between atoms: C2_2  and  O1_5 
REMARK    2  A    between atoms: O1_5  and  C5_6 
REMARK       I    between atoms: C5_6  and  N1_8 
REMARK    3  A    between atoms: N1_8  and  C6_10 
REMARK    4  A    between atoms: C6_10  and  C7_11 
REMARK    5  A    between atoms: C6_10  and  C23_36 
REMARK       I    between atoms: C7_11  and  N2_13 
REMARK    6  A    between atoms: N2_13  and  C8_15 
REMARK    7  A    between atoms: C8_15  and  C9_16 
REMARK    8  A    between atoms: C8_15  and  C16_23 
REMARK    9  A    between atoms: C9_16  and  C10_17 
REMARK   10  A    between atoms: C16_23  and  C17_25 
REMARK       I    between atoms: C17_25  and  N3_27 
REMARK   11  A    between atoms: N3_27  and  C18_29 
REMARK   12  A    between atoms: C21_32  and  O6_33 
ROOT
HETATM    1  C8  UNL     1      15.875  14.682  34.799  1.00  0.00     0.165 C 
ENDROOT
BRANCH   1   2
HETATM    2  N2  UNL     1      15.925  15.172  33.432  1.00  0.00    -0.347 N 
HETATM    3  C7  UNL     1      16.958  16.004  32.995  1.00  0.00     0.241 C 
HETATM    4  O3  UNL     1      17.855  16.264  33.895  1.00  0.00    -0.271 OA
ATOM      5  H2  UNL     1      15.190  14.903  32.778  1.00  0.00     0.163 HD
BRANCH   3   6
HETATM    6  C6  UNL     1      17.137  16.603  31.684  1.00  0.00     0.186 C 
BRANCH   6   7
HETATM    7  N1  UNL     1      16.846  18.046  31.773  1.00  0.00    -0.323 N 
HETATM    8  C5  UNL     1      15.552  18.560  31.942  1.00  0.00     0.362 C 
HETATM    9  O2  UNL     1      14.586  17.727  32.021  1.00  0.00    -0.238 OA
ATOM     10  H1  UNL     1      17.623  18.703  31.709  1.00  0.00     0.165 HD
BRANCH   8  11
HETATM   11  O1  UNL     1      15.229  19.883  32.030  1.00  0.00    -0.294 OA
BRANCH  11  12
HETATM   12  C2  UNL     1      14.573  20.647  31.063  1.00  0.00     0.061 C 
HETATM   13  C1  UNL     1      15.187  22.051  31.124  1.00  0.00     0.046 C 
HETATM   14  C3  UNL     1      13.095  20.809  31.335  1.00  0.00     0.046 C 
HETATM   15  C4  UNL     1      14.787  20.135  29.661  1.00  0.00     0.046 C 
ENDBRANCH  11  12
ENDBRANCH   8  11
ENDBRANCH   6   7
BRANCH   6  16
HETATM   16  C23 UNL     1      18.453  16.399  30.985  1.00  0.00    -0.022 C 
HETATM   17  C24 UNL     1      19.485  17.444  31.304  1.00  0.00     0.017 C 
HETATM   18  C25 UNL     1      19.040  15.037  31.100  1.00  0.00     0.017 C 
HETATM   19  C26 UNL     1      18.133  16.540  29.446  1.00  0.00     0.017 C 
ENDBRANCH   6  16
ENDBRANCH   3   6
ENDBRANCH   1   2
BRANCH   1  20
HETATM   20  C9  UNL     1      15.707  13.249  35.011  1.00  0.00     0.038 C 
BRANCH  20  21
HETATM   21  C10 UNL     1      16.847  12.329  35.103  1.00  0.00    -0.012 C 
HETATM   22  C11 UNL     1      16.630  10.897  35.367  1.00  0.00     0.005 C 
HETATM   23  C12 UNL     1      17.764  10.015  34.875  1.00  0.00     0.000 C 
HETATM   24  C13 UNL     1      19.107  10.676  35.024  1.00  0.00     0.000 C 
HETATM   25  C14 UNL     1      19.162  12.046  34.438  1.00  0.00     0.000 C 
HETATM   26  C15 UNL     1      17.799  12.432  33.909  1.00  0.00     0.005 C 
ENDBRANCH  20  21
ENDBRANCH   1  20
BRANCH   1  27
HETATM   27  C16 UNL     1      14.706  15.417  35.406  1.00  0.00     0.238 C 
HETATM   28  O4  UNL     1      14.737  16.696  35.500  1.00  0.00    -0.285 OA
BRANCH  27  29
HETATM   29  C17 UNL     1      13.516  14.777  35.910  1.00  0.00     0.289 C 
HETATM   30  O5  UNL     1      12.444  14.872  35.237  1.00  0.00    -0.264 OA
HETATM   31  N3  UNL     1      13.521  14.044  37.143  1.00  0.00    -0.350 N 
ATOM     32  H3  UNL     1      14.382  13.966  37.686  1.00  0.00     0.163 HD
BRANCH  31  33
HETATM   33  C18 UNL     1      12.326  13.423  37.611  1.00  0.00     0.087 C 
HETATM   34  C19 UNL     1      12.163  13.594  39.126  1.00  0.00     0.028 C 
HETATM   35  C20 UNL     1      13.265  12.662  39.624  1.00  0.00     0.034 C 
HETATM   36  C21 UNL     1      13.245  11.482  38.663  1.00  0.00     0.120 C 
HETATM   37  C22 UNL     1      12.376  11.910  37.507  1.00  0.00     0.057 C 
BRANCH  36  38
HETATM   38  O6  UNL     1      12.724  10.365  39.314  1.00  0.00    -0.396 OA
ATOM     39  H6  UNL     1      13.189   9.587  39.027  1.00  0.00     0.210 HD
ENDBRANCH  36  38
ENDBRANCH  31  33
ENDBRANCH  27  29
ENDBRANCH   1  27
TORSDOF 12
ENDMDL
