MODEL 1
REMARK VINA RESULT: -7.282126893      0.000      0.000
REMARK  6 active torsions:
REMARK  status: ('A' for Active; 'I' for Inactive)
REMARK       I    between atoms: N1_2  and  C3_4 
REMARK       I    between atoms: C3_4  and  N2_6 
REMARK    1  A    between atoms: N2_6  and  N3_8 
REMARK    2  A    between atoms: N3_8  and  C4_10 
REMARK       I    between atoms: N7_19  and  C8_21 
REMARK    3  A    between atoms: C8_21  and  C9_23 
REMARK    4  A    between atoms: C9_23  and  O3_24 
REMARK    5  A    between atoms: C9_23  and  N8_26 
REMARK    6  A    between atoms: N8_26  and  O4_27 
ROOT
HETATM    1  C4  UNL     1      19.573  49.192 -54.940  1.00  0.00     0.181 C 
HETATM    2  C5  UNL     1      20.291  48.203 -54.208  1.00  0.00     0.123 C 
HETATM    3  N4  UNL     1      20.893  47.404 -53.599  1.00  0.00    -0.190 NA
HETATM    4  C6  UNL     1      18.188  49.458 -54.622  1.00  0.00     0.205 A 
HETATM    5  N5  UNL     1      17.341  50.342 -55.186  1.00  0.00    -0.274 N 
ATOM      6  H5  UNL     1      17.564  50.978 -55.952  1.00  0.00     0.189 HD
HETATM    7  N6  UNL     1      16.174  50.245 -54.579  1.00  0.00    -0.263 N 
ATOM      8  H6  UNL     1      15.340  50.790 -54.795  1.00  0.00     0.190 HD
HETATM    9  C7  UNL     1      16.276  49.298 -53.625  1.00  0.00     0.248 A 
HETATM   10  N7  UNL     1      15.335  48.925 -52.824  1.00  0.00    -0.288 N 
ATOM     11  H7  UNL     1      15.513  48.197 -52.133  1.00  0.00     0.172 HD
HETATM   12  C8  UNL     1      14.050  49.529 -52.905  1.00  0.00     0.271 C 
HETATM   13  O2  UNL     1      13.910  50.674 -52.435  1.00  0.00    -0.269 OA
HETATM   14  O5  UNL     1      17.497  48.861 -53.692  1.00  0.00    -0.256 OA
ENDROOT
BRANCH   1  15
HETATM   15  N3  UNL     1      20.149  49.837 -55.868  1.00  0.00    -0.283 N 
ATOM     16  H3  UNL     1      19.943  49.532 -56.820  1.00  0.00     0.188 HD
BRANCH  15  17
HETATM   17  N2  UNL     1      21.014  50.890 -55.748  1.00  0.00    -0.250 N 
HETATM   18  C3  UNL     1      20.518  52.213 -55.695  1.00  0.00     0.336 C 
HETATM   19  N1  UNL     1      21.422  53.301 -55.570  1.00  0.00    -0.342 N 
HETATM   20  O1  UNL     1      19.276  52.419 -55.757  1.00  0.00    -0.245 OA
HETATM   21  C1  UNL     1      20.880  54.641 -55.517  1.00  0.00     0.154 C 
HETATM   22  C2  UNL     1      22.846  53.099 -55.496  1.00  0.00     0.154 C 
ATOM     23  H2  UNL     1      22.018  50.720 -55.698  1.00  0.00     0.191 HD
ENDBRANCH  15  17
ENDBRANCH   1  15
BRANCH  12  24
HETATM   24  C9  UNL     1      12.905  48.836 -53.522  1.00  0.00     0.331 C 
BRANCH  24  25
HETATM   25  O3  UNL     1      11.957  48.573 -52.543  1.00  0.00    -0.369 OA
ATOM     26  H3  UNL     1      11.176  48.222 -52.956  1.00  0.00     0.212 HD
ENDBRANCH  24  25
BRANCH  24  27
HETATM   27  N8  UNL     1      13.382  47.552 -54.055  1.00  0.00    -0.061 NA
BRANCH  27  28
HETATM   28  O4  UNL     1      13.071  46.573 -53.177  1.00  0.00    -0.293 OA
ATOM     29  H4  UNL     1      12.301  46.836 -52.687  1.00  0.00     0.238 HD
ENDBRANCH  27  28
ENDBRANCH  24  27
ENDBRANCH  12  24
TORSDOF 6
ENDMDL
MODEL 2
REMARK VINA RESULT: -7.169260729      7.216      8.341
REMARK  6 active torsions:
REMARK  status: ('A' for Active; 'I' for Inactive)
REMARK       I    between atoms: N1_2  and  C3_4 
REMARK       I    between atoms: C3_4  and  N2_6 
REMARK    1  A    between atoms: N2_6  and  N3_8 
REMARK    2  A    between atoms: N3_8  and  C4_10 
REMARK       I    between atoms: N7_19  and  C8_21 
REMARK    3  A    between atoms: C8_21  and  C9_23 
REMARK    4  A    between atoms: C9_23  and  O3_24 
REMARK    5  A    between atoms: C9_23  and  N8_26 
REMARK    6  A    between atoms: N8_26  and  O4_27 
ROOT
HETATM    1  C4  UNL     1      14.340  53.954 -50.666  1.00  0.00     0.181 C 
HETATM    2  C5  UNL     1      15.568  54.005 -49.946  1.00  0.00     0.123 C 
HETATM    3  N4  UNL     1      16.577  54.066 -49.353  1.00  0.00    -0.190 NA
HETATM    4  C6  UNL     1      13.201  53.267 -50.099  1.00  0.00     0.205 A 
HETATM    5  N5  UNL     1      11.964  53.106 -50.610  1.00  0.00    -0.274 N 
ATOM      6  H5  UNL     1      11.639  53.461 -51.509  1.00  0.00     0.189 HD
HETATM    7  N6  UNL     1      11.247  52.411 -49.749  1.00  0.00    -0.263 N 
ATOM      8  H6  UNL     1      10.272  52.135 -49.868  1.00  0.00     0.190 HD
HETATM    9  C7  UNL     1      12.025  52.128 -48.686  1.00  0.00     0.248 A 
HETATM   10  N7  UNL     1      11.667  51.462 -47.640  1.00  0.00    -0.288 N 
ATOM     11  H7  UNL     1      12.334  51.301 -46.886  1.00  0.00     0.172 HD
HETATM   12  C8  UNL     1      10.344  50.952 -47.539  1.00  0.00     0.271 C 
HETATM   13  O2  UNL     1       9.427  51.750 -47.267  1.00  0.00    -0.269 OA
HETATM   14  O5  UNL     1      13.181  52.661 -48.944  1.00  0.00    -0.256 OA
ENDROOT
BRANCH   1  15
HETATM   15  N3  UNL     1      14.247  54.512 -51.802  1.00  0.00    -0.283 N 
ATOM     16  H3  UNL     1      14.491  53.934 -52.606  1.00  0.00     0.188 HD
BRANCH  15  17
HETATM   17  N2  UNL     1      13.859  55.795 -52.078  1.00  0.00    -0.250 N 
HETATM   18  C3  UNL     1      12.564  56.052 -52.582  1.00  0.00     0.336 C 
HETATM   19  N1  UNL     1      12.169  57.386 -52.867  1.00  0.00    -0.342 N 
HETATM   20  O1  UNL     1      11.766  55.096 -52.775  1.00  0.00    -0.245 OA
HETATM   21  C1  UNL     1      10.836  57.613 -53.380  1.00  0.00     0.154 C 
HETATM   22  C2  UNL     1      13.057  58.500 -52.657  1.00  0.00     0.154 C 
ATOM     23  H2  UNL     1      14.507  56.567 -51.921  1.00  0.00     0.191 HD
ENDBRANCH  15  17
ENDBRANCH   1  15
BRANCH  12  24
HETATM   24  C9  UNL     1      10.045  49.524 -47.746  1.00  0.00     0.331 C 
BRANCH  24  25
HETATM   25  O3  UNL     1       8.670  49.362 -47.847  1.00  0.00    -0.369 OA
ATOM     26  H3  UNL     1       8.389  48.707 -47.218  1.00  0.00     0.212 HD
ENDBRANCH  24  25
BRANCH  24  27
HETATM   27  N8  UNL     1      10.509  48.784 -46.564  1.00  0.00    -0.061 NA
BRANCH  27  28
HETATM   28  O4  UNL     1      10.868  49.671 -45.609  1.00  0.00    -0.293 OA
ATOM     29  H4  UNL     1      11.200  50.455 -46.030  1.00  0.00     0.238 HD
ENDBRANCH  27  28
ENDBRANCH  24  27
ENDBRANCH  12  24
TORSDOF 6
ENDMDL
MODEL 3
REMARK VINA RESULT: -7.078955297      3.589      7.519
REMARK  6 active torsions:
REMARK  status: ('A' for Active; 'I' for Inactive)
REMARK       I    between atoms: N1_2  and  C3_4 
REMARK       I    between atoms: C3_4  and  N2_6 
REMARK    1  A    between atoms: N2_6  and  N3_8 
REMARK    2  A    between atoms: N3_8  and  C4_10 
REMARK       I    between atoms: N7_19  and  C8_21 
REMARK    3  A    between atoms: C8_21  and  C9_23 
REMARK    4  A    between atoms: C9_23  and  O3_24 
REMARK    5  A    between atoms: C9_23  and  N8_26 
REMARK    6  A    between atoms: N8_26  and  O4_27 
ROOT
HETATM    1  C4  UNL     1      15.925  49.234 -50.607  1.00  0.00     0.181 C 
HETATM    2  C5  UNL     1      16.932  49.975 -49.925  1.00  0.00     0.123 C 
HETATM    3  N4  UNL     1      17.765  50.570 -49.353  1.00  0.00    -0.190 NA
HETATM    4  C6  UNL     1      16.018  49.045 -52.038  1.00  0.00     0.205 A 
HETATM    5  N5  UNL     1      15.181  48.383 -52.863  1.00  0.00    -0.274 N 
ATOM      6  H5  UNL     1      14.328  47.900 -52.585  1.00  0.00     0.189 HD
HETATM    7  N6  UNL     1      15.657  48.468 -54.090  1.00  0.00    -0.263 N 
ATOM      8  H6  UNL     1      15.234  48.063 -54.925  1.00  0.00     0.190 HD
HETATM    9  C7  UNL     1      16.798  49.183 -54.049  1.00  0.00     0.248 A 
HETATM   10  N7  UNL     1      17.547  49.474 -55.060  1.00  0.00    -0.288 N 
ATOM     11  H7  UNL     1      18.395  50.024 -54.924  1.00  0.00     0.172 HD
HETATM   12  C8  UNL     1      17.191  49.029 -56.362  1.00  0.00     0.271 C 
HETATM   13  O2  UNL     1      17.382  47.831 -56.645  1.00  0.00    -0.269 OA
HETATM   14  O5  UNL     1      16.969  49.503 -52.802  1.00  0.00    -0.256 OA
ENDROOT
BRANCH   1  15
HETATM   15  N3  UNL     1      14.953  48.740 -49.960  1.00  0.00    -0.283 N 
ATOM     16  H3  UNL     1      14.567  47.870 -50.326  1.00  0.00     0.188 HD
BRANCH  15  17
HETATM   17  N2  UNL     1      14.358  49.233 -48.831  1.00  0.00    -0.250 N 
HETATM   18  C3  UNL     1      13.107  49.887 -48.914  1.00  0.00     0.336 C 
HETATM   19  N1  UNL     1      12.496  50.395 -47.737  1.00  0.00    -0.342 N 
HETATM   20  O1  UNL     1      12.540  50.013 -50.033  1.00  0.00    -0.245 OA
HETATM   21  C1  UNL     1      11.216  51.058 -47.860  1.00  0.00     0.154 C 
HETATM   22  C2  UNL     1      13.118  50.267 -46.445  1.00  0.00     0.154 C 
ATOM     23  H2  UNL     1      14.819  49.129 -47.927  1.00  0.00     0.191 HD
ENDBRANCH  15  17
ENDBRANCH   1  15
BRANCH  12  24
HETATM   24  C9  UNL     1      16.610  49.943 -57.362  1.00  0.00     0.331 C 
BRANCH  24  25
HETATM   25  O3  UNL     1      16.089  49.194 -58.408  1.00  0.00    -0.369 OA
ATOM     26  H3  UNL     1      16.560  48.370 -58.462  1.00  0.00     0.212 HD
ENDBRANCH  24  25
BRANCH  24  27
HETATM   27  N8  UNL     1      17.692  50.784 -57.894  1.00  0.00    -0.061 NA
BRANCH  27  28
HETATM   28  O4  UNL     1      18.851  50.090 -57.837  1.00  0.00    -0.293 OA
ATOM     29  H4  UNL     1      19.551  50.684 -57.597  1.00  0.00     0.238 HD
ENDBRANCH  27  28
ENDBRANCH  24  27
ENDBRANCH  12  24
TORSDOF 6
ENDMDL
MODEL 4
REMARK VINA RESULT: -7.034306448      1.952      2.789
REMARK  6 active torsions:
REMARK  status: ('A' for Active; 'I' for Inactive)
REMARK       I    between atoms: N1_2  and  C3_4 
REMARK       I    between atoms: C3_4  and  N2_6 
REMARK    1  A    between atoms: N2_6  and  N3_8 
REMARK    2  A    between atoms: N3_8  and  C4_10 
REMARK       I    between atoms: N7_19  and  C8_21 
REMARK    3  A    between atoms: C8_21  and  C9_23 
REMARK    4  A    between atoms: C9_23  and  O3_24 
REMARK    5  A    between atoms: C9_23  and  N8_26 
REMARK    6  A    between atoms: N8_26  and  O4_27 
ROOT
HETATM    1  C4  UNL     1      18.024  49.969 -56.639  1.00  0.00     0.181 C 
HETATM    2  C5  UNL     1      17.427  50.640 -57.744  1.00  0.00     0.123 C 
HETATM    3  N4  UNL     1      16.943  51.180 -58.665  1.00  0.00    -0.190 NA
HETATM    4  C6  UNL     1      17.188  49.426 -55.591  1.00  0.00     0.205 A 
HETATM    5  N5  UNL     1      17.549  48.762 -54.474  1.00  0.00    -0.274 N 
ATOM      6  H5  UNL     1      18.504  48.538 -54.195  1.00  0.00     0.189 HD
HETATM    7  N6  UNL     1      16.456  48.453 -53.804  1.00  0.00    -0.263 N 
ATOM      8  H6  UNL     1      16.420  47.950 -52.917  1.00  0.00     0.190 HD
HETATM    9  C7  UNL     1      15.396  48.919 -54.493  1.00  0.00     0.248 A 
HETATM   10  N7  UNL     1      14.158  48.804 -54.147  1.00  0.00    -0.288 N 
ATOM     11  H7  UNL     1      13.425  49.193 -54.741  1.00  0.00     0.172 HD
HETATM   12  C8  UNL     1      13.814  48.137 -52.940  1.00  0.00     0.271 C 
HETATM   13  O2  UNL     1      13.869  46.893 -52.921  1.00  0.00    -0.269 OA
HETATM   14  O5  UNL     1      15.887  49.490 -55.551  1.00  0.00    -0.256 OA
ENDROOT
BRANCH   1  15
HETATM   15  N3  UNL     1      19.285  49.847 -56.576  1.00  0.00    -0.283 N 
ATOM     16  H3  UNL     1      19.649  48.900 -56.680  1.00  0.00     0.188 HD
BRANCH  15  17
HETATM   17  N2  UNL     1      20.216  50.832 -56.385  1.00  0.00    -0.250 N 
HETATM   18  C3  UNL     1      20.523  51.275 -55.078  1.00  0.00     0.336 C 
HETATM   19  N1  UNL     1      21.491  52.297 -54.888  1.00  0.00    -0.342 N 
HETATM   20  O1  UNL     1      19.938  50.759 -54.088  1.00  0.00    -0.245 OA
HETATM   21  C1  UNL     1      21.781  52.725 -53.538  1.00  0.00     0.154 C 
HETATM   22  C2  UNL     1      22.177  52.906 -55.998  1.00  0.00     0.154 C 
ATOM     23  H2  UNL     1      20.688  51.247 -57.188  1.00  0.00     0.191 HD
ENDBRANCH  15  17
ENDBRANCH   1  15
BRANCH  12  24
HETATM   24  C9  UNL     1      13.402  48.878 -51.734  1.00  0.00     0.331 C 
BRANCH  24  25
HETATM   25  O3  UNL     1      13.208  47.977 -50.696  1.00  0.00    -0.369 OA
ATOM     26  H3  UNL     1      12.775  48.424 -49.977  1.00  0.00     0.212 HD
ENDBRANCH  24  25
BRANCH  24  27
HETATM   27  N8  UNL     1      12.118  49.535 -52.018  1.00  0.00    -0.061 NA
BRANCH  27  28
HETATM   28  O4  UNL     1      11.491  48.856 -53.004  1.00  0.00    -0.293 OA
ATOM     29  H4  UNL     1      11.971  48.981 -53.814  1.00  0.00     0.238 HD
ENDBRANCH  27  28
ENDBRANCH  24  27
ENDBRANCH  12  24
TORSDOF 6
ENDMDL
MODEL 5
REMARK VINA RESULT: -6.988356284      2.097      3.080
REMARK  6 active torsions:
REMARK  status: ('A' for Active; 'I' for Inactive)
REMARK       I    between atoms: N1_2  and  C3_4 
REMARK       I    between atoms: C3_4  and  N2_6 
REMARK    1  A    between atoms: N2_6  and  N3_8 
REMARK    2  A    between atoms: N3_8  and  C4_10 
REMARK       I    between atoms: N7_19  and  C8_21 
REMARK    3  A    between atoms: C8_21  and  C9_23 
REMARK    4  A    between atoms: C9_23  and  O3_24 
REMARK    5  A    between atoms: C9_23  and  N8_26 
REMARK    6  A    between atoms: N8_26  and  O4_27 
ROOT
HETATM    1  C4  UNL     1      17.800  49.980 -56.686  1.00  0.00     0.181 C 
HETATM    2  C5  UNL     1      17.281  50.587 -57.865  1.00  0.00     0.123 C 
HETATM    3  N4  UNL     1      16.864  51.075 -58.846  1.00  0.00    -0.190 NA
HETATM    4  C6  UNL     1      16.899  49.357 -55.742  1.00  0.00     0.205 A 
HETATM    5  N5  UNL     1      17.182  48.734 -54.580  1.00  0.00    -0.274 N 
ATOM      6  H5  UNL     1      18.113  48.607 -54.183  1.00  0.00     0.189 HD
HETATM    7  N6  UNL     1      16.051  48.318 -54.046  1.00  0.00    -0.263 N 
ATOM      8  H6  UNL     1      15.955  47.814 -53.164  1.00  0.00     0.190 HD
HETATM    9  C7  UNL     1      15.043  48.674 -54.867  1.00  0.00     0.248 A 
HETATM   10  N7  UNL     1      13.789  48.435 -54.675  1.00  0.00    -0.288 N 
ATOM     11  H7  UNL     1      13.101  48.748 -55.359  1.00  0.00     0.172 HD
HETATM   12  C8  UNL     1      13.367  47.738 -53.510  1.00  0.00     0.271 C 
HETATM   13  O2  UNL     1      13.542  46.506 -53.469  1.00  0.00    -0.269 OA
HETATM   14  O5  UNL     1      15.602  49.291 -55.864  1.00  0.00    -0.256 OA
ENDROOT
BRANCH   1  15
HETATM   15  N3  UNL     1      19.049  49.986 -56.466  1.00  0.00    -0.283 N 
ATOM     16  H3  UNL     1      19.564  49.167 -56.789  1.00  0.00     0.188 HD
BRANCH  15  17
HETATM   17  N2  UNL     1      19.789  50.957 -55.848  1.00  0.00    -0.250 N 
HETATM   18  C3  UNL     1      20.199  50.791 -54.505  1.00  0.00     0.336 C 
HETATM   19  N1  UNL     1      20.967  51.803 -53.871  1.00  0.00    -0.342 N 
HETATM   20  O1  UNL     1      19.880  49.744 -53.879  1.00  0.00    -0.245 OA
HETATM   21  C1  UNL     1      21.369  51.599 -52.497  1.00  0.00     0.154 C 
HETATM   22  C2  UNL     1      21.347  53.009 -54.560  1.00  0.00     0.154 C 
ATOM     23  H2  UNL     1      20.046  51.802 -56.358  1.00  0.00     0.191 HD
ENDBRANCH  15  17
ENDBRANCH   1  15
BRANCH  12  24
HETATM   24  C9  UNL     1      12.737  48.436 -52.374  1.00  0.00     0.331 C 
BRANCH  24  25
HETATM   25  O3  UNL     1      11.608  49.106 -52.827  1.00  0.00    -0.369 OA
ATOM     26  H3  UNL     1      11.692  50.028 -52.617  1.00  0.00     0.212 HD
ENDBRANCH  24  25
BRANCH  24  27
HETATM   27  N8  UNL     1      13.689  49.433 -51.866  1.00  0.00    -0.061 NA
BRANCH  27  28
HETATM   28  O4  UNL     1      14.827  48.801 -51.500  1.00  0.00    -0.293 OA
ATOM     29  H4  UNL     1      15.011  48.115 -52.129  1.00  0.00     0.238 HD
ENDBRANCH  27  28
ENDBRANCH  24  27
ENDBRANCH  12  24
TORSDOF 6
ENDMDL
