MODEL 1
REMARK VINA RESULT: -6.286035706      0.000      0.000
REMARK  9 active torsions:
REMARK  status: ('A' for Active; 'I' for Inactive)
REMARK    1  A    between atoms: N1_2  and  C2_4 
REMARK    2  A    between atoms: C4_14  and  C5_15 
REMARK    3  A    between atoms: C5_15  and  O1_16 
REMARK    4  A    between atoms: C5_15  and  O2_18 
REMARK    5  A    between atoms: O2_18  and  N6_19 
REMARK    6  A    between atoms: C6_22  and  N7_23 
REMARK    7  A    between atoms: N7_23  and  C7_25 
REMARK    8  A    between atoms: C7_25  and  C8_26 
REMARK    9  A    between atoms: C8_26  and  C9_27 
ROOT
HETATM    1  C2  UNL     1      10.602  50.113 -46.942  1.00  0.00     0.147 A 
HETATM    2  N2  UNL     1      10.693  49.658 -45.681  1.00  0.00    -0.269 N 
ATOM      3  H2  UNL     1       9.849  49.285 -45.246  1.00  0.00     0.190 HD
HETATM    4  N3  UNL     1      11.806  49.664 -44.970  1.00  0.00    -0.239 N 
ATOM      5  H3  UNL     1      11.793  49.300 -44.017  1.00  0.00     0.208 HD
HETATM    6  N4  UNL     1      12.936  50.132 -45.469  1.00  0.00    -0.269 N 
ATOM      7  H4  UNL     1      13.796  50.137 -44.921  1.00  0.00     0.190 HD
HETATM    8  C3  UNL     1      12.905  50.599 -46.727  1.00  0.00     0.152 A 
HETATM    9  N5  UNL     1      14.051  51.080 -47.251  1.00  0.00    -0.336 N 
ATOM     10  H5  UNL     1      14.908  51.082 -46.698  1.00  0.00     0.167 HD
HETATM   11  C4  UNL     1      14.055  51.556 -48.507  1.00  0.00     0.112 A 
HETATM   12  C6  UNL     1      12.907  51.556 -49.256  1.00  0.00     0.130 A 
HETATM   13  N8  UNL     1      11.734  51.082 -48.766  1.00  0.00    -0.335 N 
ATOM     14  H8  UNL     1      10.879  51.081 -49.321  1.00  0.00     0.168 HD
HETATM   15  C10 UNL     1      11.763  50.610 -47.500  1.00  0.00     0.125 A 
ENDROOT
BRANCH  11  16
HETATM   16  C5  UNL     1      15.349  52.085 -49.064  1.00  0.00     0.340 C 
BRANCH  16  17
HETATM   17  O1  UNL     1      15.638  51.327 -50.219  1.00  0.00    -0.364 OA
ATOM     18  H1  UNL     1      15.183  50.498 -50.126  1.00  0.00     0.213 HD
ENDBRANCH  16  17
BRANCH  16  19
HETATM   19  O2  UNL     1      15.223  53.425 -49.387  1.00  0.00    -0.248 OA
BRANCH  19  20
HETATM   20  N6  UNL     1      15.751  54.166 -48.408  1.00  0.00    -0.308 N 
ATOM     21  H62 UNL     1      15.811  55.184 -48.420  1.00  0.00     0.184 HD
ATOM     22  H61 UNL     1      16.080  53.552 -47.662  1.00  0.00     0.184 HD
ENDBRANCH  19  20
ENDBRANCH  16  19
ENDBRANCH  11  16
BRANCH  12  23
HETATM   23  N7  UNL     1      12.940  52.019 -50.459  1.00  0.00    -0.374 N 
ATOM     24  H7  UNL     1      13.658  51.675 -51.096  1.00  0.00     0.161 HD
BRANCH  23  25
HETATM   25  C7  UNL     1      11.999  53.008 -50.941  1.00  0.00     0.122 C 
BRANCH  25  26
HETATM   26  C8  UNL     1      12.734  54.135 -51.620  1.00  0.00     0.030 C 
BRANCH  26  27
HETATM   27  C9  UNL     1      12.377  54.124 -53.105  1.00  0.00     0.088 C 
HETATM   28  S1  UNL     1      12.009  55.834 -53.637  1.00  0.00    -0.098 SA
ENDBRANCH  26  27
ENDBRANCH  25  26
ENDBRANCH  23  25
ENDBRANCH  12  23
BRANCH   1  29
HETATM   29  N1  UNL     1       9.485  50.092 -47.617  1.00  0.00    -0.378 N 
HETATM   30  C1  UNL     1       8.531  51.160 -47.390  1.00  0.00     0.148 C 
ATOM     31  H1  UNL     1       9.288  49.347 -48.285  1.00  0.00     0.160 HD
ENDBRANCH   1  29
TORSDOF 9
ENDMDL
MODEL 2
REMARK VINA RESULT: -6.242097490      7.848     10.059
REMARK  9 active torsions:
REMARK  status: ('A' for Active; 'I' for Inactive)
REMARK    1  A    between atoms: N1_2  and  C2_4 
REMARK    2  A    between atoms: C4_14  and  C5_15 
REMARK    3  A    between atoms: C5_15  and  O1_16 
REMARK    4  A    between atoms: C5_15  and  O2_18 
REMARK    5  A    between atoms: O2_18  and  N6_19 
REMARK    6  A    between atoms: C6_22  and  N7_23 
REMARK    7  A    between atoms: N7_23  and  C7_25 
REMARK    8  A    between atoms: C7_25  and  C8_26 
REMARK    9  A    between atoms: C8_26  and  C9_27 
ROOT
HETATM    1  C2  UNL     1      20.119  49.222 -55.317  1.00  0.00     0.147 A 
HETATM    2  N2  UNL     1      20.754  48.619 -54.297  1.00  0.00    -0.269 N 
ATOM      3  H2  UNL     1      21.767  48.725 -54.235  1.00  0.00     0.190 HD
HETATM    4  N3  UNL     1      20.148  47.897 -53.371  1.00  0.00    -0.239 N 
ATOM      5  H3  UNL     1      20.702  47.471 -52.628  1.00  0.00     0.208 HD
HETATM    6  N4  UNL     1      18.840  47.717 -53.389  1.00  0.00    -0.269 N 
ATOM      7  H4  UNL     1      18.371  47.160 -52.675  1.00  0.00     0.190 HD
HETATM    8  C3  UNL     1      18.153  48.297 -54.386  1.00  0.00     0.152 A 
HETATM    9  N5  UNL     1      16.816  48.122 -54.418  1.00  0.00    -0.336 N 
ATOM     10  H5  UNL     1      16.353  47.564 -53.701  1.00  0.00     0.167 HD
HETATM   11  C4  UNL     1      16.099  48.689 -55.403  1.00  0.00     0.112 A 
HETATM   12  C6  UNL     1      16.714  49.440 -56.370  1.00  0.00     0.130 A 
HETATM   13  N8  UNL     1      18.056  49.640 -56.373  1.00  0.00    -0.335 N 
ATOM     14  H8  UNL     1      18.516  50.198 -57.092  1.00  0.00     0.168 HD
HETATM   15  C10 UNL     1      18.750  49.057 -55.371  1.00  0.00     0.125 A 
ENDROOT
BRANCH  11  16
HETATM   16  C5  UNL     1      14.609  48.476 -55.411  1.00  0.00     0.340 C 
BRANCH  16  17
HETATM   17  O1  UNL     1      14.284  47.907 -56.661  1.00  0.00    -0.364 OA
ATOM     18  H1  UNL     1      13.801  47.109 -56.483  1.00  0.00     0.213 HD
ENDBRANCH  16  17
BRANCH  16  19
HETATM   19  O2  UNL     1      14.239  47.627 -54.384  1.00  0.00    -0.248 OA
BRANCH  19  20
HETATM   20  N6  UNL     1      13.334  48.236 -53.612  1.00  0.00    -0.308 N 
ATOM     21  H62 UNL     1      12.387  48.474 -53.908  1.00  0.00     0.184 HD
ATOM     22  H61 UNL     1      13.743  48.422 -52.696  1.00  0.00     0.184 HD
ENDBRANCH  19  20
ENDBRANCH  16  19
ENDBRANCH  11  16
BRANCH  12  23
HETATM   23  N7  UNL     1      16.001  49.972 -57.303  1.00  0.00    -0.374 N 
ATOM     24  H7  UNL     1      15.023  49.696 -57.388  1.00  0.00     0.161 HD
BRANCH  23  25
HETATM   25  C7  UNL     1      16.533  50.944 -58.235  1.00  0.00     0.122 C 
BRANCH  25  26
HETATM   26  C8  UNL     1      15.548  51.185 -59.350  1.00  0.00     0.030 C 
BRANCH  26  27
HETATM   27  C9  UNL     1      15.882  52.520 -60.013  1.00  0.00     0.088 C 
HETATM   28  S1  UNL     1      15.963  52.276 -61.824  1.00  0.00    -0.098 SA
ENDBRANCH  26  27
ENDBRANCH  25  26
ENDBRANCH  23  25
ENDBRANCH  12  23
BRANCH   1  29
HETATM   29  N1  UNL     1      20.749  49.928 -56.216  1.00  0.00    -0.378 N 
HETATM   30  C1  UNL     1      20.979  51.333 -55.941  1.00  0.00     0.148 C 
ATOM     31  H1  UNL     1      21.070  49.505 -57.087  1.00  0.00     0.160 HD
ENDBRANCH   1  29
TORSDOF 9
ENDMDL
MODEL 3
REMARK VINA RESULT: -6.129911801      7.547      9.383
REMARK  9 active torsions:
REMARK  status: ('A' for Active; 'I' for Inactive)
REMARK    1  A    between atoms: N1_2  and  C2_4 
REMARK    2  A    between atoms: C4_14  and  C5_15 
REMARK    3  A    between atoms: C5_15  and  O1_16 
REMARK    4  A    between atoms: C5_15  and  O2_18 
REMARK    5  A    between atoms: O2_18  and  N6_19 
REMARK    6  A    between atoms: C6_22  and  N7_23 
REMARK    7  A    between atoms: N7_23  and  C7_25 
REMARK    8  A    between atoms: C7_25  and  C8_26 
REMARK    9  A    between atoms: C8_26  and  C9_27 
ROOT
HETATM    1  C2  UNL     1      18.738  47.881 -52.950  1.00  0.00     0.147 A 
HETATM    2  N2  UNL     1      20.075  47.818 -52.829  1.00  0.00    -0.269 N 
ATOM      3  H2  UNL     1      20.459  47.412 -51.975  1.00  0.00     0.190 HD
HETATM    4  N3  UNL     1      20.923  48.250 -53.745  1.00  0.00    -0.239 N 
ATOM      5  H3  UNL     1      21.926  48.168 -53.577  1.00  0.00     0.208 HD
HETATM    6  N4  UNL     1      20.497  48.788 -54.874  1.00  0.00    -0.269 N 
ATOM      7  H4  UNL     1      21.150  49.123 -55.582  1.00  0.00     0.190 HD
HETATM    8  C3  UNL     1      19.169  48.876 -55.051  1.00  0.00     0.152 A 
HETATM    9  N5  UNL     1      18.719  49.422 -56.198  1.00  0.00    -0.336 N 
ATOM     10  H5  UNL     1      19.378  49.754 -56.902  1.00  0.00     0.167 HD
HETATM   11  C4  UNL     1      17.396  49.525 -56.406  1.00  0.00     0.112 A 
HETATM   12  C6  UNL     1      16.505  49.081 -55.464  1.00  0.00     0.130 A 
HETATM   13  N8  UNL     1      16.918  48.526 -54.297  1.00  0.00    -0.335 N 
ATOM     14  H8  UNL     1      16.257  48.195 -53.595  1.00  0.00     0.168 HD
HETATM   15  C10 UNL     1      18.253  48.436 -54.117  1.00  0.00     0.125 A 
ENDROOT
BRANCH  11  16
HETATM   16  C5  UNL     1      16.924  50.139 -57.697  1.00  0.00     0.340 C 
BRANCH  16  17
HETATM   17  O1  UNL     1      16.224  49.132 -58.397  1.00  0.00    -0.364 OA
ATOM     18  H1  UNL     1      15.335  49.445 -58.515  1.00  0.00     0.213 HD
ENDBRANCH  16  17
BRANCH  16  19
HETATM   19  O2  UNL     1      16.093  51.215 -57.443  1.00  0.00    -0.248 OA
BRANCH  19  20
HETATM   20  N6  UNL     1      15.234  51.358 -58.457  1.00  0.00    -0.308 N 
ATOM     21  H62 UNL     1      14.282  50.991 -58.466  1.00  0.00     0.184 HD
ATOM     22  H61 UNL     1      15.683  51.885 -59.206  1.00  0.00     0.184 HD
ENDBRANCH  19  20
ENDBRANCH  16  19
ENDBRANCH  11  16
BRANCH  12  23
HETATM   23  N7  UNL     1      15.241  49.193 -55.690  1.00  0.00    -0.374 N 
ATOM     24  H7  UNL     1      14.883  50.083 -56.035  1.00  0.00     0.161 HD
BRANCH  23  25
HETATM   25  C7  UNL     1      14.309  48.106 -55.474  1.00  0.00     0.122 C 
BRANCH  25  26
HETATM   26  C8  UNL     1      13.386  48.435 -54.329  1.00  0.00     0.030 C 
BRANCH  26  27
HETATM   27  C9  UNL     1      13.727  47.525 -53.152  1.00  0.00     0.088 C 
HETATM   28  S1  UNL     1      13.932  48.550 -51.651  1.00  0.00    -0.098 SA
ENDBRANCH  26  27
ENDBRANCH  25  26
ENDBRANCH  23  25
ENDBRANCH  12  23
BRANCH   1  29
HETATM   29  N1  UNL     1      17.929  47.443 -52.024  1.00  0.00    -0.378 N 
HETATM   30  C1  UNL     1      18.242  47.752 -50.643  1.00  0.00     0.148 C 
ATOM     31  H1  UNL     1      17.099  46.900 -52.265  1.00  0.00     0.160 HD
ENDBRANCH   1  29
TORSDOF 9
ENDMDL
MODEL 4
REMARK VINA RESULT: -6.096718589      3.442      5.093
REMARK  9 active torsions:
REMARK  status: ('A' for Active; 'I' for Inactive)
REMARK    1  A    between atoms: N1_2  and  C2_4 
REMARK    2  A    between atoms: C4_14  and  C5_15 
REMARK    3  A    between atoms: C5_15  and  O1_16 
REMARK    4  A    between atoms: C5_15  and  O2_18 
REMARK    5  A    between atoms: O2_18  and  N6_19 
REMARK    6  A    between atoms: C6_22  and  N7_23 
REMARK    7  A    between atoms: N7_23  and  C7_25 
REMARK    8  A    between atoms: C7_25  and  C8_26 
REMARK    9  A    between atoms: C8_26  and  C9_27 
ROOT
HETATM    1  C2  UNL     1      16.491  48.036 -49.521  1.00  0.00     0.147 A 
HETATM    2  N2  UNL     1      17.338  47.374 -48.714  1.00  0.00    -0.269 N 
ATOM      3  H2  UNL     1      18.170  46.957 -49.133  1.00  0.00     0.190 HD
HETATM    4  N3  UNL     1      17.160  47.229 -47.413  1.00  0.00    -0.239 N 
ATOM      5  H3  UNL     1      17.850  46.712 -46.868  1.00  0.00     0.208 HD
HETATM    6  N4  UNL     1      16.107  47.742 -46.804  1.00  0.00    -0.269 N 
ATOM      7  H4  UNL     1      15.967  47.631 -45.799  1.00  0.00     0.190 HD
HETATM    8  C3  UNL     1      15.225  48.415 -47.561  1.00  0.00     0.152 A 
HETATM    9  N5  UNL     1      14.144  48.944 -46.953  1.00  0.00    -0.336 N 
ATOM     10  H5  UNL     1      14.012  48.830 -45.949  1.00  0.00     0.167 HD
HETATM   11  C4  UNL     1      13.243  49.623 -47.682  1.00  0.00     0.112 A 
HETATM   12  C6  UNL     1      13.415  49.781 -49.033  1.00  0.00     0.130 A 
HETATM   13  N8  UNL     1      14.489  49.264 -49.682  1.00  0.00    -0.335 N 
ATOM     14  H8  UNL     1      14.618  49.380 -50.686  1.00  0.00     0.168 HD
HETATM   15  C10 UNL     1      15.377  48.587 -48.922  1.00  0.00     0.125 A 
ENDROOT
BRANCH  11  16
HETATM   16  C5  UNL     1      12.047  50.203 -46.976  1.00  0.00     0.340 C 
BRANCH  16  17
HETATM   17  O1  UNL     1      12.075  51.597 -47.200  1.00  0.00    -0.364 OA
ATOM     18  H1  UNL     1      11.425  51.981 -46.624  1.00  0.00     0.213 HD
ENDBRANCH  16  17
BRANCH  16  19
HETATM   19  O2  UNL     1      10.880  49.658 -47.479  1.00  0.00    -0.248 OA
BRANCH  19  20
HETATM   20  N6  UNL     1       9.836  50.365 -47.036  1.00  0.00    -0.308 N 
ATOM     21  H62 UNL     1       9.741  50.724 -46.086  1.00  0.00     0.184 HD
ATOM     22  H61 UNL     1       9.164  50.483 -47.794  1.00  0.00     0.184 HD
ENDBRANCH  19  20
ENDBRANCH  16  19
ENDBRANCH  11  16
BRANCH  12  23
HETATM   23  N7  UNL     1      12.534  50.438 -49.707  1.00  0.00    -0.374 N 
ATOM     24  H7  UNL     1      11.551  50.344 -49.450  1.00  0.00     0.161 HD
BRANCH  23  25
HETATM   25  C7  UNL     1      12.883  51.302 -50.815  1.00  0.00     0.122 C 
BRANCH  25  26
HETATM   26  C8  UNL     1      12.364  52.695 -50.568  1.00  0.00     0.030 C 
BRANCH  26  27
HETATM   27  C9  UNL     1      13.286  53.689 -51.273  1.00  0.00     0.088 C 
HETATM   28  S1  UNL     1      12.474  54.262 -52.808  1.00  0.00    -0.098 SA
ENDBRANCH  26  27
ENDBRANCH  25  26
ENDBRANCH  23  25
ENDBRANCH  12  23
BRANCH   1  29
HETATM   29  N1  UNL     1      16.697  48.160 -50.804  1.00  0.00    -0.378 N 
HETATM   30  C1  UNL     1      17.677  47.290 -51.425  1.00  0.00     0.148 C 
ATOM     31  H1  UNL     1      16.184  48.849 -51.354  1.00  0.00     0.160 HD
ENDBRANCH   1  29
TORSDOF 9
ENDMDL
MODEL 5
REMARK VINA RESULT: -6.092328804      3.777      5.397
REMARK  9 active torsions:
REMARK  status: ('A' for Active; 'I' for Inactive)
REMARK    1  A    between atoms: N1_2  and  C2_4 
REMARK    2  A    between atoms: C4_14  and  C5_15 
REMARK    3  A    between atoms: C5_15  and  O1_16 
REMARK    4  A    between atoms: C5_15  and  O2_18 
REMARK    5  A    between atoms: O2_18  and  N6_19 
REMARK    6  A    between atoms: C6_22  and  N7_23 
REMARK    7  A    between atoms: N7_23  and  C7_25 
REMARK    8  A    between atoms: C7_25  and  C8_26 
REMARK    9  A    between atoms: C8_26  and  C9_27 
ROOT
HETATM    1  C2  UNL     1      16.567  48.124 -49.842  1.00  0.00     0.147 A 
HETATM    2  N2  UNL     1      17.461  47.385 -49.163  1.00  0.00    -0.269 N 
ATOM      3  H2  UNL     1      18.273  47.032 -49.670  1.00  0.00     0.190 HD
HETATM    4  N3  UNL     1      17.353  47.086 -47.881  1.00  0.00    -0.239 N 
ATOM      5  H3  UNL     1      18.075  46.518 -47.437  1.00  0.00     0.208 HD
HETATM    6  N4  UNL     1      16.329  47.508 -47.162  1.00  0.00    -0.269 N 
ATOM      7  H4  UNL     1      16.244  47.278 -46.172  1.00  0.00     0.190 HD
HETATM    8  C3  UNL     1      15.404  48.253 -47.788  1.00  0.00     0.152 A 
HETATM    9  N5  UNL     1      14.352  48.692 -47.068  1.00  0.00    -0.336 N 
ATOM     10  H5  UNL     1      14.274  48.458 -46.078  1.00  0.00     0.167 HD
HETATM   11  C4  UNL     1      13.408  49.438 -47.664  1.00  0.00     0.112 A 
HETATM   12  C6  UNL     1      13.507  49.756 -48.994  1.00  0.00     0.130 A 
HETATM   13  N8  UNL     1      14.549  49.334 -49.753  1.00  0.00    -0.335 N 
ATOM     14  H8  UNL     1      14.624  49.569 -50.742  1.00  0.00     0.168 HD
HETATM   15  C10 UNL     1      15.481  48.585 -49.125  1.00  0.00     0.125 A 
ENDROOT
BRANCH  11  16
HETATM   16  C5  UNL     1      12.247  49.914 -46.833  1.00  0.00     0.340 C 
BRANCH  16  17
HETATM   17  O1  UNL     1      12.253  51.325 -46.891  1.00  0.00    -0.364 OA
ATOM     18  H1  UNL     1      11.650  51.631 -46.224  1.00  0.00     0.213 HD
ENDBRANCH  16  17
BRANCH  16  19
HETATM   19  O2  UNL     1      11.058  49.417 -47.338  1.00  0.00    -0.248 OA
BRANCH  19  20
HETATM   20  N6  UNL     1      10.054  50.219 -46.972  1.00  0.00    -0.308 N 
ATOM     21  H62 UNL     1       9.984  51.207 -47.216  1.00  0.00     0.184 HD
ATOM     22  H61 UNL     1       9.383  49.687 -46.418  1.00  0.00     0.184 HD
ENDBRANCH  19  20
ENDBRANCH  16  19
ENDBRANCH  11  16
BRANCH  12  23
HETATM   23  N7  UNL     1      12.586  50.474 -49.540  1.00  0.00    -0.374 N 
ATOM     24  H7  UNL     1      11.619  50.332 -49.250  1.00  0.00     0.161 HD
BRANCH  23  25
HETATM   25  C7  UNL     1      12.870  51.474 -50.548  1.00  0.00     0.122 C 
BRANCH  25  26
HETATM   26  C8  UNL     1      12.990  52.834 -49.909  1.00  0.00     0.030 C 
BRANCH  26  27
HETATM   27  C9  UNL     1      14.292  53.479 -50.379  1.00  0.00     0.088 C 
HETATM   28  S1  UNL     1      15.335  53.838 -48.920  1.00  0.00    -0.098 SA
ENDBRANCH  26  27
ENDBRANCH  25  26
ENDBRANCH  23  25
ENDBRANCH  12  23
BRANCH   1  29
HETATM   29  N1  UNL     1      16.704  48.401 -51.110  1.00  0.00    -0.378 N 
HETATM   30  C1  UNL     1      17.669  47.635 -51.875  1.00  0.00     0.148 C 
ATOM     31  H1  UNL     1      16.149  49.135 -51.551  1.00  0.00     0.160 HD
ENDBRANCH   1  29
TORSDOF 9
ENDMDL
