MODEL 1
REMARK VINA RESULT: -6.976991809      0.000      0.000
REMARK  6 active torsions:
REMARK  status: ('A' for Active; 'I' for Inactive)
REMARK    1  A    between atoms: N1_1  and  C1_4 
REMARK    2  A    between atoms: C1_4  and  N2_5 
REMARK    3  A    between atoms: N2_5  and  S1_7 
REMARK    4  A    between atoms: S1_7  and  N3_10 
REMARK    5  A    between atoms: N3_10  and  C2_12 
REMARK    6  A    between atoms: C5_23  and  N8_24 
ROOT
HETATM    1  C2  UNL     1      14.035  50.005 -50.753  1.00  0.00     0.176 A 
HETATM    2  N4  UNL     1      12.996  49.252 -51.125  1.00  0.00    -0.277 N 
ATOM      3  H4  UNL     1      12.275  49.120 -50.417  1.00  0.00     0.189 HD
HETATM    4  N5  UNL     1      12.776  48.667 -52.253  1.00  0.00    -0.281 N 
ATOM      5  H5  UNL     1      11.908  48.136 -52.317  1.00  0.00     0.188 HD
HETATM    6  C3  UNL     1      13.543  48.667 -53.355  1.00  0.00     0.172 A 
HETATM    7  N6  UNL     1      13.379  48.079 -54.573  1.00  0.00    -0.170 N 
ATOM      8  H6  UNL     1      12.575  47.506 -54.832  1.00  0.00     0.186 HD
HETATM    9  C4  UNL     1      14.409  48.349 -55.385  1.00  0.00     0.721 A 
HETATM   10  N7  UNL     1      14.948  48.172 -56.597  1.00  0.00    -0.019 N 
ATOM     11  H7  UNL     1      14.544  47.629 -57.360  1.00  0.00     0.203 HD
HETATM   12  C5  UNL     1      16.124  48.842 -56.632  1.00  0.00     0.706 A 
HETATM   13  N9  UNL     1      16.268  49.414 -55.425  1.00  0.00    -0.110 N 
ATOM     14  H9  UNL     1      17.062  49.990 -55.144  1.00  0.00     0.207 HD
HETATM   15  N10 UNL     1      15.237  49.125 -54.658  1.00  0.00    -0.060 N 
HETATM   16  C6  UNL     1      14.747  49.334 -53.439  1.00  0.00     0.165 A 
HETATM   17  S2  UNL     1      15.183  50.168 -52.000  1.00  0.00    -0.028 SA
ENDROOT
BRANCH   1  18
HETATM   18  N3  UNL     1      14.060  50.496 -49.577  1.00  0.00    -0.245 N 
ATOM     19  H3  UNL     1      14.716  51.256 -49.405  1.00  0.00     0.182 HD
BRANCH  18  20
HETATM   20  S1  UNL     1      13.099  49.997 -48.276  1.00  0.00     0.325 S 
HETATM   21  O1  UNL     1      11.625  50.312 -48.494  1.00  0.00    -0.182 OA
HETATM   22  O2  UNL     1      13.166  48.478 -48.204  1.00  0.00    -0.182 OA
BRANCH  20  23
HETATM   23  N2  UNL     1      13.587  50.624 -46.763  1.00  0.00    -0.264 N 
ATOM     24  H2  UNL     1      14.294  51.359 -46.745  1.00  0.00     0.181 HD
BRANCH  23  25
HETATM   25  C1  UNL     1      13.054  50.167 -45.538  1.00  0.00     0.186 C 
BRANCH  25  26
HETATM   26  N1  UNL     1      11.877  49.653 -45.450  1.00  0.00    -0.395 N 
ATOM     27  H12 UNL     1      11.529  49.119 -46.246  1.00  0.00     0.156 HD
ATOM     28  H11 UNL     1      11.294  49.764 -44.619  1.00  0.00     0.156 HD
ENDBRANCH  25  26
ENDBRANCH  23  25
ENDBRANCH  20  23
ENDBRANCH  18  20
ENDBRANCH   1  18
BRANCH  12  29
HETATM   29  N8  UNL     1      16.952  48.922 -57.624  1.00  0.00    -0.233 N 
ATOM     30  H82 UNL     1      16.784  49.386 -58.516  1.00  0.00     0.174 HD
ATOM     31  H81 UNL     1      17.896  48.540 -57.673  1.00  0.00     0.174 HD
ENDBRANCH  12  29
TORSDOF 6
ENDMDL
MODEL 2
REMARK VINA RESULT: -6.782056869      1.172      1.264
REMARK  6 active torsions:
REMARK  status: ('A' for Active; 'I' for Inactive)
REMARK    1  A    between atoms: N1_1  and  C1_4 
REMARK    2  A    between atoms: C1_4  and  N2_5 
REMARK    3  A    between atoms: N2_5  and  S1_7 
REMARK    4  A    between atoms: S1_7  and  N3_10 
REMARK    5  A    between atoms: N3_10  and  C2_12 
REMARK    6  A    between atoms: C5_23  and  N8_24 
ROOT
HETATM    1  C2  UNL     1      13.769  50.363 -50.845  1.00  0.00     0.176 A 
HETATM    2  N4  UNL     1      12.778  49.537 -51.194  1.00  0.00    -0.277 N 
ATOM      3  H4  UNL     1      12.031  49.434 -50.507  1.00  0.00     0.189 HD
HETATM    4  N5  UNL     1      12.632  48.852 -52.277  1.00  0.00    -0.281 N 
ATOM      5  H5  UNL     1      11.789  48.281 -52.331  1.00  0.00     0.188 HD
HETATM    6  C3  UNL     1      13.445  48.794 -53.342  1.00  0.00     0.172 A 
HETATM    7  N6  UNL     1      13.359  48.100 -54.512  1.00  0.00    -0.170 N 
ATOM      8  H6  UNL     1      12.591  47.474 -54.755  1.00  0.00     0.186 HD
HETATM    9  C4  UNL     1      14.413  48.347 -55.302  1.00  0.00     0.721 A 
HETATM   10  N7  UNL     1      15.011  48.094 -56.471  1.00  0.00    -0.019 N 
ATOM     11  H7  UNL     1      14.663  47.472 -57.201  1.00  0.00     0.203 HD
HETATM   12  C5  UNL     1      16.160  48.808 -56.515  1.00  0.00     0.706 A 
HETATM   13  N9  UNL     1      16.228  49.483 -55.356  1.00  0.00    -0.110 N 
ATOM     14  H9  UNL     1      16.985  50.114 -55.092  1.00  0.00     0.207 HD
HETATM   15  N10 UNL     1      15.176  49.215 -54.609  1.00  0.00    -0.060 N 
HETATM   16  C6  UNL     1      14.625  49.502 -53.433  1.00  0.00     0.165 A 
HETATM   17  S2  UNL     1      14.963  50.471 -52.053  1.00  0.00    -0.028 SA
ENDROOT
BRANCH   1  18
HETATM   18  N3  UNL     1      13.722  50.949 -49.715  1.00  0.00    -0.245 N 
ATOM     19  H3  UNL     1      14.213  51.839 -49.632  1.00  0.00     0.182 HD
BRANCH  18  20
HETATM   20  S1  UNL     1      12.917  50.382 -48.338  1.00  0.00     0.325 S 
HETATM   21  O1  UNL     1      12.952  48.864 -48.234  1.00  0.00    -0.182 OA
HETATM   22  O2  UNL     1      13.681  50.875 -47.117  1.00  0.00    -0.182 OA
BRANCH  20  23
HETATM   23  N2  UNL     1      11.298  50.914 -48.204  1.00  0.00    -0.264 N 
ATOM     24  H2  UNL     1      10.983  51.675 -48.806  1.00  0.00     0.181 HD
BRANCH  23  25
HETATM   25  C1  UNL     1      10.380  50.347 -47.294  1.00  0.00     0.186 C 
BRANCH  25  26
HETATM   26  N1  UNL     1      10.759  49.687 -46.256  1.00  0.00    -0.395 N 
ATOM     27  H12 UNL     1      11.756  49.672 -46.039  1.00  0.00     0.156 HD
ATOM     28  H11 UNL     1      10.101  49.188 -45.656  1.00  0.00     0.156 HD
ENDBRANCH  25  26
ENDBRANCH  23  25
ENDBRANCH  20  23
ENDBRANCH  18  20
ENDBRANCH   1  18
BRANCH  12  29
HETATM   29  N8  UNL     1      17.028  48.841 -57.475  1.00  0.00    -0.233 N 
ATOM     30  H82 UNL     1      17.888  48.297 -57.532  1.00  0.00     0.174 HD
ATOM     31  H81 UNL     1      16.993  49.410 -58.320  1.00  0.00     0.174 HD
ENDBRANCH  12  29
TORSDOF 6
ENDMDL
MODEL 3
REMARK VINA RESULT: -6.667921083      1.588      1.692
REMARK  6 active torsions:
REMARK  status: ('A' for Active; 'I' for Inactive)
REMARK    1  A    between atoms: N1_1  and  C1_4 
REMARK    2  A    between atoms: C1_4  and  N2_5 
REMARK    3  A    between atoms: N2_5  and  S1_7 
REMARK    4  A    between atoms: S1_7  and  N3_10 
REMARK    5  A    between atoms: N3_10  and  C2_12 
REMARK    6  A    between atoms: C5_23  and  N8_24 
ROOT
HETATM    1  C2  UNL     1      14.247  49.842 -50.670  1.00  0.00     0.176 A 
HETATM    2  N4  UNL     1      13.374  48.861 -50.916  1.00  0.00    -0.277 N 
ATOM      3  H4  UNL     1      12.805  48.572 -50.120  1.00  0.00     0.189 HD
HETATM    4  N5  UNL     1      13.149  48.227 -52.016  1.00  0.00    -0.281 N 
ATOM      5  H5  UNL     1      12.429  47.506 -51.974  1.00  0.00     0.188 HD
HETATM    6  C3  UNL     1      13.739  48.394 -53.210  1.00  0.00     0.172 A 
HETATM    7  N6  UNL     1      13.557  47.769 -54.406  1.00  0.00    -0.170 N 
ATOM      8  H6  UNL     1      12.883  47.021 -54.568  1.00  0.00     0.186 HD
HETATM    9  C4  UNL     1      14.376  48.265 -55.343  1.00  0.00     0.721 A 
HETATM   10  N7  UNL     1      14.775  48.206 -56.619  1.00  0.00    -0.019 N 
ATOM     11  H7  UNL     1      14.411  47.573 -57.332  1.00  0.00     0.203 HD
HETATM   12  C5  UNL     1      15.745  49.133 -56.797  1.00  0.00     0.706 A 
HETATM   13  N9  UNL     1      15.910  49.737 -55.608  1.00  0.00    -0.110 N 
ATOM     14  H9  UNL     1      16.577  50.487 -55.424  1.00  0.00     0.207 HD
HETATM   15  N10 UNL     1      15.089  49.223 -54.716  1.00  0.00    -0.060 N 
HETATM   16  C6  UNL     1      14.731  49.325 -53.439  1.00  0.00     0.165 A 
HETATM   17  S2  UNL     1      15.147  50.256 -52.055  1.00  0.00    -0.028 SA
ENDROOT
BRANCH   1  18
HETATM   18  N3  UNL     1      14.313  50.339 -49.498  1.00  0.00    -0.245 N 
ATOM     19  H3  UNL     1      15.239  50.426 -49.082  1.00  0.00     0.182 HD
BRANCH  18  20
HETATM   20  S1  UNL     1      12.999  50.866 -48.571  1.00  0.00     0.325 S 
HETATM   21  O1  UNL     1      12.003  49.748 -48.294  1.00  0.00    -0.182 OA
HETATM   22  O2  UNL     1      13.527  51.267 -47.201  1.00  0.00    -0.182 OA
BRANCH  20  23
HETATM   23  N2  UNL     1      12.166  52.205 -49.233  1.00  0.00    -0.264 N 
ATOM     24  H2  UNL     1      12.534  52.639 -50.079  1.00  0.00     0.181 HD
BRANCH  23  25
HETATM   25  C1  UNL     1      10.991  52.734 -48.657  1.00  0.00     0.186 C 
BRANCH  25  26
HETATM   26  N1  UNL     1      10.417  52.190 -47.641  1.00  0.00    -0.395 N 
ATOM     27  H12 UNL     1       9.770  51.421 -47.815  1.00  0.00     0.156 HD
ATOM     28  H11 UNL     1      10.590  52.502 -46.685  1.00  0.00     0.156 HD
ENDBRANCH  25  26
ENDBRANCH  23  25
ENDBRANCH  20  23
ENDBRANCH  18  20
ENDBRANCH   1  18
BRANCH  12  29
HETATM   29  N8  UNL     1      16.390  49.394 -57.888  1.00  0.00    -0.233 N 
ATOM     30  H82 UNL     1      16.517  48.766 -58.681  1.00  0.00     0.174 HD
ATOM     31  H81 UNL     1      16.872  50.260 -58.129  1.00  0.00     0.174 HD
ENDBRANCH  12  29
TORSDOF 6
ENDMDL
MODEL 4
REMARK VINA RESULT: -6.534905584      5.131      6.945
REMARK  6 active torsions:
REMARK  status: ('A' for Active; 'I' for Inactive)
REMARK    1  A    between atoms: N1_1  and  C1_4 
REMARK    2  A    between atoms: C1_4  and  N2_5 
REMARK    3  A    between atoms: N2_5  and  S1_7 
REMARK    4  A    between atoms: S1_7  and  N3_10 
REMARK    5  A    between atoms: N3_10  and  C2_12 
REMARK    6  A    between atoms: C5_23  and  N8_24 
ROOT
HETATM    1  C2  UNL     1      13.098  51.932 -51.269  1.00  0.00     0.176 A 
HETATM    2  N4  UNL     1      11.931  52.198 -51.864  1.00  0.00    -0.277 N 
ATOM      3  H4  UNL     1      11.267  51.424 -51.888  1.00  0.00     0.189 HD
HETATM    4  N5  UNL     1      11.526  53.292 -52.411  1.00  0.00    -0.281 N 
ATOM      5  H5  UNL     1      10.589  53.269 -52.810  1.00  0.00     0.188 HD
HETATM    6  C3  UNL     1      12.180  54.459 -52.523  1.00  0.00     0.172 A 
HETATM    7  N6  UNL     1      11.821  55.649 -53.082  1.00  0.00    -0.170 N 
ATOM      8  H6  UNL     1      10.922  55.826 -53.532  1.00  0.00     0.186 HD
HETATM    9  C4  UNL     1      12.800  56.556 -52.964  1.00  0.00     0.721 A 
HETATM   10  N7  UNL     1      13.194  57.809 -53.219  1.00  0.00    -0.019 N 
ATOM     11  H7  UNL     1      12.647  58.524 -53.698  1.00  0.00     0.203 HD
HETATM   12  C5  UNL     1      14.445  57.961 -52.727  1.00  0.00     0.706 A 
HETATM   13  N9  UNL     1      14.781  56.780 -52.181  1.00  0.00    -0.110 N 
ATOM     14  H9  UNL     1      15.673  56.580 -51.726  1.00  0.00     0.207 HD
HETATM   15  N10 UNL     1      13.795  55.917 -52.317  1.00  0.00    -0.060 N 
HETATM   16  C6  UNL     1      13.455  54.662 -52.038  1.00  0.00     0.165 A 
HETATM   17  S2  UNL     1      14.137  53.281 -51.275  1.00  0.00    -0.028 SA
ENDROOT
BRANCH   1  18
HETATM   18  N3  UNL     1      13.302  50.771 -50.786  1.00  0.00    -0.245 N 
ATOM     19  H3  UNL     1      13.484  50.709 -49.785  1.00  0.00     0.182 HD
BRANCH  18  20
HETATM   20  S1  UNL     1      13.296  49.321 -51.660  1.00  0.00     0.325 S 
HETATM   21  O1  UNL     1      13.463  48.105 -50.759  1.00  0.00    -0.182 OA
HETATM   22  O2  UNL     1      11.916  49.159 -52.282  1.00  0.00    -0.182 OA
BRANCH  20  23
HETATM   23  N2  UNL     1      14.456  49.253 -52.913  1.00  0.00    -0.264 N 
ATOM     24  H2  UNL     1      15.259  49.880 -52.869  1.00  0.00     0.181 HD
BRANCH  23  25
HETATM   25  C1  UNL     1      14.350  48.366 -54.006  1.00  0.00     0.186 C 
BRANCH  25  26
HETATM   26  N1  UNL     1      13.232  48.147 -54.607  1.00  0.00    -0.395 N 
ATOM     27  H12 UNL     1      12.550  47.548 -54.141  1.00  0.00     0.156 HD
ATOM     28  H11 UNL     1      13.015  48.549 -55.520  1.00  0.00     0.156 HD
ENDBRANCH  25  26
ENDBRANCH  23  25
ENDBRANCH  20  23
ENDBRANCH  18  20
ENDBRANCH   1  18
BRANCH  12  29
HETATM   29  N8  UNL     1      15.181  59.025 -52.768  1.00  0.00    -0.233 N 
ATOM     30  H82 UNL     1      15.810  59.296 -53.524  1.00  0.00     0.174 HD
ATOM     31  H81 UNL     1      15.251  59.756 -52.061  1.00  0.00     0.174 HD
ENDBRANCH  12  29
TORSDOF 6
ENDMDL
MODEL 5
REMARK VINA RESULT: -6.410864633      4.373      5.423
REMARK  6 active torsions:
REMARK  status: ('A' for Active; 'I' for Inactive)
REMARK    1  A    between atoms: N1_1  and  C1_4 
REMARK    2  A    between atoms: C1_4  and  N2_5 
REMARK    3  A    between atoms: N2_5  and  S1_7 
REMARK    4  A    between atoms: S1_7  and  N3_10 
REMARK    5  A    between atoms: N3_10  and  C2_12 
REMARK    6  A    between atoms: C5_23  and  N8_24 
ROOT
HETATM    1  C2  UNL     1      13.851  51.502 -50.193  1.00  0.00     0.176 A 
HETATM    2  N4  UNL     1      12.757  51.260 -50.921  1.00  0.00    -0.277 N 
ATOM      3  H4  UNL     1      12.354  50.330 -50.810  1.00  0.00     0.189 HD
HETATM    4  N5  UNL     1      12.139  52.035 -51.744  1.00  0.00    -0.281 N 
ATOM      5  H5  UNL     1      11.316  51.638 -52.197  1.00  0.00     0.188 HD
HETATM    6  C3  UNL     1      12.438  53.299 -52.084  1.00  0.00     0.172 A 
HETATM    7  N6  UNL     1      11.838  54.174 -52.938  1.00  0.00    -0.170 N 
ATOM      8  H6  UNL     1      11.002  53.964 -53.484  1.00  0.00     0.186 HD
HETATM    9  C4  UNL     1      12.487  55.346 -52.968  1.00  0.00     0.721 A 
HETATM   10  N7  UNL     1      12.536  56.579 -53.485  1.00  0.00    -0.019 N 
ATOM     11  H7  UNL     1      11.883  56.972 -54.163  1.00  0.00     0.203 HD
HETATM   12  C5  UNL     1      13.606  57.213 -52.951  1.00  0.00     0.706 A 
HETATM   13  N9  UNL     1      14.184  56.336 -52.113  1.00  0.00    -0.110 N 
ATOM     14  H9  UNL     1      15.019  56.523 -51.557  1.00  0.00     0.207 HD
HETATM   15  N10 UNL     1      13.518  55.199 -52.112  1.00  0.00    -0.060 N 
HETATM   16  C6  UNL     1      13.516  53.986 -51.567  1.00  0.00     0.165 A 
HETATM   17  S2  UNL     1      14.448  53.076 -50.444  1.00  0.00    -0.028 SA
ENDROOT
BRANCH   1  18
HETATM   18  N3  UNL     1      14.307  50.588 -49.431  1.00  0.00    -0.245 N 
ATOM     19  H3  UNL     1      15.308  50.398 -49.481  1.00  0.00     0.182 HD
BRANCH  18  20
HETATM   20  S1  UNL     1      13.400  49.661 -48.343  1.00  0.00     0.325 S 
HETATM   21  O1  UNL     1      11.923  50.031 -48.363  1.00  0.00    -0.182 OA
HETATM   22  O2  UNL     1      13.446  48.214 -48.814  1.00  0.00    -0.182 OA
BRANCH  20  23
HETATM   23  N2  UNL     1      13.969  49.715 -46.732  1.00  0.00    -0.264 N 
ATOM     24  H2  UNL     1      14.921  49.405 -46.540  1.00  0.00     0.181 HD
BRANCH  23  25
HETATM   25  C1  UNL     1      13.176  50.170 -45.657  1.00  0.00     0.186 C 
BRANCH  25  26
HETATM   26  N1  UNL     1      11.966  49.769 -45.477  1.00  0.00    -0.395 N 
ATOM     27  H12 UNL     1      11.434  49.476 -46.296  1.00  0.00     0.156 HD
ATOM     28  H11 UNL     1      11.534  49.737 -44.552  1.00  0.00     0.156 HD
ENDBRANCH  25  26
ENDBRANCH  23  25
ENDBRANCH  20  23
ENDBRANCH  18  20
ENDBRANCH   1  18
BRANCH  12  29
HETATM   29  N8  UNL     1      14.003  58.421 -53.191  1.00  0.00    -0.233 N 
ATOM     30  H82 UNL     1      13.426  59.191 -53.529  1.00  0.00     0.174 HD
ATOM     31  H81 UNL     1      14.945  58.796 -53.082  1.00  0.00     0.174 HD
ENDBRANCH  12  29
TORSDOF 6
ENDMDL
