MODEL 1
REMARK VINA RESULT: -6.915779228      0.000      0.000
REMARK  5 active torsions:
REMARK  status: ('A' for Active; 'I' for Inactive)
REMARK    1  A    between atoms: C4_4  and  C5_5 
REMARK    2  A    between atoms: C5_5  and  N1_6 
REMARK    3  A    between atoms: N1_6  and  N2_8 
REMARK    4  A    between atoms: C6_10  and  N3_11 
REMARK    5  A    between atoms: N3_11  and  C7_13 
ROOT
HETATM    1  N2  UNL     1      -0.739   1.952  24.677  1.00  0.00    -0.300 N 
ATOM      2  H2  UNL     1      -1.252   2.541  24.022  1.00  0.00     0.187 HD
HETATM    3  C6  UNL     1      -0.442   0.745  24.377  1.00  0.00     0.198 C 
ENDROOT
BRANCH   1   4
HETATM    4  N1  UNL     1      -0.347   2.445  25.917  1.00  0.00    -0.330 N 
ATOM      5  H1  UNL     1      -0.336   1.837  26.737  1.00  0.00     0.180 HD
BRANCH   4   6
HETATM    6  C5  UNL     1       0.043   3.826  26.026  1.00  0.00     0.196 C 
BRANCH   6   7
HETATM    7  C4  UNL     1       1.106   3.910  27.071  1.00  0.00     0.028 A 
HETATM    8  C3  UNL     1       2.124   3.072  27.101  1.00  0.00     0.027 A 
HETATM    9  C2  UNL     1       3.158   3.156  28.119  1.00  0.00     0.003 A 
HETATM   10  C1  UNL     1       3.068   4.101  29.038  1.00  0.00     0.017 A 
HETATM   11  C11 UNL     1       1.925   5.004  28.969  1.00  0.00     0.088 A 
HETATM   12  N5  UNL     1       1.020   4.918  28.061  1.00  0.00    -0.368 N 
ATOM     13  H5  UNL     1       0.241   5.575  28.054  1.00  0.00     0.165 HD
ENDBRANCH   6   7
ENDBRANCH   4   6
ENDBRANCH   1   4
BRANCH   3  14
HETATM   14  N3  UNL     1       0.268  -0.058  25.290  1.00  0.00    -0.338 N 
ATOM     15  H3  UNL     1      -0.259  -0.654  25.929  1.00  0.00     0.168 HD
BRANCH  14  16
HETATM   16  C7  UNL     1       1.689  -0.075  25.361  1.00  0.00     0.105 A 
HETATM   17  C8  UNL     1       2.465  -0.393  26.449  1.00  0.00     0.050 A 
HETATM   18  C9  UNL     1       3.773  -0.283  26.084  1.00  0.00     0.021 A 
HETATM   19  C10 UNL     1       3.810   0.106  24.761  1.00  0.00     0.090 A 
HETATM   20  N4  UNL     1       2.548   0.221  24.358  1.00  0.00    -0.352 N 
ATOM     21  H4  UNL     1       2.265   0.495  23.417  1.00  0.00     0.166 HD
ENDBRANCH  14  16
ENDBRANCH   3  14
TORSDOF 5
ENDMDL
MODEL 2
REMARK VINA RESULT: -6.843470705      0.711      1.191
REMARK  5 active torsions:
REMARK  status: ('A' for Active; 'I' for Inactive)
REMARK    1  A    between atoms: C4_4  and  C5_5 
REMARK    2  A    between atoms: C5_5  and  N1_6 
REMARK    3  A    between atoms: N1_6  and  N2_8 
REMARK    4  A    between atoms: C6_10  and  N3_11 
REMARK    5  A    between atoms: N3_11  and  C7_13 
ROOT
HETATM    1  N2  UNL     1      -0.699   1.989  24.785  1.00  0.00    -0.300 N 
ATOM      2  H2  UNL     1      -1.228   2.602  24.166  1.00  0.00     0.187 HD
HETATM    3  C6  UNL     1      -0.464   0.775  24.457  1.00  0.00     0.198 C 
ENDROOT
BRANCH   1   4
HETATM    4  N1  UNL     1      -0.218   2.454  26.004  1.00  0.00    -0.330 N 
ATOM      5  H1  UNL     1      -0.141   1.826  26.804  1.00  0.00     0.180 HD
BRANCH   4   6
HETATM    6  C5  UNL     1       0.170   3.835  26.118  1.00  0.00     0.196 C 
BRANCH   6   7
HETATM    7  C4  UNL     1       1.238   3.916  27.158  1.00  0.00     0.028 A 
HETATM    8  C3  UNL     1       1.232   4.845  28.095  1.00  0.00     0.027 A 
HETATM    9  C2  UNL     1       2.273   4.921  29.106  1.00  0.00     0.003 A 
HETATM   10  C1  UNL     1       3.249   4.031  29.081  1.00  0.00     0.017 A 
HETATM   11  C11 UNL     1       3.216   3.022  28.028  1.00  0.00     0.088 A 
HETATM   12  N5  UNL     1       2.288   2.967  27.141  1.00  0.00    -0.368 N 
ATOM     13  H5  UNL     1       2.309   2.241  26.426  1.00  0.00     0.165 HD
ENDBRANCH   6   7
ENDBRANCH   4   6
ENDBRANCH   1   4
BRANCH   3  14
HETATM   14  N3  UNL     1       0.269  -0.062  25.320  1.00  0.00    -0.338 N 
ATOM     15  H3  UNL     1      -0.243  -0.690  25.941  1.00  0.00     0.168 HD
BRANCH  14  16
HETATM   16  C7  UNL     1       1.691  -0.072  25.364  1.00  0.00     0.105 A 
HETATM   17  C8  UNL     1       2.488  -0.382  26.438  1.00  0.00     0.050 A 
HETATM   18  C9  UNL     1       3.789  -0.267  26.048  1.00  0.00     0.021 A 
HETATM   19  C10 UNL     1       3.799   0.116  24.723  1.00  0.00     0.090 A 
HETATM   20  N4  UNL     1       2.529   0.223  24.344  1.00  0.00    -0.352 N 
ATOM     21  H4  UNL     1       2.226   0.491  23.407  1.00  0.00     0.166 HD
ENDBRANCH  14  16
ENDBRANCH   3  14
TORSDOF 5
ENDMDL
MODEL 3
REMARK VINA RESULT: -6.770376184      3.849      5.021
REMARK  5 active torsions:
REMARK  status: ('A' for Active; 'I' for Inactive)
REMARK    1  A    between atoms: C4_4  and  C5_5 
REMARK    2  A    between atoms: C5_5  and  N1_6 
REMARK    3  A    between atoms: N1_6  and  N2_8 
REMARK    4  A    between atoms: C6_10  and  N3_11 
REMARK    5  A    between atoms: N3_11  and  C7_13 
ROOT
HETATM    1  N2  UNL     1      -1.041  -0.058  26.638  1.00  0.00    -0.300 N 
ATOM      2  H2  UNL     1      -1.918  -0.573  26.576  1.00  0.00     0.187 HD
HETATM    3  C6  UNL     1      -0.425   0.313  25.580  1.00  0.00     0.198 C 
ENDROOT
BRANCH   1   4
HETATM    4  N1  UNL     1      -0.488   0.257  27.874  1.00  0.00    -0.330 N 
ATOM      5  H1  UNL     1       0.511   0.444  27.963  1.00  0.00     0.180 HD
BRANCH   4   6
HETATM    6  C5  UNL     1      -1.348   0.314  29.028  1.00  0.00     0.196 C 
BRANCH   6   7
HETATM    7  C4  UNL     1      -1.351  -1.042  29.652  1.00  0.00     0.028 A 
HETATM    8  C3  UNL     1      -0.372  -1.451  30.436  1.00  0.00     0.027 A 
HETATM    9  C2  UNL     1      -0.377  -2.772  31.043  1.00  0.00     0.003 A 
HETATM   10  C1  UNL     1      -1.395  -3.579  30.798  1.00  0.00     0.017 A 
HETATM   11  C11 UNL     1      -2.454  -3.086  29.925  1.00  0.00     0.088 A 
HETATM   12  N5  UNL     1      -2.435  -1.915  29.397  1.00  0.00    -0.368 N 
ATOM     13  H5  UNL     1      -3.201  -1.615  28.794  1.00  0.00     0.165 HD
ENDBRANCH   6   7
ENDBRANCH   4   6
ENDBRANCH   1   4
BRANCH   3  14
HETATM   14  N3  UNL     1       0.786   1.025  25.679  1.00  0.00    -0.338 N 
ATOM     15  H3  UNL     1       0.749   2.028  25.865  1.00  0.00     0.168 HD
BRANCH  14  16
HETATM   16  C7  UNL     1       2.060   0.409  25.530  1.00  0.00     0.105 A 
HETATM   17  C8  UNL     1       2.808  -0.201  26.507  1.00  0.00     0.050 A 
HETATM   18  C9  UNL     1       3.959  -0.657  25.936  1.00  0.00     0.021 A 
HETATM   19  C10 UNL     1       3.924  -0.328  24.598  1.00  0.00     0.090 A 
HETATM   20  N4  UNL     1       2.776   0.308  24.387  1.00  0.00    -0.352 N 
ATOM     21  H4  UNL     1       2.474   0.671  23.482  1.00  0.00     0.166 HD
ENDBRANCH  14  16
ENDBRANCH   3  14
TORSDOF 5
ENDMDL
MODEL 4
REMARK VINA RESULT: -6.755677227      1.486      4.139
REMARK  5 active torsions:
REMARK  status: ('A' for Active; 'I' for Inactive)
REMARK    1  A    between atoms: C4_4  and  C5_5 
REMARK    2  A    between atoms: C5_5  and  N1_6 
REMARK    3  A    between atoms: N1_6  and  N2_8 
REMARK    4  A    between atoms: C6_10  and  N3_11 
REMARK    5  A    between atoms: N3_11  and  C7_13 
ROOT
HETATM    1  N2  UNL     1       1.625   4.672  27.259  1.00  0.00    -0.300 N 
ATOM      2  H2  UNL     1       2.056   5.569  27.037  1.00  0.00     0.187 HD
HETATM    3  C6  UNL     1       0.725   4.174  26.499  1.00  0.00     0.198 C 
ENDROOT
BRANCH   1   4
HETATM    4  N1  UNL     1       2.002   3.964  28.395  1.00  0.00    -0.330 N 
ATOM      5  H1  UNL     1       1.367   3.882  29.189  1.00  0.00     0.180 HD
BRANCH   4   6
HETATM    6  C5  UNL     1       3.303   3.348  28.431  1.00  0.00     0.196 C 
BRANCH   6   7
HETATM    7  C4  UNL     1       3.195   2.031  27.738  1.00  0.00     0.028 A 
HETATM    8  C3  UNL     1       2.746   0.953  28.353  1.00  0.00     0.027 A 
HETATM    9  C2  UNL     1       2.641  -0.329  27.676  1.00  0.00     0.003 A 
HETATM   10  C1  UNL     1       3.008  -0.409  26.408  1.00  0.00     0.017 A 
HETATM   11  C11 UNL     1       3.499   0.806  25.769  1.00  0.00     0.088 A 
HETATM   12  N5  UNL     1       3.585   1.932  26.381  1.00  0.00    -0.368 N 
ATOM     13  H5  UNL     1       3.933   2.755  25.889  1.00  0.00     0.165 HD
ENDBRANCH   6   7
ENDBRANCH   4   6
ENDBRANCH   1   4
BRANCH   3  14
HETATM   14  N3  UNL     1       0.137   2.934  26.815  1.00  0.00    -0.338 N 
ATOM     15  H3  UNL     1       0.099   2.648  27.793  1.00  0.00     0.168 HD
BRANCH  14  16
HETATM   16  C7  UNL     1      -0.406   2.063  25.829  1.00  0.00     0.105 A 
HETATM   17  C8  UNL     1      -0.380   0.690  25.827  1.00  0.00     0.050 A 
HETATM   18  C9  UNL     1      -1.012   0.256  24.701  1.00  0.00     0.021 A 
HETATM   19  C10 UNL     1      -1.433   1.366  23.999  1.00  0.00     0.090 A 
HETATM   20  N4  UNL     1      -1.055   2.431  24.701  1.00  0.00    -0.352 N 
ATOM     21  H4  UNL     1      -1.232   3.397  24.425  1.00  0.00     0.166 HD
ENDBRANCH  14  16
ENDBRANCH   3  14
TORSDOF 5
ENDMDL
MODEL 5
REMARK VINA RESULT: -6.738576343      0.895      4.539
REMARK  5 active torsions:
REMARK  status: ('A' for Active; 'I' for Inactive)
REMARK    1  A    between atoms: C4_4  and  C5_5 
REMARK    2  A    between atoms: C5_5  and  N1_6 
REMARK    3  A    between atoms: N1_6  and  N2_8 
REMARK    4  A    between atoms: C6_10  and  N3_11 
REMARK    5  A    between atoms: N3_11  and  C7_13 
ROOT
HETATM    1  N2  UNL     1      -1.304   2.640  24.650  1.00  0.00    -0.300 N 
ATOM      2  H2  UNL     1      -2.248   2.820  24.312  1.00  0.00     0.187 HD
HETATM    3  C6  UNL     1      -0.719   3.471  25.427  1.00  0.00     0.198 C 
ENDROOT
BRANCH   1   4
HETATM    4  N1  UNL     1      -0.624   1.486  24.278  1.00  0.00    -0.330 N 
ATOM      5  H1  UNL     1      -0.127   1.441  23.387  1.00  0.00     0.180 HD
BRANCH   4   6
HETATM    6  C5  UNL     1      -0.630   0.355  25.168  1.00  0.00     0.196 C 
BRANCH   6   7
HETATM    7  C4  UNL     1       0.772   0.144  25.635  1.00  0.00     0.028 A 
HETATM    8  C3  UNL     1       1.065  -0.028  26.910  1.00  0.00     0.027 A 
HETATM    9  C2  UNL     1       2.431  -0.233  27.362  1.00  0.00     0.003 A 
HETATM   10  C1  UNL     1       3.401  -0.247  26.464  1.00  0.00     0.017 A 
HETATM   11  C11 UNL     1       3.032  -0.052  25.067  1.00  0.00     0.088 A 
HETATM   12  N5  UNL     1       1.820   0.128  24.683  1.00  0.00    -0.368 N 
ATOM     13  H5  UNL     1       1.612   0.258  23.693  1.00  0.00     0.165 HD
ENDBRANCH   6   7
ENDBRANCH   4   6
ENDBRANCH   1   4
BRANCH   3  14
HETATM   14  N3  UNL     1       0.586   3.211  25.890  1.00  0.00    -0.338 N 
ATOM     15  H3  UNL     1       1.169   2.560  25.363  1.00  0.00     0.168 HD
BRANCH  14  16
HETATM   16  C7  UNL     1       1.126   3.816  27.058  1.00  0.00     0.105 A 
HETATM   17  C8  UNL     1       2.285   3.475  27.712  1.00  0.00     0.050 A 
HETATM   18  C9  UNL     1       2.429   4.308  28.781  1.00  0.00     0.021 A 
HETATM   19  C10 UNL     1       1.353   5.171  28.791  1.00  0.00     0.090 A 
HETATM   20  N4  UNL     1       0.594   4.851  27.747  1.00  0.00    -0.352 N 
ATOM     21  H4  UNL     1      -0.276   5.324  27.499  1.00  0.00     0.166 HD
ENDBRANCH  14  16
ENDBRANCH   3  14
TORSDOF 5
ENDMDL
