MODEL 1
REMARK VINA RESULT: -5.788150102      0.000      0.000
REMARK  5 active torsions:
REMARK  status: ('A' for Active; 'I' for Inactive)
REMARK    1  A    between atoms: C2_2  and  C3_3 
REMARK    2  A    between atoms: C3_3  and  C4_4 
REMARK    3  A    between atoms: C4_4  and  N1_5 
REMARK    4  A    between atoms: C5_7  and  N2_8 
REMARK    5  A    between atoms: N2_8  and  C6_10 
ROOT
HETATM    1  C6  UNL     1       1.060   0.948  27.863  1.00  0.00     0.685 A 
HETATM    2  N3  UNL     1       1.846   2.038  27.906  1.00  0.00    -0.176 N 
ATOM      3  H3  UNL     1       1.700   2.840  28.519  1.00  0.00     0.185 HD
HETATM    4  C7  UNL     1       2.852   1.916  27.025  1.00  0.00     0.166 A 
HETATM    5  N4  UNL     1       3.908   2.812  26.731  1.00  0.00    -0.079 NA
HETATM    6  C8  UNL     1       2.697   0.690  26.391  1.00  0.00     0.138 A 
HETATM    7  S1  UNL     1       3.761  -0.008  25.105  1.00  0.00    -0.029 SA
HETATM    8  N5  UNL     1       1.598   0.144  26.935  1.00  0.00    -0.181 N 
ATOM      9  H5  UNL     1       1.221  -0.767  26.674  1.00  0.00     0.185 HD
ENDROOT
BRANCH   1  10
HETATM   10  N2  UNL     1      -0.005   0.743  28.590  1.00  0.00    -0.188 N 
ATOM     11  H2  UNL     1      -0.105   1.162  29.515  1.00  0.00     0.185 HD
BRANCH  10  12
HETATM   12  C5  UNL     1      -1.018  -0.086  28.041  1.00  0.00     0.193 C 
HETATM   13  N1  UNL     1      -1.678  -0.846  28.843  1.00  0.00    -0.386 N 
ATOM     14  H1  UNL     1      -2.409  -1.449  28.467  1.00  0.00     0.160 HD
BRANCH  13  15
HETATM   15  C4  UNL     1      -1.412  -0.866  30.247  1.00  0.00     0.120 C 
BRANCH  15  16
HETATM   16  C3  UNL     1      -0.834  -2.199  30.614  1.00  0.00     0.019 C 
BRANCH  16  17
HETATM   17  C2  UNL     1       0.664  -2.102  30.804  1.00  0.00    -0.003 C 
HETATM   18  C1  UNL     1       1.204  -3.429  31.260  1.00  0.00     0.005 C 
ENDBRANCH  16  17
ENDBRANCH  15  16
ENDBRANCH  13  15
ENDBRANCH  10  12
ENDBRANCH   1  10
TORSDOF 5
ENDMDL
MODEL 2
REMARK VINA RESULT: -5.674611450      1.959      2.336
REMARK  5 active torsions:
REMARK  status: ('A' for Active; 'I' for Inactive)
REMARK    1  A    between atoms: C2_2  and  C3_3 
REMARK    2  A    between atoms: C3_3  and  C4_4 
REMARK    3  A    between atoms: C4_4  and  N1_5 
REMARK    4  A    between atoms: C5_7  and  N2_8 
REMARK    5  A    between atoms: N2_8  and  C6_10 
ROOT
HETATM    1  C6  UNL     1       0.895   0.523  28.572  1.00  0.00     0.685 A 
HETATM    2  N3  UNL     1       2.222   0.724  28.495  1.00  0.00    -0.176 N 
ATOM      3  H3  UNL     1       2.933   0.058  28.797  1.00  0.00     0.185 HD
HETATM    4  C7  UNL     1       2.475   1.931  27.962  1.00  0.00     0.166 A 
HETATM    5  N4  UNL     1       3.716   2.558  27.695  1.00  0.00    -0.079 NA
HETATM    6  C8  UNL     1       1.249   2.524  27.688  1.00  0.00     0.138 A 
HETATM    7  S1  UNL     1       0.975   4.159  26.962  1.00  0.00    -0.029 SA
HETATM    8  N5  UNL     1       0.327   1.631  28.076  1.00  0.00    -0.181 N 
ATOM      9  H5  UNL     1      -0.680   1.777  28.002  1.00  0.00     0.185 HD
ENDROOT
BRANCH   1  10
HETATM   10  N2  UNL     1       0.309  -0.545  29.040  1.00  0.00    -0.188 N 
ATOM     11  H2  UNL     1       0.514  -1.471  28.664  1.00  0.00     0.185 HD
BRANCH  10  12
HETATM   12  C5  UNL     1      -0.625  -0.366  30.094  1.00  0.00     0.193 C 
HETATM   13  N1  UNL     1      -0.808  -1.342  30.913  1.00  0.00    -0.386 N 
ATOM     14  H1  UNL     1      -1.476  -1.232  31.676  1.00  0.00     0.160 HD
BRANCH  13  15
HETATM   15  C4  UNL     1      -0.099  -2.576  30.780  1.00  0.00     0.120 C 
BRANCH  15  16
HETATM   16  C3  UNL     1       0.912  -2.677  31.882  1.00  0.00     0.019 C 
BRANCH  16  17
HETATM   17  C2  UNL     1       2.180  -3.340  31.388  1.00  0.00    -0.003 C 
HETATM   18  C1  UNL     1       3.039  -2.330  30.680  1.00  0.00     0.005 C 
ENDBRANCH  16  17
ENDBRANCH  15  16
ENDBRANCH  13  15
ENDBRANCH  10  12
ENDBRANCH   1  10
TORSDOF 5
ENDMDL
MODEL 3
REMARK VINA RESULT: -5.638004192      2.890      3.681
REMARK  5 active torsions:
REMARK  status: ('A' for Active; 'I' for Inactive)
REMARK    1  A    between atoms: C2_2  and  C3_3 
REMARK    2  A    between atoms: C3_3  and  C4_4 
REMARK    3  A    between atoms: C4_4  and  N1_5 
REMARK    4  A    between atoms: C5_7  and  N2_8 
REMARK    5  A    between atoms: N2_8  and  C6_10 
ROOT
HETATM    1  C6  UNL     1       1.327   1.292  26.978  1.00  0.00     0.685 A 
HETATM    2  N3  UNL     1       0.489   1.904  26.123  1.00  0.00    -0.176 N 
ATOM      3  H3  UNL     1       0.005   1.447  25.350  1.00  0.00     0.185 HD
HETATM    4  C7  UNL     1       0.382   3.206  26.436  1.00  0.00     0.166 A 
HETATM    5  N4  UNL     1      -0.382   4.224  25.815  1.00  0.00    -0.079 NA
HETATM    6  C8  UNL     1       1.191   3.431  27.542  1.00  0.00     0.138 A 
HETATM    7  S1  UNL     1       1.441   5.004  28.401  1.00  0.00    -0.029 SA
HETATM    8  N5  UNL     1       1.740   2.242  27.830  1.00  0.00    -0.181 N 
ATOM      9  H5  UNL     1       2.390   2.080  28.599  1.00  0.00     0.185 HD
ENDROOT
BRANCH   1  10
HETATM   10  N2  UNL     1       1.653   0.029  26.956  1.00  0.00    -0.188 N 
ATOM     11  H2  UNL     1       0.943  -0.703  26.970  1.00  0.00     0.185 HD
BRANCH  10  12
HETATM   12  C5  UNL     1       3.037  -0.286  26.914  1.00  0.00     0.193 C 
HETATM   13  N1  UNL     1       3.571  -0.809  27.962  1.00  0.00    -0.386 N 
ATOM     14  H1  UNL     1       4.564  -1.041  27.950  1.00  0.00     0.160 HD
BRANCH  13  15
HETATM   15  C4  UNL     1       2.808  -1.072  29.141  1.00  0.00     0.120 C 
BRANCH  15  16
HETATM   16  C3  UNL     1       3.562  -2.040  30.002  1.00  0.00     0.019 C 
BRANCH  16  17
HETATM   17  C2  UNL     1       2.860  -2.239  31.329  1.00  0.00    -0.003 C 
HETATM   18  C1  UNL     1       2.052  -3.506  31.289  1.00  0.00     0.005 C 
ENDBRANCH  16  17
ENDBRANCH  15  16
ENDBRANCH  13  15
ENDBRANCH  10  12
ENDBRANCH   1  10
TORSDOF 5
ENDMDL
MODEL 4
REMARK VINA RESULT: -5.579755326      1.070      1.636
REMARK  5 active torsions:
REMARK  status: ('A' for Active; 'I' for Inactive)
REMARK    1  A    between atoms: C2_2  and  C3_3 
REMARK    2  A    between atoms: C3_3  and  C4_4 
REMARK    3  A    between atoms: C4_4  and  N1_5 
REMARK    4  A    between atoms: C5_7  and  N2_8 
REMARK    5  A    between atoms: N2_8  and  C6_10 
ROOT
HETATM    1  C6  UNL     1       1.111   0.878  27.861  1.00  0.00     0.685 A 
HETATM    2  N3  UNL     1       1.881   1.979  27.916  1.00  0.00    -0.176 N 
ATOM      3  H3  UNL     1       1.724   2.771  28.540  1.00  0.00     0.185 HD
HETATM    4  C7  UNL     1       2.886   1.883  27.030  1.00  0.00     0.166 A 
HETATM    5  N4  UNL     1       3.928   2.798  26.746  1.00  0.00    -0.079 NA
HETATM    6  C8  UNL     1       2.747   0.663  26.381  1.00  0.00     0.138 A 
HETATM    7  S1  UNL     1       3.818  -0.003  25.084  1.00  0.00    -0.029 SA
HETATM    8  N5  UNL     1       1.658   0.094  26.921  1.00  0.00    -0.181 N 
ATOM      9  H5  UNL     1       1.293  -0.818  26.650  1.00  0.00     0.185 HD
ENDROOT
BRANCH   1  10
HETATM   10  N2  UNL     1       0.051   0.648  28.587  1.00  0.00    -0.188 N 
ATOM     11  H2  UNL     1      -0.002   0.953  29.560  1.00  0.00     0.185 HD
BRANCH  10  12
HETATM   12  C5  UNL     1      -1.024  -0.043  27.970  1.00  0.00     0.193 C 
HETATM   13  N1  UNL     1      -1.761  -0.799  28.707  1.00  0.00    -0.386 N 
ATOM     14  H1  UNL     1      -2.537  -1.304  28.281  1.00  0.00     0.160 HD
BRANCH  13  15
HETATM   15  C4  UNL     1      -1.516  -0.949  30.107  1.00  0.00     0.120 C 
BRANCH  15  16
HETATM   16  C3  UNL     1      -1.585  -2.404  30.460  1.00  0.00     0.019 C 
BRANCH  16  17
HETATM   17  C2  UNL     1      -2.583  -3.124  29.579  1.00  0.00    -0.003 C 
HETATM   18  C1  UNL     1      -3.566  -3.874  30.434  1.00  0.00     0.005 C 
ENDBRANCH  16  17
ENDBRANCH  15  16
ENDBRANCH  13  15
ENDBRANCH  10  12
ENDBRANCH   1  10
TORSDOF 5
ENDMDL
MODEL 5
REMARK VINA RESULT: -5.578205270      1.871      2.078
REMARK  5 active torsions:
REMARK  status: ('A' for Active; 'I' for Inactive)
REMARK    1  A    between atoms: C2_2  and  C3_3 
REMARK    2  A    between atoms: C3_3  and  C4_4 
REMARK    3  A    between atoms: C4_4  and  N1_5 
REMARK    4  A    between atoms: C5_7  and  N2_8 
REMARK    5  A    between atoms: N2_8  and  C6_10 
ROOT
HETATM    1  C6  UNL     1       0.946   0.943  28.238  1.00  0.00     0.685 A 
HETATM    2  N3  UNL     1       2.281   1.066  28.129  1.00  0.00    -0.176 N 
ATOM      3  H3  UNL     1       2.951   0.310  28.268  1.00  0.00     0.185 HD
HETATM    4  C7  UNL     1       2.603   2.331  27.810  1.00  0.00     0.166 A 
HETATM    5  N4  UNL     1       3.875   2.912  27.597  1.00  0.00    -0.079 NA
HETATM    6  C8  UNL     1       1.414   3.044  27.713  1.00  0.00     0.138 A 
HETATM    7  S1  UNL     1       1.235   4.799  27.308  1.00  0.00    -0.029 SA
HETATM    8  N5  UNL     1       0.444   2.159  27.980  1.00  0.00    -0.181 N 
ATOM      9  H5  UNL     1      -0.551   2.382  27.987  1.00  0.00     0.185 HD
ENDROOT
BRANCH   1  10
HETATM   10  N2  UNL     1       0.301  -0.152  28.536  1.00  0.00    -0.188 N 
ATOM     11  H2  UNL     1       0.768  -0.936  28.992  1.00  0.00     0.185 HD
BRANCH  10  12
HETATM   12  C5  UNL     1      -1.077  -0.207  28.200  1.00  0.00     0.193 C 
HETATM   13  N1  UNL     1      -1.907  -0.588  29.108  1.00  0.00    -0.386 N 
ATOM     14  H1  UNL     1      -2.901  -0.634  28.885  1.00  0.00     0.160 HD
BRANCH  13  15
HETATM   15  C4  UNL     1      -1.470  -0.947  30.421  1.00  0.00     0.120 C 
BRANCH  15  16
HETATM   16  C3  UNL     1      -2.002  -2.307  30.755  1.00  0.00     0.019 C 
BRANCH  16  17
HETATM   17  C2  UNL     1      -0.878  -3.317  30.847  1.00  0.00    -0.003 C 
HETATM   18  C1  UNL     1       0.411  -2.613  31.166  1.00  0.00     0.005 C 
ENDBRANCH  16  17
ENDBRANCH  15  16
ENDBRANCH  13  15
ENDBRANCH  10  12
ENDBRANCH   1  10
TORSDOF 5
ENDMDL
