MODEL 1
REMARK VINA RESULT: -6.924584261      0.000      0.000
REMARK  5 active torsions:
REMARK  status: ('A' for Active; 'I' for Inactive)
REMARK    1  A    between atoms: N2_7  and  C6_8 
REMARK    2  A    between atoms: C6_8  and  C7_9 
REMARK    3  A    between atoms: C7_9  and  C8_10 
REMARK    4  A    between atoms: C8_10  and  N3_11 
REMARK    5  A    between atoms: N3_11  and  C9_13 
ROOT
HETATM    1  C8  UNL     1       2.343  -0.244  26.725  1.00  0.00     0.139 C 
ENDROOT
BRANCH   1   2
HETATM    2  C7  UNL     1       3.059   0.638  27.753  1.00  0.00     0.040 C 
BRANCH   2   3
HETATM    3  C6  UNL     1       3.426   1.915  27.045  1.00  0.00     0.131 C 
BRANCH   3   4
HETATM    4  N2  UNL     1       2.597   3.026  27.436  1.00  0.00    -0.345 N 
HETATM    5  C1  UNL     1       2.947   3.722  28.531  1.00  0.00     0.118 A 
HETATM    6  N1  UNL     1       4.088   3.407  29.305  1.00  0.00    -0.083 NA
HETATM    7  C2  UNL     1       2.190   4.813  28.970  1.00  0.00     0.045 A 
HETATM    8  C3  UNL     1       1.058   5.201  28.283  1.00  0.00     0.005 A 
HETATM    9  C4  UNL     1       0.702   4.470  27.146  1.00  0.00     0.017 A 
HETATM   10  C5  UNL     1       1.497   3.406  26.773  1.00  0.00     0.092 A 
ENDBRANCH   3   4
ENDBRANCH   2   3
ENDBRANCH   1   2
BRANCH   1  11
HETATM   11  N3  UNL     1       0.910  -0.120  26.862  1.00  0.00    -0.225 N 
ATOM     12  H3  UNL     1       0.451  -0.272  27.759  1.00  0.00     0.177 HD
BRANCH  11  13
HETATM   13  C9  UNL     1       0.220   0.195  25.792  1.00  0.00     0.693 A 
HETATM   14  N4  UNL     1      -1.119   0.270  25.700  1.00  0.00    -0.185 N 
HETATM   15  C10 UNL     1      -1.423   0.622  24.439  1.00  0.00     0.215 A 
ATOM     16  H4  UNL     1      -1.784   0.091  26.452  1.00  0.00     0.185 HD
HETATM   17  N5  UNL     1      -0.287   0.768  23.739  1.00  0.00    -0.281 N 
HETATM   18  N6  UNL     1       0.698   0.506  24.577  1.00  0.00    -0.131 N 
ATOM     19  H5  UNL     1      -0.202   1.029  22.757  1.00  0.00     0.188 HD
ATOM     20  H6  UNL     1       1.688   0.535  24.334  1.00  0.00     0.205 HD
ENDBRANCH  11  13
ENDBRANCH   1  11
TORSDOF 5
ENDMDL
MODEL 2
REMARK VINA RESULT: -6.913456916      1.661      3.591
REMARK  5 active torsions:
REMARK  status: ('A' for Active; 'I' for Inactive)
REMARK    1  A    between atoms: N2_7  and  C6_8 
REMARK    2  A    between atoms: C6_8  and  C7_9 
REMARK    3  A    between atoms: C7_9  and  C8_10 
REMARK    4  A    between atoms: C8_10  and  N3_11 
REMARK    5  A    between atoms: N3_11  and  C9_13 
ROOT
HETATM    1  C8  UNL     1       1.319   4.522  26.861  1.00  0.00     0.139 C 
ENDROOT
BRANCH   1   2
HETATM    2  C7  UNL     1       1.448   4.283  28.369  1.00  0.00     0.040 C 
BRANCH   2   3
HETATM    3  C6  UNL     1       2.730   3.522  28.577  1.00  0.00     0.131 C 
BRANCH   3   4
HETATM    4  N2  UNL     1       2.692   2.201  28.004  1.00  0.00    -0.345 N 
HETATM    5  C1  UNL     1       3.417   1.971  26.896  1.00  0.00     0.118 A 
HETATM    6  N1  UNL     1       4.208   2.969  26.278  1.00  0.00    -0.083 NA
HETATM    7  C2  UNL     1       3.428   0.713  26.285  1.00  0.00     0.045 A 
HETATM    8  C3  UNL     1       2.691  -0.327  26.810  1.00  0.00     0.005 A 
HETATM    9  C4  UNL     1       1.940  -0.077  27.963  1.00  0.00     0.017 A 
HETATM   10  C5  UNL     1       1.977   1.189  28.510  1.00  0.00     0.092 A 
ENDBRANCH   3   4
ENDBRANCH   2   3
ENDBRANCH   1   2
BRANCH   1  11
HETATM   11  N3  UNL     1      -0.059   4.392  26.445  1.00  0.00    -0.225 N 
ATOM     12  H3  UNL     1      -0.764   5.068  26.736  1.00  0.00     0.177 HD
BRANCH  11  13
HETATM   13  C9  UNL     1      -0.371   3.375  25.678  1.00  0.00     0.693 A 
HETATM   14  N4  UNL     1      -0.021   2.092  25.874  1.00  0.00    -0.185 N 
HETATM   15  C10 UNL     1      -0.538   1.368  24.866  1.00  0.00     0.215 A 
ATOM     16  H4  UNL     1       0.537   1.732  26.649  1.00  0.00     0.185 HD
HETATM   17  N5  UNL     1      -1.209   2.187  24.040  1.00  0.00    -0.281 N 
HETATM   18  N6  UNL     1      -1.096   3.399  24.549  1.00  0.00    -0.131 N 
ATOM     19  H5  UNL     1      -1.706   1.924  23.188  1.00  0.00     0.188 HD
ATOM     20  H6  UNL     1      -1.505   4.239  24.140  1.00  0.00     0.205 HD
ENDBRANCH  11  13
ENDBRANCH   1  11
TORSDOF 5
ENDMDL
MODEL 3
REMARK VINA RESULT: -6.912487466      3.043      4.798
REMARK  5 active torsions:
REMARK  status: ('A' for Active; 'I' for Inactive)
REMARK    1  A    between atoms: N2_7  and  C6_8 
REMARK    2  A    between atoms: C6_8  and  C7_9 
REMARK    3  A    between atoms: C7_9  and  C8_10 
REMARK    4  A    between atoms: C8_10  and  N3_11 
REMARK    5  A    between atoms: N3_11  and  C9_13 
ROOT
HETATM    1  C8  UNL     1       2.615  -0.379  26.386  1.00  0.00     0.139 C 
ENDROOT
BRANCH   1   2
HETATM    2  C7  UNL     1       3.468  -0.509  27.652  1.00  0.00     0.040 C 
BRANCH   2   3
HETATM    3  C6  UNL     1       2.578  -0.146  28.811  1.00  0.00     0.131 C 
BRANCH   3   4
HETATM    4  N2  UNL     1       2.378  -1.243  29.723  1.00  0.00    -0.345 N 
HETATM    5  C1  UNL     1       1.124  -1.512  30.124  1.00  0.00     0.118 A 
HETATM    6  N1  UNL     1       0.004  -0.764  29.687  1.00  0.00    -0.083 NA
HETATM    7  C2  UNL     1       0.854  -2.561  31.008  1.00  0.00     0.045 A 
HETATM    8  C3  UNL     1       1.877  -3.350  31.491  1.00  0.00     0.005 A 
HETATM    9  C4  UNL     1       3.178  -3.063  31.068  1.00  0.00     0.017 A 
HETATM   10  C5  UNL     1       3.368  -2.011  30.195  1.00  0.00     0.092 A 
ENDBRANCH   3   4
ENDBRANCH   2   3
ENDBRANCH   1   2
BRANCH   1  11
HETATM   11  N3  UNL     1       1.255  -0.028  26.726  1.00  0.00    -0.225 N 
ATOM     12  H3  UNL     1       0.951   0.024  27.697  1.00  0.00     0.177 HD
BRANCH  11  13
HETATM   13  C9  UNL     1       0.425   0.222  25.741  1.00  0.00     0.693 A 
HETATM   14  N4  UNL     1      -0.917   0.232  25.813  1.00  0.00    -0.185 N 
HETATM   15  C10 UNL     1      -1.389   0.531  24.591  1.00  0.00     0.215 A 
ATOM     16  H4  UNL     1      -1.476   0.047  26.646  1.00  0.00     0.185 HD
HETATM   17  N5  UNL     1      -0.355   0.707  23.753  1.00  0.00    -0.281 N 
HETATM   18  N6  UNL     1       0.737   0.516  24.469  1.00  0.00    -0.131 N 
ATOM     19  H5  UNL     1      -0.403   0.941  22.761  1.00  0.00     0.188 HD
ATOM     20  H6  UNL     1       1.687   0.583  24.106  1.00  0.00     0.205 HD
ENDBRANCH  11  13
ENDBRANCH   1  11
TORSDOF 5
ENDMDL
MODEL 4
REMARK VINA RESULT: -6.831604937      2.856      4.321
REMARK  5 active torsions:
REMARK  status: ('A' for Active; 'I' for Inactive)
REMARK    1  A    between atoms: N2_7  and  C6_8 
REMARK    2  A    between atoms: C6_8  and  C7_9 
REMARK    3  A    between atoms: C7_9  and  C8_10 
REMARK    4  A    between atoms: C8_10  and  N3_11 
REMARK    5  A    between atoms: N3_11  and  C9_13 
ROOT
HETATM    1  C8  UNL     1       2.791   0.727  25.775  1.00  0.00     0.139 C 
ENDROOT
BRANCH   1   2
HETATM    2  C7  UNL     1       3.170  -0.211  26.926  1.00  0.00     0.040 C 
BRANCH   2   3
HETATM    3  C6  UNL     1       2.657   0.427  28.190  1.00  0.00     0.131 C 
BRANCH   3   4
HETATM    4  N2  UNL     1       2.169  -0.538  29.141  1.00  0.00    -0.345 N 
HETATM    5  C1  UNL     1       0.850  -0.566  29.394  1.00  0.00     0.118 A 
HETATM    6  N1  UNL     1      -0.068   0.309  28.767  1.00  0.00    -0.083 NA
HETATM    7  C2  UNL     1       0.305  -1.476  30.305  1.00  0.00     0.045 A 
HETATM    8  C3  UNL     1       1.116  -2.372  30.970  1.00  0.00     0.005 A 
HETATM    9  C4  UNL     1       2.487  -2.335  30.700  1.00  0.00     0.017 A 
HETATM   10  C5  UNL     1       2.953  -1.410  29.789  1.00  0.00     0.092 A 
ENDBRANCH   3   4
ENDBRANCH   2   3
ENDBRANCH   1   2
BRANCH   1  11
HETATM   11  N3  UNL     1       1.971   0.035  24.807  1.00  0.00    -0.225 N 
ATOM     12  H3  UNL     1       2.389  -0.557  24.090  1.00  0.00     0.177 HD
BRANCH  11  13
HETATM   13  C9  UNL     1       0.672   0.194  24.883  1.00  0.00     0.693 A 
HETATM   14  N4  UNL     1      -0.122   0.734  23.942  1.00  0.00    -0.185 N 
HETATM   15  C10 UNL     1      -1.382   0.712  24.408  1.00  0.00     0.215 A 
ATOM     16  H4  UNL     1       0.179   1.094  23.037  1.00  0.00     0.185 HD
HETATM   17  N5  UNL     1      -1.386   0.165  25.634  1.00  0.00    -0.281 N 
HETATM   18  N6  UNL     1      -0.132  -0.144  25.904  1.00  0.00    -0.131 N 
ATOM     19  H5  UNL     1      -2.196   0.016  26.236  1.00  0.00     0.188 HD
ATOM     20  H6  UNL     1       0.185  -0.579  26.771  1.00  0.00     0.205 HD
ENDBRANCH  11  13
ENDBRANCH   1  11
TORSDOF 5
ENDMDL
MODEL 5
REMARK VINA RESULT: -6.785748231      4.228      6.689
REMARK  5 active torsions:
REMARK  status: ('A' for Active; 'I' for Inactive)
REMARK    1  A    between atoms: N2_7  and  C6_8 
REMARK    2  A    between atoms: C6_8  and  C7_9 
REMARK    3  A    between atoms: C7_9  and  C8_10 
REMARK    4  A    between atoms: C8_10  and  N3_11 
REMARK    5  A    between atoms: N3_11  and  C9_13 
ROOT
HETATM    1  C8  UNL     1       2.652  -1.833  30.218  1.00  0.00     0.139 C 
ENDROOT
BRANCH   1   2
HETATM    2  C7  UNL     1       2.731  -0.732  29.154  1.00  0.00     0.040 C 
BRANCH   2   3
HETATM    3  C6  UNL     1       1.336  -0.189  28.991  1.00  0.00     0.131 C 
BRANCH   3   4
HETATM    4  N2  UNL     1       0.957  -0.036  27.610  1.00  0.00    -0.345 N 
HETATM    5  C1  UNL     1      -0.340   0.176  27.329  1.00  0.00     0.118 A 
HETATM    6  N1  UNL     1      -1.336   0.253  28.331  1.00  0.00    -0.083 NA
HETATM    7  C2  UNL     1      -0.781   0.335  26.012  1.00  0.00     0.045 A 
HETATM    8  C3  UNL     1       0.113   0.277  24.963  1.00  0.00     0.005 A 
HETATM    9  C4  UNL     1       1.460   0.056  25.265  1.00  0.00     0.017 A 
HETATM   10  C5  UNL     1       1.821  -0.092  26.588  1.00  0.00     0.092 A 
ENDBRANCH   3   4
ENDBRANCH   2   3
ENDBRANCH   1   2
BRANCH   1  11
HETATM   11  N3  UNL     1       3.617  -1.593  31.266  1.00  0.00    -0.225 N 
ATOM     12  H3  UNL     1       3.504  -0.818  31.919  1.00  0.00     0.177 HD
BRANCH  11  13
HETATM   13  C9  UNL     1       4.642  -2.407  31.349  1.00  0.00     0.693 A 
HETATM   14  N4  UNL     1       5.127  -2.966  32.472  1.00  0.00    -0.185 N 
HETATM   15  C10 UNL     1       6.178  -3.730  32.126  1.00  0.00     0.215 A 
ATOM     16  H4  UNL     1       4.763  -2.834  33.415  1.00  0.00     0.185 HD
HETATM   17  N5  UNL     1       6.356  -3.654  30.798  1.00  0.00    -0.281 N 
HETATM   18  N6  UNL     1       5.415  -2.848  30.345  1.00  0.00    -0.131 N 
ATOM     19  H5  UNL     1       7.075  -4.126  30.249  1.00  0.00     0.188 HD
ATOM     20  H6  UNL     1       5.292  -2.594  29.365  1.00  0.00     0.205 HD
ENDBRANCH  11  13
ENDBRANCH   1  11
TORSDOF 5
ENDMDL
