MODEL 1
REMARK VINA RESULT: -6.205848341      0.000      0.000
REMARK  7 active torsions:
REMARK  status: ('A' for Active; 'I' for Inactive)
REMARK    1  A    between atoms: C2_2  and  C3_3 
REMARK    2  A    between atoms: C3_3  and  N1_4 
REMARK    3  A    between atoms: N1_4  and  C4_6 
REMARK    4  A    between atoms: C7_11  and  N3_12 
REMARK    5  A    between atoms: N3_12  and  C8_14 
REMARK    6  A    between atoms: C8_14  and  C10_16 
REMARK    7  A    between atoms: C10_16  and  N4_17 
ROOT
HETATM    1  C4  UNL     1       2.963   2.020  26.644  1.00  0.00     0.679 A 
HETATM    2  N2  UNL     1       3.845   1.033  26.826  1.00  0.00    -0.202 N 
ATOM      3  H2  UNL     1       4.674   1.192  27.398  1.00  0.00     0.183 HD
HETATM    4  C5  UNL     1       3.645  -0.170  26.258  1.00  0.00     0.110 A 
HETATM    5  C6  UNL     1       2.522  -0.429  25.465  1.00  0.00     0.066 A 
HETATM    6  C7  UNL     1       1.635   0.600  25.295  1.00  0.00     0.118 A 
HETATM    7  N5  UNL     1       1.897   1.777  25.891  1.00  0.00    -0.177 N 
ATOM      8  H5  UNL     1       1.228   2.536  25.755  1.00  0.00     0.185 HD
ENDROOT
BRANCH   6   9
HETATM    9  N3  UNL     1       0.602   0.474  24.608  1.00  0.00    -0.370 N 
ATOM     10  H3  UNL     1       0.768   0.627  23.613  1.00  0.00     0.161 HD
BRANCH   9  11
HETATM   11  C8  UNL     1      -0.739   0.169  24.897  1.00  0.00     0.104 C 
HETATM   12  C9  UNL     1      -1.170   0.235  26.324  1.00  0.00     0.034 C 
BRANCH  11  13
HETATM   13  C10 UNL     1      -1.650   1.053  24.047  1.00  0.00     0.254 C 
BRANCH  13  14
HETATM   14  N4  UNL     1      -1.156   2.431  24.202  1.00  0.00    -0.077 N 
ATOM     15  H43 UNL     1      -0.506   2.542  24.979  1.00  0.00     0.274 HD
ATOM     16  H42 UNL     1      -0.516   2.717  23.460  1.00  0.00     0.274 HD
ATOM     17  H41 UNL     1      -1.981   3.027  24.276  1.00  0.00     0.274 HD
ENDBRANCH  13  14
ENDBRANCH  11  13
ENDBRANCH   9  11
ENDBRANCH   6   9
BRANCH   1  18
HETATM   18  N1  UNL     1       3.177   3.163  27.198  1.00  0.00    -0.226 N 
ATOM     19  H1  UNL     1       3.467   3.930  26.592  1.00  0.00     0.177 HD
BRANCH  18  20
HETATM   20  C3  UNL     1       3.043   3.444  28.596  1.00  0.00     0.137 C 
BRANCH  20  21
HETATM   21  C2  UNL     1       2.246   4.710  28.855  1.00  0.00     0.016 C 
HETATM   22  C1  UNL     1       1.164   4.836  27.803  1.00  0.00     0.006 C 
ENDBRANCH  20  21
ENDBRANCH  18  20
ENDBRANCH   1  18
TORSDOF 7
ENDMDL
MODEL 2
REMARK VINA RESULT: -6.132900616      1.558      3.718
REMARK  7 active torsions:
REMARK  status: ('A' for Active; 'I' for Inactive)
REMARK    1  A    between atoms: C2_2  and  C3_3 
REMARK    2  A    between atoms: C3_3  and  N1_4 
REMARK    3  A    between atoms: N1_4  and  C4_6 
REMARK    4  A    between atoms: C7_11  and  N3_12 
REMARK    5  A    between atoms: N3_12  and  C8_14 
REMARK    6  A    between atoms: C8_14  and  C10_16 
REMARK    7  A    between atoms: C10_16  and  N4_17 
ROOT
HETATM    1  C4  UNL     1      -0.052   2.811  25.755  1.00  0.00     0.679 A 
HETATM    2  N2  UNL     1      -1.059   2.459  24.950  1.00  0.00    -0.202 N 
ATOM      3  H2  UNL     1      -1.759   3.151  24.682  1.00  0.00     0.183 HD
HETATM    4  C5  UNL     1      -1.154   1.198  24.493  1.00  0.00     0.110 A 
HETATM    5  C6  UNL     1      -0.215   0.220  24.839  1.00  0.00     0.066 A 
HETATM    6  C7  UNL     1       0.805   0.607  25.664  1.00  0.00     0.118 A 
HETATM    7  N5  UNL     1       0.840   1.884  26.085  1.00  0.00    -0.177 N 
ATOM      8  H5  UNL     1       1.605   2.159  26.701  1.00  0.00     0.185 HD
ENDROOT
BRANCH   6   9
HETATM    9  N3  UNL     1       1.694  -0.186  26.032  1.00  0.00    -0.370 N 
ATOM     10  H3  UNL     1       1.326  -1.104  26.282  1.00  0.00     0.161 HD
BRANCH   9  11
HETATM   11  C8  UNL     1       3.088  -0.099  26.180  1.00  0.00     0.104 C 
HETATM   12  C9  UNL     1       3.696  -0.729  27.388  1.00  0.00     0.034 C 
BRANCH  11  13
HETATM   13  C10 UNL     1       3.763  -0.649  24.924  1.00  0.00     0.254 C 
BRANCH  13  14
HETATM   14  N4  UNL     1       3.397   0.260  23.824  1.00  0.00    -0.077 N 
ATOM     15  H43 UNL     1       2.503   0.029  23.391  1.00  0.00     0.274 HD
ATOM     16  H42 UNL     1       3.147   1.197  24.139  1.00  0.00     0.274 HD
ATOM     17  H41 UNL     1       4.179   0.249  23.169  1.00  0.00     0.274 HD
ENDBRANCH  13  14
ENDBRANCH  11  13
ENDBRANCH   9  11
ENDBRANCH   6   9
BRANCH   1  18
HETATM   18  N1  UNL     1       0.017   4.025  26.179  1.00  0.00    -0.226 N 
ATOM     19  H1  UNL     1      -0.804   4.616  26.043  1.00  0.00     0.177 HD
BRANCH  18  20
HETATM   20  C3  UNL     1       1.151   4.615  26.826  1.00  0.00     0.137 C 
BRANCH  20  21
HETATM   21  C2  UNL     1       0.889   4.911  28.292  1.00  0.00     0.016 C 
HETATM   22  C1  UNL     1       2.211   4.961  29.029  1.00  0.00     0.006 C 
ENDBRANCH  20  21
ENDBRANCH  18  20
ENDBRANCH   1  18
TORSDOF 7
ENDMDL
MODEL 3
REMARK VINA RESULT: -5.836931607      2.697      3.706
REMARK  7 active torsions:
REMARK  status: ('A' for Active; 'I' for Inactive)
REMARK    1  A    between atoms: C2_2  and  C3_3 
REMARK    2  A    between atoms: C3_3  and  N1_4 
REMARK    3  A    between atoms: N1_4  and  C4_6 
REMARK    4  A    between atoms: C7_11  and  N3_12 
REMARK    5  A    between atoms: N3_12  and  C8_14 
REMARK    6  A    between atoms: C8_14  and  C10_16 
REMARK    7  A    between atoms: C10_16  and  N4_17 
ROOT
HETATM    1  C4  UNL     1       2.948  -0.569  27.730  1.00  0.00     0.679 A 
HETATM    2  N2  UNL     1       4.113  -0.735  27.097  1.00  0.00    -0.202 N 
ATOM      3  H2  UNL     1       4.945  -1.000  27.626  1.00  0.00     0.183 HD
HETATM    4  C5  UNL     1       4.196  -0.554  25.767  1.00  0.00     0.110 A 
HETATM    5  C6  UNL     1       3.080  -0.189  25.006  1.00  0.00     0.066 A 
HETATM    6  C7  UNL     1       1.900  -0.025  25.679  1.00  0.00     0.118 A 
HETATM    7  N5  UNL     1       1.888  -0.221  27.009  1.00  0.00    -0.177 N 
ATOM      8  H5  UNL     1       1.002  -0.095  27.499  1.00  0.00     0.185 HD
ENDROOT
BRANCH   6   9
HETATM    9  N3  UNL     1       0.847   0.299  25.095  1.00  0.00    -0.370 N 
ATOM     10  H3  UNL     1       0.834   0.015  24.116  1.00  0.00     0.161 HD
BRANCH   9  11
HETATM   11  C8  UNL     1      -0.326   0.968  25.485  1.00  0.00     0.104 C 
HETATM   12  C9  UNL     1      -0.207   2.405  25.867  1.00  0.00     0.034 C 
BRANCH  11  13
HETATM   13  C10 UNL     1      -1.380   0.816  24.389  1.00  0.00     0.254 C 
BRANCH  13  14
HETATM   14  N4  UNL     1      -1.439   2.109  23.688  1.00  0.00    -0.077 N 
ATOM     15  H43 UNL     1      -1.933   2.831  24.212  1.00  0.00     0.274 HD
ATOM     16  H42 UNL     1      -0.538   2.584  23.637  1.00  0.00     0.274 HD
ATOM     17  H41 UNL     1      -1.849   1.922  22.773  1.00  0.00     0.274 HD
ENDBRANCH  13  14
ENDBRANCH  11  13
ENDBRANCH   9  11
ENDBRANCH   6   9
BRANCH   1  18
HETATM   18  N1  UNL     1       2.895  -0.748  29.004  1.00  0.00    -0.226 N 
ATOM     19  H1  UNL     1       2.402  -0.046  29.555  1.00  0.00     0.177 HD
BRANCH  18  20
HETATM   20  C3  UNL     1       3.472  -1.852  29.711  1.00  0.00     0.137 C 
BRANCH  20  21
HETATM   21  C2  UNL     1       2.877  -2.024  31.096  1.00  0.00     0.016 C 
HETATM   22  C1  UNL     1       2.281  -3.411  31.209  1.00  0.00     0.006 C 
ENDBRANCH  20  21
ENDBRANCH  18  20
ENDBRANCH   1  18
TORSDOF 7
ENDMDL
MODEL 4
REMARK VINA RESULT: -5.821576436      2.651      4.709
REMARK  7 active torsions:
REMARK  status: ('A' for Active; 'I' for Inactive)
REMARK    1  A    between atoms: C2_2  and  C3_3 
REMARK    2  A    between atoms: C3_3  and  N1_4 
REMARK    3  A    between atoms: N1_4  and  C4_6 
REMARK    4  A    between atoms: C7_11  and  N3_12 
REMARK    5  A    between atoms: N3_12  and  C8_14 
REMARK    6  A    between atoms: C8_14  and  C10_16 
REMARK    7  A    between atoms: C10_16  and  N4_17 
ROOT
HETATM    1  C4  UNL     1       1.938   0.232  28.218  1.00  0.00     0.679 A 
HETATM    2  N2  UNL     1       2.700  -0.431  27.343  1.00  0.00    -0.202 N 
ATOM      3  H2  UNL     1       2.728  -1.450  27.364  1.00  0.00     0.183 HD
HETATM    4  C5  UNL     1       3.432   0.240  26.434  1.00  0.00     0.110 A 
HETATM    5  C6  UNL     1       3.423   1.638  26.374  1.00  0.00     0.066 A 
HETATM    6  C7  UNL     1       2.634   2.291  27.281  1.00  0.00     0.118 A 
HETATM    7  N5  UNL     1       1.929   1.559  28.162  1.00  0.00    -0.177 N 
ATOM      8  H5  UNL     1       1.346   2.058  28.834  1.00  0.00     0.185 HD
ENDROOT
BRANCH   6   9
HETATM    9  N3  UNL     1       2.554   3.535  27.312  1.00  0.00    -0.370 N 
ATOM     10  H3  UNL     1       3.445   3.983  27.527  1.00  0.00     0.161 HD
BRANCH   9  11
HETATM   11  C8  UNL     1       1.512   4.457  27.118  1.00  0.00     0.104 C 
HETATM   12  C9  UNL     1       0.312   3.994  26.363  1.00  0.00     0.034 C 
BRANCH  11  13
HETATM   13  C10 UNL     1       1.078   5.018  28.472  1.00  0.00     0.254 C 
BRANCH  13  14
HETATM   14  N4  UNL     1       2.298   5.530  29.120  1.00  0.00    -0.077 N 
ATOM     15  H43 UNL     1       2.180   5.709  30.117  1.00  0.00     0.274 HD
ATOM     16  H42 UNL     1       3.035   4.830  29.204  1.00  0.00     0.274 HD
ATOM     17  H41 UNL     1       2.581   6.355  28.591  1.00  0.00     0.274 HD
ENDBRANCH  13  14
ENDBRANCH  11  13
ENDBRANCH   9  11
ENDBRANCH   6   9
BRANCH   1  18
HETATM   18  N1  UNL     1       1.247  -0.433  29.077  1.00  0.00    -0.226 N 
ATOM     19  H1  UNL     1       1.749  -1.094  29.670  1.00  0.00     0.177 HD
BRANCH  18  20
HETATM   20  C3  UNL     1      -0.168  -0.323  29.268  1.00  0.00     0.137 C 
BRANCH  20  21
HETATM   21  C2  UNL     1      -0.664  -1.187  30.413  1.00  0.00     0.016 C 
HETATM   22  C1  UNL     1       0.424  -2.166  30.801  1.00  0.00     0.006 C 
ENDBRANCH  20  21
ENDBRANCH  18  20
ENDBRANCH   1  18
TORSDOF 7
ENDMDL
MODEL 5
REMARK VINA RESULT: -5.799648624      2.642      3.430
REMARK  7 active torsions:
REMARK  status: ('A' for Active; 'I' for Inactive)
REMARK    1  A    between atoms: C2_2  and  C3_3 
REMARK    2  A    between atoms: C3_3  and  N1_4 
REMARK    3  A    between atoms: N1_4  and  C4_6 
REMARK    4  A    between atoms: C7_11  and  N3_12 
REMARK    5  A    between atoms: N3_12  and  C8_14 
REMARK    6  A    between atoms: C8_14  and  C10_16 
REMARK    7  A    between atoms: C10_16  and  N4_17 
ROOT
HETATM    1  C4  UNL     1       2.741   2.364  27.024  1.00  0.00     0.679 A 
HETATM    2  N2  UNL     1       3.492   1.768  26.093  1.00  0.00    -0.202 N 
ATOM      3  H2  UNL     1       3.997   2.334  25.410  1.00  0.00     0.183 HD
HETATM    4  C5  UNL     1       3.585   0.427  26.050  1.00  0.00     0.110 A 
HETATM    5  C6  UNL     1       2.906  -0.384  26.967  1.00  0.00     0.066 A 
HETATM    6  C7  UNL     1       2.145   0.252  27.910  1.00  0.00     0.118 A 
HETATM    7  N5  UNL     1       2.096   1.595  27.895  1.00  0.00    -0.177 N 
ATOM      8  H5  UNL     1       1.524   2.057  28.603  1.00  0.00     0.185 HD
ENDROOT
BRANCH   6   9
HETATM    9  N3  UNL     1       1.502  -0.378  28.773  1.00  0.00    -0.370 N 
ATOM     10  H3  UNL     1       2.042  -1.131  29.198  1.00  0.00     0.161 HD
BRANCH   9  11
HETATM   11  C8  UNL     1       0.199  -0.282  29.290  1.00  0.00     0.104 C 
HETATM   12  C9  UNL     1      -0.926  -0.183  28.315  1.00  0.00     0.034 C 
BRANCH  11  13
HETATM   13  C10 UNL     1      -0.052  -1.450  30.242  1.00  0.00     0.254 C 
BRANCH  13  14
HETATM   14  N4  UNL     1      -1.301  -1.142  30.959  1.00  0.00    -0.077 N 
ATOM     15  H43 UNL     1      -1.850  -1.971  31.188  1.00  0.00     0.274 HD
ATOM     16  H42 UNL     1      -1.151  -0.822  31.915  1.00  0.00     0.274 HD
ATOM     17  H41 UNL     1      -1.806  -0.469  30.382  1.00  0.00     0.274 HD
ENDBRANCH  13  14
ENDBRANCH  11  13
ENDBRANCH   9  11
ENDBRANCH   6   9
BRANCH   1  18
HETATM   18  N1  UNL     1       2.669   3.649  27.044  1.00  0.00    -0.226 N 
ATOM     19  H1  UNL     1       3.544   4.166  27.137  1.00  0.00     0.177 HD
BRANCH  18  20
HETATM   20  C3  UNL     1       1.462   4.414  26.946  1.00  0.00     0.137 C 
BRANCH  20  21
HETATM   21  C2  UNL     1       0.989   4.919  28.297  1.00  0.00     0.016 C 
HETATM   22  C1  UNL     1       2.194   5.199  29.170  1.00  0.00     0.006 C 
ENDBRANCH  20  21
ENDBRANCH  18  20
ENDBRANCH   1  18
TORSDOF 7
ENDMDL
