MODEL 1
REMARK VINA RESULT: -7.774623126      0.000      0.000
REMARK  5 active torsions:
REMARK  status: ('A' for Active; 'I' for Inactive)
REMARK    1  A    between atoms: N2_4  and  N3_6 
REMARK    2  A    between atoms: C1_8  and  C2_9 
REMARK    3  A    between atoms: C2_9  and  C3_10 
REMARK    4  A    between atoms: C5_14  and  C6_15 
REMARK    5  A    between atoms: C6_15  and  N5_16 
ROOT
HETATM    1  C3  UNL     1      -0.088   0.247  25.323  1.00  0.00     0.087 A 
HETATM    2  N4  UNL     1       0.396   0.103  26.568  1.00  0.00    -0.343 N 
ATOM      3  H4  UNL     1      -0.171   0.157  27.414  1.00  0.00     0.167 HD
HETATM    4  C4  UNL     1       1.728  -0.122  26.559  1.00  0.00     0.068 A 
HETATM    5  C5  UNL     1       2.683  -0.333  27.525  1.00  0.00    -0.004 A 
HETATM    6  C7  UNL     1       3.986  -0.535  27.145  1.00  0.00     0.011 A 
HETATM    7  C8  UNL     1       4.351  -0.531  25.793  1.00  0.00     0.003 A 
HETATM    8  C9  UNL     1       3.384  -0.319  24.835  1.00  0.00     0.032 A 
HETATM    9  C10 UNL     1       2.067  -0.113  25.198  1.00  0.00     0.061 A 
HETATM   10  N6  UNL     1       0.943   0.113  24.495  1.00  0.00    -0.344 N 
ATOM     11  H6  UNL     1       0.890   0.172  23.479  1.00  0.00     0.167 HD
ENDROOT
BRANCH   1  12
HETATM   12  C2  UNL     1      -1.528   0.507  25.005  1.00  0.00     0.122 C 
BRANCH  12  13
HETATM   13  C1  UNL     1      -1.614   1.286  23.752  1.00  0.00     0.089 C 
HETATM   14  N3  UNL     1      -1.301   2.526  23.759  1.00  0.00    -0.301 N 
ATOM     15  H3  UNL     1      -1.356   3.072  22.900  1.00  0.00     0.187 HD
BRANCH  14  16
HETATM   16  N2  UNL     1      -0.886   3.124  24.941  1.00  0.00    -0.250 N 
HETATM   17  N1  UNL     1      -0.990   4.380  25.048  1.00  0.00    -0.331 N 
ATOM     18  H12 UNL     1      -1.373   4.925  24.276  1.00  0.00     0.178 HD
ATOM     19  H11 UNL     1      -0.685   4.819  25.917  1.00  0.00     0.178 HD
ATOM     20  H2  UNL     1      -0.505   2.565  25.704  1.00  0.00     0.207 HD
ENDBRANCH  14  16
ENDBRANCH  12  13
ENDBRANCH   1  12
BRANCH   5  21
HETATM   21  C6  UNL     1       2.303  -0.339  28.952  1.00  0.00     0.270 C 
BRANCH  21  22
HETATM   22  N5  UNL     1       2.995  -1.338  29.708  1.00  0.00    -0.075 N 
ATOM     23  H53 UNL     1       2.629  -2.268  29.504  1.00  0.00     0.274 HD
ATOM     24  H52 UNL     1       3.950  -1.457  29.367  1.00  0.00     0.274 HD
ATOM     25  H51 UNL     1       2.986  -1.154  30.711  1.00  0.00     0.274 HD
ENDBRANCH  21  22
ENDBRANCH   5  21
TORSDOF 5
ENDMDL
MODEL 2
REMARK VINA RESULT: -7.339268815      1.328      2.538
REMARK  5 active torsions:
REMARK  status: ('A' for Active; 'I' for Inactive)
REMARK    1  A    between atoms: N2_4  and  N3_6 
REMARK    2  A    between atoms: C1_8  and  C2_9 
REMARK    3  A    between atoms: C2_9  and  C3_10 
REMARK    4  A    between atoms: C5_14  and  C6_15 
REMARK    5  A    between atoms: C6_15  and  N5_16 
ROOT
HETATM    1  C3  UNL     1      -0.456   0.310  25.588  1.00  0.00     0.087 A 
HETATM    2  N4  UNL     1       0.748   0.073  25.042  1.00  0.00    -0.343 N 
ATOM      3  H4  UNL     1       0.925   0.036  24.038  1.00  0.00     0.167 HD
HETATM    4  C4  UNL     1       1.695  -0.109  25.987  1.00  0.00     0.068 A 
HETATM    5  C5  UNL     1       3.044  -0.372  25.972  1.00  0.00    -0.004 A 
HETATM    6  C7  UNL     1       3.715  -0.500  27.162  1.00  0.00     0.011 A 
HETATM    7  C8  UNL     1       3.045  -0.365  28.385  1.00  0.00     0.003 A 
HETATM    8  C9  UNL     1       1.692  -0.102  28.386  1.00  0.00     0.032 A 
HETATM    9  C10 UNL     1       1.000   0.030  27.198  1.00  0.00     0.061 A 
HETATM   10  N6  UNL     1      -0.289   0.280  26.906  1.00  0.00    -0.344 N 
ATOM     11  H6  UNL     1      -1.027   0.426  27.594  1.00  0.00     0.167 HD
ENDROOT
BRANCH   1  12
HETATM   12  C2  UNL     1      -1.706   0.551  24.800  1.00  0.00     0.122 C 
BRANCH  12  13
HETATM   13  C1  UNL     1      -1.376   1.352  23.602  1.00  0.00     0.089 C 
HETATM   14  N3  UNL     1      -1.224   2.616  23.712  1.00  0.00    -0.301 N 
ATOM     15  H3  UNL     1      -0.996   3.178  22.893  1.00  0.00     0.187 HD
BRANCH  14  16
HETATM   16  N2  UNL     1      -1.372   3.221  24.953  1.00  0.00    -0.250 N 
HETATM   17  N1  UNL     1      -0.383   3.839  25.443  1.00  0.00    -0.331 N 
ATOM     18  H12 UNL     1       0.495   3.882  24.925  1.00  0.00     0.178 HD
ATOM     19  H11 UNL     1      -0.492   4.283  26.355  1.00  0.00     0.178 HD
ATOM     20  H2  UNL     1      -2.257   3.168  25.459  1.00  0.00     0.207 HD
ENDBRANCH  14  16
ENDBRANCH  12  13
ENDBRANCH   1  12
BRANCH   5  21
HETATM   21  C6  UNL     1       3.755  -0.514  24.686  1.00  0.00     0.270 C 
BRANCH  21  22
HETATM   22  N5  UNL     1       3.252   0.362  23.672  1.00  0.00    -0.075 N 
ATOM     23  H53 UNL     1       2.249   0.512  23.784  1.00  0.00     0.274 HD
ATOM     24  H52 UNL     1       3.579   1.317  23.820  1.00  0.00     0.274 HD
ATOM     25  H51 UNL     1       3.469   0.044  22.728  1.00  0.00     0.274 HD
ENDBRANCH  21  22
ENDBRANCH   5  21
TORSDOF 5
ENDMDL
MODEL 3
REMARK VINA RESULT: -7.311741501      3.224      5.492
REMARK  5 active torsions:
REMARK  status: ('A' for Active; 'I' for Inactive)
REMARK    1  A    between atoms: N2_4  and  N3_6 
REMARK    2  A    between atoms: C1_8  and  C2_9 
REMARK    3  A    between atoms: C2_9  and  C3_10 
REMARK    4  A    between atoms: C5_14  and  C6_15 
REMARK    5  A    between atoms: C6_15  and  N5_16 
ROOT
HETATM    1  C3  UNL     1      -1.093  -0.436  29.083  1.00  0.00     0.087 A 
HETATM    2  N4  UNL     1      -1.404  -0.188  27.799  1.00  0.00    -0.343 N 
ATOM      3  H4  UNL     1      -2.356  -0.162  27.434  1.00  0.00     0.167 HD
HETATM    4  C4  UNL     1      -0.298   0.023  27.054  1.00  0.00     0.068 A 
HETATM    5  C5  UNL     1      -0.060   0.308  25.730  1.00  0.00    -0.004 A 
HETATM    6  C7  UNL     1       1.234   0.465  25.300  1.00  0.00     0.011 A 
HETATM    7  C8  UNL     1       2.308   0.338  26.191  1.00  0.00     0.003 A 
HETATM    8  C9  UNL     1       2.055   0.052  27.515  1.00  0.00     0.032 A 
HETATM    9  C10 UNL     1       0.759  -0.109  27.965  1.00  0.00     0.061 A 
HETATM   10  N6  UNL     1       0.231  -0.385  29.171  1.00  0.00    -0.344 N 
ATOM     11  H6  UNL     1       0.768  -0.532  30.025  1.00  0.00     0.167 HD
ENDROOT
BRANCH   1  12
HETATM   12  C2  UNL     1      -2.102  -0.709  30.155  1.00  0.00     0.122 C 
BRANCH  12  13
HETATM   13  C1  UNL     1      -1.818  -2.026  30.763  1.00  0.00     0.089 C 
HETATM   14  N3  UNL     1      -2.419  -3.065  30.325  1.00  0.00    -0.301 N 
ATOM     15  H3  UNL     1      -2.229  -3.978  30.737  1.00  0.00     0.187 HD
BRANCH  14  16
HETATM   16  N2  UNL     1      -3.331  -2.945  29.284  1.00  0.00    -0.250 N 
HETATM   17  N1  UNL     1      -3.009  -3.397  28.148  1.00  0.00    -0.331 N 
ATOM     18  H12 UNL     1      -2.098  -3.837  28.016  1.00  0.00     0.178 HD
ATOM     19  H11 UNL     1      -3.680  -3.308  27.384  1.00  0.00     0.178 HD
ATOM     20  H2  UNL     1      -4.238  -2.502  29.433  1.00  0.00     0.207 HD
ENDBRANCH  14  16
ENDBRANCH  12  13
ENDBRANCH   1  12
BRANCH   5  21
HETATM   21  C6  UNL     1      -1.189   0.443  24.788  1.00  0.00     0.270 C 
BRANCH  21  22
HETATM   22  N5  UNL     1      -0.995   1.492  23.833  1.00  0.00    -0.075 N 
ATOM     23  H53 UNL     1      -0.027   1.814  23.836  1.00  0.00     0.274 HD
ATOM     24  H52 UNL     1      -1.048   1.132  22.880  1.00  0.00     0.274 HD
ATOM     25  H51 UNL     1      -1.639   2.272  23.964  1.00  0.00     0.274 HD
ENDBRANCH  21  22
ENDBRANCH   5  21
TORSDOF 5
ENDMDL
MODEL 4
REMARK VINA RESULT: -7.240196880      2.604      4.682
REMARK  5 active torsions:
REMARK  status: ('A' for Active; 'I' for Inactive)
REMARK    1  A    between atoms: N2_4  and  N3_6 
REMARK    2  A    between atoms: C1_8  and  C2_9 
REMARK    3  A    between atoms: C2_9  and  C3_10 
REMARK    4  A    between atoms: C5_14  and  C6_15 
REMARK    5  A    between atoms: C6_15  and  N5_16 
ROOT
HETATM    1  C3  UNL     1       1.718  -0.039  28.347  1.00  0.00     0.087 A 
HETATM    2  N4  UNL     1       2.774  -0.708  28.839  1.00  0.00    -0.343 N 
ATOM      3  H4  UNL     1       3.730  -0.601  28.499  1.00  0.00     0.167 HD
HETATM    4  C4  UNL     1       2.413  -1.541  29.838  1.00  0.00     0.068 A 
HETATM    5  C5  UNL     1       3.079  -2.424  30.656  1.00  0.00    -0.004 A 
HETATM    6  C7  UNL     1       2.372  -3.129  31.597  1.00  0.00     0.011 A 
HETATM    7  C8  UNL     1       0.988  -2.961  31.733  1.00  0.00     0.003 A 
HETATM    8  C9  UNL     1       0.333  -2.074  30.907  1.00  0.00     0.032 A 
HETATM    9  C10 UNL     1       1.028  -1.354  29.955  1.00  0.00     0.061 A 
HETATM   10  N6  UNL     1       0.657  -0.443  29.037  1.00  0.00    -0.344 N 
ATOM     11  H6  UNL     1      -0.297  -0.112  28.894  1.00  0.00     0.167 HD
ENDROOT
BRANCH   1  12
HETATM   12  C2  UNL     1       1.797   0.957  27.232  1.00  0.00     0.122 C 
BRANCH  12  13
HETATM   13  C1  UNL     1       0.874   0.549  26.152  1.00  0.00     0.089 C 
HETATM   14  N3  UNL     1       1.343   0.265  24.998  1.00  0.00    -0.301 N 
ATOM     15  H3  UNL     1       0.716  -0.018  24.245  1.00  0.00     0.187 HD
BRANCH  14  16
HETATM   16  N2  UNL     1       2.711   0.343  24.772  1.00  0.00    -0.250 N 
HETATM   17  N1  UNL     1       3.126   0.320  23.578  1.00  0.00    -0.331 N 
ATOM     18  H12 UNL     1       2.459   0.246  22.810  1.00  0.00     0.178 HD
ATOM     19  H11 UNL     1       4.131   0.377  23.413  1.00  0.00     0.178 HD
ATOM     20  H2  UNL     1       3.366   0.416  25.551  1.00  0.00     0.207 HD
ENDBRANCH  14  16
ENDBRANCH  12  13
ENDBRANCH   1  12
BRANCH   5  21
HETATM   21  C6  UNL     1       4.538  -2.604  30.516  1.00  0.00     0.270 C 
BRANCH  21  22
HETATM   22  N5  UNL     1       5.222  -2.603  31.774  1.00  0.00    -0.075 N 
ATOM     23  H53 UNL     1       4.978  -1.777  32.321  1.00  0.00     0.274 HD
ATOM     24  H52 UNL     1       4.851  -3.326  32.390  1.00  0.00     0.274 HD
ATOM     25  H51 UNL     1       6.233  -2.690  31.675  1.00  0.00     0.274 HD
ENDBRANCH  21  22
ENDBRANCH   5  21
TORSDOF 5
ENDMDL
MODEL 5
REMARK VINA RESULT: -7.078810237      3.158      4.227
REMARK  5 active torsions:
REMARK  status: ('A' for Active; 'I' for Inactive)
REMARK    1  A    between atoms: N2_4  and  N3_6 
REMARK    2  A    between atoms: C1_8  and  C2_9 
REMARK    3  A    between atoms: C2_9  and  C3_10 
REMARK    4  A    between atoms: C5_14  and  C6_15 
REMARK    5  A    between atoms: C6_15  and  N5_16 
ROOT
HETATM    1  C3  UNL     1       1.361   1.297  27.810  1.00  0.00     0.087 A 
HETATM    2  N4  UNL     1       2.205   0.442  28.411  1.00  0.00    -0.343 N 
ATOM      3  H4  UNL     1       3.217   0.447  28.279  1.00  0.00     0.167 HD
HETATM    4  C4  UNL     1       1.547  -0.424  29.210  1.00  0.00     0.068 A 
HETATM    5  C5  UNL     1       1.919  -1.467  30.026  1.00  0.00    -0.004 A 
HETATM    6  C7  UNL     1       0.953  -2.154  30.717  1.00  0.00     0.011 A 
HETATM    7  C8  UNL     1      -0.399  -1.807  30.602  1.00  0.00     0.003 A 
HETATM    8  C9  UNL     1      -0.758  -0.760  29.781  1.00  0.00     0.032 A 
HETATM    9  C10 UNL     1       0.200  -0.057  29.078  1.00  0.00     0.061 A 
HETATM   10  N6  UNL     1       0.139   0.982  28.226  1.00  0.00    -0.344 N 
ATOM     11  H6  UNL     1      -0.717   1.456  27.941  1.00  0.00     0.167 HD
ENDROOT
BRANCH   1  12
HETATM   12  C2  UNL     1       1.788   2.376  26.864  1.00  0.00     0.122 C 
BRANCH  12  13
HETATM   13  C1  UNL     1       0.663   3.311  26.655  1.00  0.00     0.089 C 
HETATM   14  N3  UNL     1       0.715   4.482  27.166  1.00  0.00    -0.301 N 
ATOM     15  H3  UNL     1      -0.056   5.135  27.028  1.00  0.00     0.187 HD
BRANCH  14  16
HETATM   16  N2  UNL     1       1.825   4.860  27.910  1.00  0.00    -0.250 N 
HETATM   17  N1  UNL     1       1.637   5.466  29.004  1.00  0.00    -0.331 N 
ATOM     18  H12 UNL     1       0.687   5.665  29.318  1.00  0.00     0.178 HD
ATOM     19  H11 UNL     1       2.453   5.743  29.551  1.00  0.00     0.178 HD
ATOM     20  H2  UNL     1       2.768   4.654  27.583  1.00  0.00     0.207 HD
ENDBRANCH  14  16
ENDBRANCH  12  13
ENDBRANCH   1  12
BRANCH   5  21
HETATM   21  C6  UNL     1       3.343  -1.836  30.151  1.00  0.00     0.270 C 
BRANCH  21  22
HETATM   22  N5  UNL     1       3.831  -1.724  31.493  1.00  0.00    -0.075 N 
ATOM     23  H53 UNL     1       3.349  -0.979  31.996  1.00  0.00     0.274 HD
ATOM     24  H52 UNL     1       3.536  -2.522  32.056  1.00  0.00     0.274 HD
ATOM     25  H51 UNL     1       4.843  -1.599  31.538  1.00  0.00     0.274 HD
ENDBRANCH  21  22
ENDBRANCH   5  21
TORSDOF 5
ENDMDL
