MODEL 1
REMARK VINA RESULT: -6.850701219      0.000      0.000
REMARK  3 active torsions:
REMARK  status: ('A' for Active; 'I' for Inactive)
REMARK    1  A    between atoms: C3_3  and  O1_4 
REMARK       I    between atoms: N1_8  and  C6_9 
REMARK    2  A    between atoms: C6_9  and  C7_11 
REMARK    3  A    between atoms: C10_19  and  C11_20 
ROOT
HETATM    1  C1  UNL     1      25.324  33.989  20.774  1.00  0.00     0.015 C 
HETATM    2  C2  UNL     1      24.832  32.926  20.533  1.00  0.00    -0.079 C 
HETATM    3  C3  UNL     1      24.237  31.630  20.213  1.00  0.00     0.127 C 
HETATM    4  C4  UNL     1      24.389  31.387  18.730  1.00  0.00     0.071 C 
HETATM    5  C5  UNL     1      23.343  32.217  17.995  1.00  0.00     0.130 C 
HETATM    6  N1  UNL     1      22.022  31.905  18.501  1.00  0.00    -0.341 N 
HETATM    7  C6  UNL     1      21.113  31.168  17.751  1.00  0.00     0.273 C 
HETATM    8  O2  UNL     1      19.928  30.935  18.206  1.00  0.00    -0.266 OA
HETATM    9  C10 UNL     1      21.849  32.393  19.835  1.00  0.00     0.098 C 
HETATM   10  C14 UNL     1      22.836  31.610  20.715  1.00  0.00     0.052 C 
HETATM   11  C15 UNL     1      22.893  32.226  22.124  1.00  0.00     0.016 C 
ENDROOT
BRANCH   3  12
HETATM   12  O1  UNL     1      24.932  30.606  20.861  1.00  0.00    -0.377 OA
ATOM     13  H1  UNL     1      24.943  29.823  20.322  1.00  0.00     0.211 HD
ENDBRANCH   3  12
BRANCH   9  14
HETATM   14  C11 UNL     1      20.590  32.502  20.528  1.00  0.00     0.001 C 
HETATM   15  C12 UNL     1      19.600  33.521  20.002  1.00  0.00     0.011 C 
HETATM   16  C13 UNL     1      19.924  31.245  21.033  1.00  0.00     0.011 C 
ENDBRANCH   9  14
BRANCH   7  17
HETATM   17  C7  UNL     1      21.310  30.561  16.412  1.00  0.00     0.131 A 
HETATM   18  N2  UNL     1      21.049  31.298  15.324  1.00  0.00    -0.306 N 
HETATM   19  S1  UNL     1      21.377  30.311  14.025  1.00  0.00     0.067 SA
ATOM     20  H2  UNL     1      20.718  32.262  15.297  1.00  0.00     0.176 HD
HETATM   21  N3  UNL     1      21.851  28.953  14.863  1.00  0.00    -0.314 N 
HETATM   22  C8  UNL     1      21.745  29.290  16.143  1.00  0.00     0.046 A 
ATOM     23  H3  UNL     1      22.156  28.059  14.478  1.00  0.00     0.175 HD
HETATM   24  C9  UNL     1      22.100  28.283  17.227  1.00  0.00     0.071 C 
ENDBRANCH   7  17
TORSDOF 3
ENDMDL
MODEL 2
REMARK VINA RESULT: -6.712353426      3.072      5.462
REMARK  3 active torsions:
REMARK  status: ('A' for Active; 'I' for Inactive)
REMARK    1  A    between atoms: C3_3  and  O1_4 
REMARK       I    between atoms: N1_8  and  C6_9 
REMARK    2  A    between atoms: C6_9  and  C7_11 
REMARK    3  A    between atoms: C10_19  and  C11_20 
ROOT
HETATM    1  C1  UNL     1      19.873  27.777  20.071  1.00  0.00     0.015 C 
HETATM    2  C2  UNL     1      21.001  27.956  19.714  1.00  0.00    -0.079 C 
HETATM    3  C3  UNL     1      22.380  28.194  19.295  1.00  0.00     0.127 C 
HETATM    4  C4  UNL     1      22.911  29.386  20.052  1.00  0.00     0.071 C 
HETATM    5  C5  UNL     1      22.342  30.652  19.421  1.00  0.00     0.130 C 
HETATM    6  N1  UNL     1      22.652  30.679  18.006  1.00  0.00    -0.341 N 
HETATM    7  C6  UNL     1      23.602  31.551  17.488  1.00  0.00     0.273 C 
HETATM    8  O2  UNL     1      23.835  31.585  16.220  1.00  0.00    -0.266 OA
HETATM    9  C10 UNL     1      21.915  29.681  17.295  1.00  0.00     0.098 C 
HETATM   10  C14 UNL     1      22.413  28.322  17.812  1.00  0.00     0.052 C 
HETATM   11  C15 UNL     1      21.516  27.191  17.279  1.00  0.00     0.016 C 
ENDROOT
BRANCH   3  12
HETATM   12  O1  UNL     1      23.185  27.106  19.642  1.00  0.00    -0.377 OA
ATOM     13  H1  UNL     1      23.933  27.051  19.058  1.00  0.00     0.211 HD
ENDBRANCH   3  12
BRANCH   9  14
HETATM   14  C11 UNL     1      21.771  29.611  15.863  1.00  0.00     0.001 C 
HETATM   15  C12 UNL     1      20.930  30.685  15.202  1.00  0.00     0.011 C 
HETATM   16  C13 UNL     1      22.962  29.203  15.029  1.00  0.00     0.011 C 
ENDBRANCH   9  14
BRANCH   7  17
HETATM   17  C7  UNL     1      24.455  32.518  18.223  1.00  0.00     0.131 A 
HETATM   18  N2  UNL     1      25.641  32.107  18.692  1.00  0.00    -0.306 N 
HETATM   19  S1  UNL     1      26.307  33.431  19.447  1.00  0.00     0.067 SA
ATOM     20  H2  UNL     1      26.050  31.177  18.604  1.00  0.00     0.176 HD
HETATM   21  N3  UNL     1      25.077  34.518  19.168  1.00  0.00    -0.314 N 
HETATM   22  C8  UNL     1      24.165  33.830  18.492  1.00  0.00     0.046 A 
ATOM     23  H3  UNL     1      25.034  35.496  19.454  1.00  0.00     0.175 HD
HETATM   24  C9  UNL     1      22.874  34.506  18.053  1.00  0.00     0.071 C 
ENDBRANCH   7  17
TORSDOF 3
ENDMDL
MODEL 3
REMARK VINA RESULT: -6.476475510      3.054      4.382
REMARK  3 active torsions:
REMARK  status: ('A' for Active; 'I' for Inactive)
REMARK    1  A    between atoms: C3_3  and  O1_4 
REMARK       I    between atoms: N1_8  and  C6_9 
REMARK    2  A    between atoms: C6_9  and  C7_11 
REMARK    3  A    between atoms: C10_19  and  C11_20 
ROOT
HETATM    1  C1  UNL     1      25.389  32.877  20.101  1.00  0.00     0.015 C 
HETATM    2  C2  UNL     1      24.251  32.592  19.870  1.00  0.00    -0.079 C 
HETATM    3  C3  UNL     1      22.861  32.225  19.607  1.00  0.00     0.127 C 
HETATM    4  C4  UNL     1      22.498  31.059  20.494  1.00  0.00     0.071 C 
HETATM    5  C5  UNL     1      23.102  29.792  19.898  1.00  0.00     0.130 C 
HETATM    6  N1  UNL     1      22.665  29.635  18.526  1.00  0.00    -0.341 N 
HETATM    7  C6  UNL     1      21.742  28.661  18.166  1.00  0.00     0.273 C 
HETATM    8  O2  UNL     1      21.395  28.514  16.932  1.00  0.00    -0.266 OA
HETATM    9  C10 UNL     1      23.253  30.627  17.678  1.00  0.00     0.098 C 
HETATM   10  C14 UNL     1      22.700  31.982  18.147  1.00  0.00     0.052 C 
HETATM   11  C15 UNL     1      23.453  33.130  17.451  1.00  0.00     0.016 C 
ENDROOT
BRANCH   3  12
HETATM   12  O1  UNL     1      22.009  33.276  19.955  1.00  0.00    -0.377 OA
ATOM     13  H1  UNL     1      21.793  33.232  20.879  1.00  0.00     0.211 HD
ENDBRANCH   3  12
BRANCH   9  14
HETATM   14  C11 UNL     1      23.256  30.597  16.237  1.00  0.00     0.001 C 
HETATM   15  C12 UNL     1      22.162  31.370  15.530  1.00  0.00     0.011 C 
HETATM   16  C13 UNL     1      24.578  30.653  15.509  1.00  0.00     0.011 C 
ENDBRANCH   9  14
BRANCH   7  17
HETATM   17  C7  UNL     1      21.039  27.695  19.046  1.00  0.00     0.131 A 
HETATM   18  N2  UNL     1      21.369  26.398  18.975  1.00  0.00    -0.306 N 
HETATM   19  S1  UNL     1      20.396  25.628  20.084  1.00  0.00     0.067 SA
ATOM     20  H2  UNL     1      22.069  25.972  18.369  1.00  0.00     0.176 HD
HETATM   21  N3  UNL     1      19.564  26.957  20.646  1.00  0.00    -0.314 N 
HETATM   22  C8  UNL     1      20.057  27.980  19.958  1.00  0.00     0.046 A 
ATOM     23  H3  UNL     1      18.836  26.979  21.360  1.00  0.00     0.175 HD
HETATM   24  C9  UNL     1      19.529  29.386  20.204  1.00  0.00     0.071 C 
ENDBRANCH   7  17
TORSDOF 3
ENDMDL
MODEL 4
REMARK VINA RESULT: -6.282268026      2.913      5.225
REMARK  3 active torsions:
REMARK  status: ('A' for Active; 'I' for Inactive)
REMARK    1  A    between atoms: C3_3  and  O1_4 
REMARK       I    between atoms: N1_8  and  C6_9 
REMARK    2  A    between atoms: C6_9  and  C7_11 
REMARK    3  A    between atoms: C10_19  and  C11_20 
ROOT
HETATM    1  C1  UNL     1      19.912  27.983  20.030  1.00  0.00     0.015 C 
HETATM    2  C2  UNL     1      21.014  28.283  19.675  1.00  0.00    -0.079 C 
HETATM    3  C3  UNL     1      22.359  28.670  19.255  1.00  0.00     0.127 C 
HETATM    4  C4  UNL     1      22.697  29.994  19.897  1.00  0.00     0.071 C 
HETATM    5  C5  UNL     1      21.978  31.100  19.132  1.00  0.00     0.130 C 
HETATM    6  N1  UNL     1      22.323  31.032  17.727  1.00  0.00    -0.341 N 
HETATM    7  C6  UNL     1      23.158  31.974  17.138  1.00  0.00     0.273 C 
HETATM    8  O2  UNL     1      23.421  31.916  15.877  1.00  0.00    -0.266 OA
HETATM    9  C10 UNL     1      21.752  29.875  17.109  1.00  0.00     0.098 C 
HETATM   10  C14 UNL     1      22.418  28.657  17.768  1.00  0.00     0.052 C 
HETATM   11  C15 UNL     1      21.702  27.364  17.337  1.00  0.00     0.016 C 
ENDROOT
BRANCH   3  12
HETATM   12  O1  UNL     1      23.296  27.745  19.723  1.00  0.00    -0.377 OA
ATOM     13  H1  UNL     1      22.928  26.869  19.712  1.00  0.00     0.211 HD
ENDBRANCH   3  12
BRANCH   9  14
HETATM   14  C11 UNL     1      21.662  29.646  15.689  1.00  0.00     0.001 C 
HETATM   15  C12 UNL     1      20.801  30.604  14.890  1.00  0.00     0.011 C 
HETATM   16  C13 UNL     1      22.897  29.206  14.940  1.00  0.00     0.011 C 
ENDBRANCH   9  14
BRANCH   7  17
HETATM   17  C7  UNL     1      23.847  33.118  17.786  1.00  0.00     0.131 A 
HETATM   18  N2  UNL     1      23.124  34.186  18.148  1.00  0.00    -0.306 N 
HETATM   19  S1  UNL     1      24.207  35.250  18.828  1.00  0.00     0.067 SA
ATOM     20  H2  UNL     1      22.119  34.320  18.031  1.00  0.00     0.176 HD
HETATM   21  N3  UNL     1      25.589  34.338  18.656  1.00  0.00    -0.314 N 
HETATM   22  C8  UNL     1      25.183  33.218  18.069  1.00  0.00     0.046 A 
ATOM     23  H3  UNL     1      26.537  34.584  18.939  1.00  0.00     0.175 HD
HETATM   24  C9  UNL     1      26.189  32.122  17.746  1.00  0.00     0.071 C 
ENDBRANCH   7  17
TORSDOF 3
ENDMDL
MODEL 5
REMARK VINA RESULT: -6.201887115      3.391      5.689
REMARK  3 active torsions:
REMARK  status: ('A' for Active; 'I' for Inactive)
REMARK    1  A    between atoms: C3_3  and  O1_4 
REMARK       I    between atoms: N1_8  and  C6_9 
REMARK    2  A    between atoms: C6_9  and  C7_11 
REMARK    3  A    between atoms: C10_19  and  C11_20 
ROOT
HETATM    1  C1  UNL     1      24.594  30.194  15.433  1.00  0.00     0.015 C 
HETATM    2  C2  UNL     1      23.871  30.893  16.081  1.00  0.00    -0.079 C 
HETATM    3  C3  UNL     1      23.009  31.760  16.880  1.00  0.00     0.127 C 
HETATM    4  C4  UNL     1      23.879  32.736  17.634  1.00  0.00     0.071 C 
HETATM    5  C5  UNL     1      24.502  32.011  18.822  1.00  0.00     0.130 C 
HETATM    6  N1  UNL     1      23.463  31.412  19.634  1.00  0.00    -0.341 N 
HETATM    7  C6  UNL     1      23.126  31.931  20.879  1.00  0.00     0.273 C 
HETATM    8  O2  UNL     1      22.224  31.359  21.602  1.00  0.00    -0.266 OA
HETATM    9  C10 UNL     1      22.842  30.315  18.957  1.00  0.00     0.098 C 
HETATM   10  C14 UNL     1      22.132  30.909  17.730  1.00  0.00     0.052 C 
HETATM   11  C15 UNL     1      21.633  29.781  16.810  1.00  0.00     0.016 C 
ENDROOT
BRANCH   3  12
HETATM   12  O1  UNL     1      22.181  32.518  16.048  1.00  0.00    -0.377 OA
ATOM     13  H1  UNL     1      21.343  32.085  15.934  1.00  0.00     0.211 HD
ENDBRANCH   3  12
BRANCH   9  14
HETATM   14  C11 UNL     1      21.979  29.337  19.568  1.00  0.00     0.001 C 
HETATM   15  C12 UNL     1      20.485  29.556  19.433  1.00  0.00     0.011 C 
HETATM   16  C13 UNL     1      22.365  27.879  19.502  1.00  0.00     0.011 C 
ENDBRANCH   9  14
BRANCH   7  17
HETATM   17  C7  UNL     1      23.683  33.130  21.551  1.00  0.00     0.131 A 
HETATM   18  N2  UNL     1      24.666  32.971  22.448  1.00  0.00    -0.306 N 
HETATM   19  S1  UNL     1      25.033  34.502  22.986  1.00  0.00     0.067 SA
ATOM     20  H2  UNL     1      25.098  32.095  22.739  1.00  0.00     0.176 HD
HETATM   21  N3  UNL     1      23.935  35.355  22.070  1.00  0.00    -0.314 N 
HETATM   22  C8  UNL     1      23.299  34.431  21.359  1.00  0.00     0.046 A 
ATOM     23  H3  UNL     1      23.785  36.363  22.057  1.00  0.00     0.175 HD
HETATM   24  C9  UNL     1      22.201  34.843  20.388  1.00  0.00     0.071 C 
ENDBRANCH   7  17
TORSDOF 3
ENDMDL
