MODEL 1
REMARK VINA RESULT: -7.213733691      0.000      0.000
REMARK  7 active torsions:
REMARK  status: ('A' for Active; 'I' for Inactive)
REMARK    1  A    between atoms: O1_2  and  C2_3 
REMARK    2  A    between atoms: C2_3  and  C3_5 
REMARK    3  A    between atoms: C3_5  and  N2_16 
REMARK       I    between atoms: N1_6  and  C4_8 
REMARK    4  A    between atoms: C4_8  and  C5_10 
REMARK    5  A    between atoms: C5_10  and  C6_11 
REMARK    6  A    between atoms: C6_11  and  C7_12 
REMARK    7  A    between atoms: N2_16  and  C11_18 
ROOT
HETATM    1  C3  UNL     1      22.510  30.274  17.037  1.00  0.00     0.187 C 
HETATM    2  N1  UNL     1      22.850  29.113  17.420  1.00  0.00    -0.304 N 
ATOM      3  H1  UNL     1      23.845  28.896  17.481  1.00  0.00     0.171 HD
HETATM    4  C4  UNL     1      21.936  28.121  17.760  1.00  0.00     0.246 C 
HETATM    5  O3  UNL     1      21.492  27.386  16.850  1.00  0.00    -0.268 OA
ENDROOT
BRANCH   1   6
HETATM    6  C2  UNL     1      21.154  30.697  16.910  1.00  0.00     0.327 C 
HETATM    7  O2  UNL     1      20.496  31.120  17.906  1.00  0.00    -0.256 OA
BRANCH   6   8
HETATM    8  O1  UNL     1      20.492  30.668  15.710  1.00  0.00    -0.320 OA
HETATM    9  C1  UNL     1      21.150  30.286  14.519  1.00  0.00     0.213 C 
ENDBRANCH   6   8
ENDBRANCH   1   6
BRANCH   1  10
HETATM   10  N2  UNL     1      23.558  31.188  16.722  1.00  0.00    -0.316 N 
ATOM     11  H2  UNL     1      23.761  31.420  15.749  1.00  0.00     0.169 HD
BRANCH  10  12
HETATM   12  C11 UNL     1      24.261  31.730  17.691  1.00  0.00     0.166 A 
HETATM   13  N3  UNL     1      25.498  31.405  18.084  1.00  0.00    -0.279 N 
HETATM   14  N4  UNL     1      26.012  32.058  19.057  1.00  0.00    -0.296 N 
ATOM     15  H3  UNL     1      26.015  30.659  17.622  1.00  0.00     0.189 HD
HETATM   16  C12 UNL     1      25.331  33.022  19.646  1.00  0.00     0.066 A 
ATOM     17  H4  UNL     1      26.954  31.832  19.378  1.00  0.00     0.187 HD
HETATM   18  C13 UNL     1      25.747  33.905  20.797  1.00  0.00     0.078 C 
HETATM   19  S1  UNL     1      23.868  32.997  18.762  1.00  0.00    -0.038 SA
ENDBRANCH  10  12
ENDBRANCH   1  10
BRANCH   4  20
HETATM   20  C5  UNL     1      21.471  27.893  19.122  1.00  0.00     0.071 C 
BRANCH  20  21
HETATM   21  C6  UNL     1      20.900  26.765  19.440  1.00  0.00    -0.013 C 
BRANCH  21  22
HETATM   22  C7  UNL     1      19.748  26.747  20.357  1.00  0.00    -0.034 C 
HETATM   23  C8  UNL     1      20.037  25.826  21.511  1.00  0.00     0.018 C 
HETATM   24  C9  UNL     1      19.443  28.153  20.825  1.00  0.00     0.018 C 
HETATM   25  C10 UNL     1      18.525  26.232  19.632  1.00  0.00     0.018 C 
ENDBRANCH  21  22
ENDBRANCH  20  21
ENDBRANCH   4  20
TORSDOF 7
ENDMDL
MODEL 2
REMARK VINA RESULT: -7.099320518      0.598      1.297
REMARK  7 active torsions:
REMARK  status: ('A' for Active; 'I' for Inactive)
REMARK    1  A    between atoms: O1_2  and  C2_3 
REMARK    2  A    between atoms: C2_3  and  C3_5 
REMARK    3  A    between atoms: C3_5  and  N2_16 
REMARK       I    between atoms: N1_6  and  C4_8 
REMARK    4  A    between atoms: C4_8  and  C5_10 
REMARK    5  A    between atoms: C5_10  and  C6_11 
REMARK    6  A    between atoms: C6_11  and  C7_12 
REMARK    7  A    between atoms: N2_16  and  C11_18 
ROOT
HETATM    1  C3  UNL     1      22.405  30.369  17.135  1.00  0.00     0.187 C 
HETATM    2  N1  UNL     1      22.838  29.234  17.504  1.00  0.00    -0.304 N 
ATOM      3  H1  UNL     1      23.848  29.087  17.532  1.00  0.00     0.171 HD
HETATM    4  C4  UNL     1      22.007  28.181  17.872  1.00  0.00     0.246 C 
HETATM    5  O3  UNL     1      21.585  27.418  16.976  1.00  0.00    -0.268 OA
ENDROOT
BRANCH   1   6
HETATM    6  C2  UNL     1      21.020  30.696  17.054  1.00  0.00     0.327 C 
HETATM    7  O2  UNL     1      20.434  30.828  15.939  1.00  0.00    -0.256 OA
BRANCH   6   8
HETATM    8  O1  UNL     1      20.250  30.885  18.172  1.00  0.00    -0.320 OA
HETATM    9  C1  UNL     1      20.727  31.633  19.273  1.00  0.00     0.213 C 
ENDBRANCH   6   8
ENDBRANCH   1   6
BRANCH   1  10
HETATM   10  N2  UNL     1      23.376  31.353  16.788  1.00  0.00    -0.316 N 
ATOM     11  H2  UNL     1      23.462  31.671  15.822  1.00  0.00     0.169 HD
BRANCH  10  12
HETATM   12  C11 UNL     1      24.161  31.850  17.718  1.00  0.00     0.166 A 
HETATM   13  N3  UNL     1      25.318  31.351  18.164  1.00  0.00    -0.279 N 
HETATM   14  N4  UNL     1      25.937  31.990  19.084  1.00  0.00    -0.296 N 
ATOM     15  H3  UNL     1      25.698  30.486  17.782  1.00  0.00     0.189 HD
HETATM   16  C12 UNL     1      25.434  33.109  19.571  1.00  0.00     0.066 A 
ATOM     17  H4  UNL     1      26.822  31.633  19.444  1.00  0.00     0.187 HD
HETATM   18  C13 UNL     1      25.995  34.007  20.646  1.00  0.00     0.078 C 
HETATM   19  S1  UNL     1      23.994  33.260  18.663  1.00  0.00    -0.038 SA
ENDBRANCH  10  12
ENDBRANCH   1  10
BRANCH   4  20
HETATM   20  C5  UNL     1      21.605  27.922  19.248  1.00  0.00     0.071 C 
BRANCH  20  21
HETATM   21  C6  UNL     1      21.034  26.793  19.563  1.00  0.00    -0.013 C 
BRANCH  21  22
HETATM   22  C7  UNL     1      19.811  26.780  20.383  1.00  0.00    -0.034 C 
HETATM   23  C8  UNL     1      20.025  25.908  21.591  1.00  0.00     0.018 C 
HETATM   24  C9  UNL     1      19.439  28.193  20.771  1.00  0.00     0.018 C 
HETATM   25  C10 UNL     1      18.664  26.208  19.581  1.00  0.00     0.018 C 
ENDBRANCH  21  22
ENDBRANCH  20  21
ENDBRANCH   4  20
TORSDOF 7
ENDMDL
MODEL 3
REMARK VINA RESULT: -6.965718909      2.541      5.556
REMARK  7 active torsions:
REMARK  status: ('A' for Active; 'I' for Inactive)
REMARK    1  A    between atoms: O1_2  and  C2_3 
REMARK    2  A    between atoms: C2_3  and  C3_5 
REMARK    3  A    between atoms: C3_5  and  N2_16 
REMARK       I    between atoms: N1_6  and  C4_8 
REMARK    4  A    between atoms: C4_8  and  C5_10 
REMARK    5  A    between atoms: C5_10  and  C6_11 
REMARK    6  A    between atoms: C6_11  and  C7_12 
REMARK    7  A    between atoms: N2_16  and  C11_18 
ROOT
HETATM    1  C3  UNL     1      22.922  31.069  18.407  1.00  0.00     0.187 C 
HETATM    2  N1  UNL     1      24.009  30.908  17.771  1.00  0.00    -0.304 N 
ATOM      3  H1  UNL     1      24.709  30.276  18.161  1.00  0.00     0.171 HD
HETATM    4  C4  UNL     1      24.294  31.550  16.571  1.00  0.00     0.246 C 
HETATM    5  O3  UNL     1      24.814  32.687  16.615  1.00  0.00    -0.268 OA
ENDROOT
BRANCH   1   6
HETATM    6  C2  UNL     1      21.870  31.924  17.967  1.00  0.00     0.327 C 
HETATM    7  O2  UNL     1      20.923  31.492  17.245  1.00  0.00    -0.256 OA
BRANCH   6   8
HETATM    8  O1  UNL     1      21.826  33.253  18.299  1.00  0.00    -0.320 OA
HETATM    9  C1  UNL     1      21.684  34.252  17.310  1.00  0.00     0.213 C 
ENDBRANCH   6   8
ENDBRANCH   1   6
BRANCH   1  10
HETATM   10  N2  UNL     1      22.769  30.344  19.626  1.00  0.00    -0.316 N 
ATOM     11  H2  UNL     1      23.077  30.753  20.508  1.00  0.00     0.169 HD
BRANCH  10  12
HETATM   12  C11 UNL     1      22.229  29.146  19.606  1.00  0.00     0.166 A 
HETATM   13  N3  UNL     1      22.851  27.969  19.475  1.00  0.00    -0.279 N 
HETATM   14  N4  UNL     1      22.140  26.906  19.479  1.00  0.00    -0.296 N 
ATOM     15  H3  UNL     1      23.865  27.921  19.374  1.00  0.00     0.189 HD
HETATM   16  C12 UNL     1      20.829  26.982  19.610  1.00  0.00     0.066 A 
ATOM     17  H4  UNL     1      22.588  25.995  19.381  1.00  0.00     0.187 HD
HETATM   18  C13 UNL     1      19.816  25.865  19.640  1.00  0.00     0.078 C 
HETATM   19  S1  UNL     1      20.595  28.671  19.734  1.00  0.00    -0.038 SA
ENDBRANCH  10  12
ENDBRANCH   1  10
BRANCH   4  20
HETATM   20  C5  UNL     1      24.021  30.964  15.265  1.00  0.00     0.071 C 
BRANCH  20  21
HETATM   21  C6  UNL     1      23.906  29.672  15.138  1.00  0.00    -0.013 C 
BRANCH  21  22
HETATM   22  C7  UNL     1      22.620  29.075  14.739  1.00  0.00    -0.034 C 
HETATM   23  C8  UNL     1      21.954  28.465  15.943  1.00  0.00     0.018 C 
HETATM   24  C9  UNL     1      21.748  30.124  14.087  1.00  0.00     0.018 C 
HETATM   25  C10 UNL     1      22.858  27.981  13.723  1.00  0.00     0.018 C 
ENDBRANCH  21  22
ENDBRANCH  20  21
ENDBRANCH   4  20
TORSDOF 7
ENDMDL
MODEL 4
REMARK VINA RESULT: -6.868720781      1.413      1.815
REMARK  7 active torsions:
REMARK  status: ('A' for Active; 'I' for Inactive)
REMARK    1  A    between atoms: O1_2  and  C2_3 
REMARK    2  A    between atoms: C2_3  and  C3_5 
REMARK    3  A    between atoms: C3_5  and  N2_16 
REMARK       I    between atoms: N1_6  and  C4_8 
REMARK    4  A    between atoms: C4_8  and  C5_10 
REMARK    5  A    between atoms: C5_10  and  C6_11 
REMARK    6  A    between atoms: C6_11  and  C7_12 
REMARK    7  A    between atoms: N2_16  and  C11_18 
ROOT
HETATM    1  C3  UNL     1      22.038  30.183  18.483  1.00  0.00     0.187 C 
HETATM    2  N1  UNL     1      22.533  29.020  18.361  1.00  0.00    -0.304 N 
ATOM      3  H1  UNL     1      23.478  28.857  18.710  1.00  0.00     0.171 HD
HETATM    4  C4  UNL     1      21.853  27.957  17.776  1.00  0.00     0.246 C 
HETATM    5  O3  UNL     1      21.929  27.816  16.535  1.00  0.00    -0.268 OA
ENDROOT
BRANCH   1   6
HETATM    6  C2  UNL     1      20.731  30.535  18.035  1.00  0.00     0.327 C 
HETATM    7  O2  UNL     1      19.769  30.680  18.846  1.00  0.00    -0.256 OA
BRANCH   6   8
HETATM    8  O1  UNL     1      20.446  30.733  16.709  1.00  0.00    -0.320 OA
HETATM    9  C1  UNL     1      21.431  31.201  15.809  1.00  0.00     0.213 C 
ENDBRANCH   6   8
ENDBRANCH   1   6
BRANCH   1  10
HETATM   10  N2  UNL     1      22.853  31.174  19.105  1.00  0.00    -0.316 N 
ATOM     11  H2  UNL     1      22.595  31.551  20.017  1.00  0.00     0.169 HD
BRANCH  10  12
HETATM   12  C11 UNL     1      23.939  31.598  18.498  1.00  0.00     0.166 A 
HETATM   13  N3  UNL     1      25.163  31.062  18.542  1.00  0.00    -0.279 N 
HETATM   14  N4  UNL     1      26.095  31.630  17.875  1.00  0.00    -0.296 N 
ATOM     15  H3  UNL     1      25.349  30.225  19.093  1.00  0.00     0.189 HD
HETATM   16  C12 UNL     1      25.841  32.714  17.166  1.00  0.00     0.066 A 
ATOM     17  H4  UNL     1      27.039  31.244  17.890  1.00  0.00     0.187 HD
HETATM   18  C13 UNL     1      26.784  33.530  16.317  1.00  0.00     0.078 C 
HETATM   19  S1  UNL     1      24.174  32.938  17.469  1.00  0.00    -0.038 SA
ENDBRANCH  10  12
ENDBRANCH   1  10
BRANCH   4  20
HETATM   20  C5  UNL     1      21.059  27.000  18.534  1.00  0.00     0.071 C 
BRANCH  20  21
HETATM   21  C6  UNL     1      21.023  27.063  19.836  1.00  0.00    -0.013 C 
BRANCH  21  22
HETATM   22  C7  UNL     1      19.755  26.859  20.557  1.00  0.00    -0.034 C 
HETATM   23  C8  UNL     1      18.705  26.367  19.598  1.00  0.00     0.018 C 
HETATM   24  C9  UNL     1      19.965  25.894  21.702  1.00  0.00     0.018 C 
HETATM   25  C10 UNL     1      19.285  28.171  21.144  1.00  0.00     0.018 C 
ENDBRANCH  21  22
ENDBRANCH  20  21
ENDBRANCH   4  20
TORSDOF 7
ENDMDL
MODEL 5
REMARK VINA RESULT: -6.801238927      1.768      2.508
REMARK  7 active torsions:
REMARK  status: ('A' for Active; 'I' for Inactive)
REMARK    1  A    between atoms: O1_2  and  C2_3 
REMARK    2  A    between atoms: C2_3  and  C3_5 
REMARK    3  A    between atoms: C3_5  and  N2_16 
REMARK       I    between atoms: N1_6  and  C4_8 
REMARK    4  A    between atoms: C4_8  and  C5_10 
REMARK    5  A    between atoms: C5_10  and  C6_11 
REMARK    6  A    between atoms: C6_11  and  C7_12 
REMARK    7  A    between atoms: N2_16  and  C11_18 
ROOT
HETATM    1  C3  UNL     1      22.704  29.937  16.924  1.00  0.00     0.187 C 
HETATM    2  N1  UNL     1      22.656  29.214  17.966  1.00  0.00    -0.304 N 
ATOM      3  H1  UNL     1      23.490  29.151  18.550  1.00  0.00     0.171 HD
HETATM    4  C4  UNL     1      21.524  28.505  18.353  1.00  0.00     0.246 C 
HETATM    5  O3  UNL     1      21.357  27.356  17.888  1.00  0.00    -0.268 OA
ENDROOT
BRANCH   1   6
HETATM    6  C2  UNL     1      21.607  30.105  16.029  1.00  0.00     0.327 C 
HETATM    7  O2  UNL     1      20.833  31.104  16.109  1.00  0.00    -0.256 OA
BRANCH   6   8
HETATM    8  O1  UNL     1      21.331  29.198  15.038  1.00  0.00    -0.320 OA
HETATM    9  C1  UNL     1      22.353  28.415  14.456  1.00  0.00     0.213 C 
ENDBRANCH   6   8
ENDBRANCH   1   6
BRANCH   1  10
HETATM   10  N2  UNL     1      23.933  30.607  16.654  1.00  0.00    -0.316 N 
ATOM     11  H2  UNL     1      24.443  30.416  15.791  1.00  0.00     0.169 HD
BRANCH  10  12
HETATM   12  C11 UNL     1      24.407  31.473  17.522  1.00  0.00     0.166 A 
HETATM   13  N3  UNL     1      25.440  31.314  18.356  1.00  0.00    -0.279 N 
HETATM   14  N4  UNL     1      25.746  32.284  19.131  1.00  0.00    -0.296 N 
ATOM     15  H3  UNL     1      25.970  30.443  18.373  1.00  0.00     0.189 HD
HETATM   16  C12 UNL     1      25.051  33.406  19.099  1.00  0.00     0.066 A 
ATOM     17  H4  UNL     1      26.530  32.191  19.777  1.00  0.00     0.187 HD
HETATM   18  C13 UNL     1      25.241  34.658  19.918  1.00  0.00     0.078 C 
HETATM   19  S1  UNL     1      23.893  33.057  17.891  1.00  0.00    -0.038 SA
ENDBRANCH  10  12
ENDBRANCH   1  10
BRANCH   4  20
HETATM   20  C5  UNL     1      20.525  29.031  19.273  1.00  0.00     0.071 C 
BRANCH  20  21
HETATM   21  C6  UNL     1      20.882  29.472  20.447  1.00  0.00    -0.013 C 
BRANCH  21  22
HETATM   22  C7  UNL     1      20.901  30.917  20.726  1.00  0.00    -0.034 C 
HETATM   23  C8  UNL     1      22.322  31.377  20.906  1.00  0.00     0.018 C 
HETATM   24  C9  UNL     1      20.207  31.664  19.608  1.00  0.00     0.018 C 
HETATM   25  C10 UNL     1      20.144  31.201  22.004  1.00  0.00     0.018 C 
ENDBRANCH  21  22
ENDBRANCH  20  21
ENDBRANCH   4  20
TORSDOF 7
ENDMDL
