MODEL 1
REMARK VINA RESULT: -7.376700726      0.000      0.000
REMARK  2 active torsions:
REMARK  status: ('A' for Active; 'I' for Inactive)
REMARK    1  A    between atoms: O1_2  and  C2_3 
REMARK    2  A    between atoms: C5_6  and  O2_7 
ROOT
HETATM    1  C2  UNL     1      21.977  29.169  18.151  1.00  0.00     0.156 C 
HETATM    2  C3  UNL     1      21.258  30.418  17.621  1.00  0.00     0.154 C 
HETATM    3  C4  UNL     1      21.948  30.815  16.358  1.00  0.00     0.066 C 
HETATM    4  C5  UNL     1      22.373  32.192  16.166  1.00  0.00     0.121 C 
HETATM    5  C6  UNL     1      22.909  33.084  17.147  1.00  0.00     0.039 C 
HETATM    6  C7  UNL     1      24.081  32.946  17.964  1.00  0.00     0.021 C 
HETATM    7  C8  UNL     1      25.462  33.071  17.298  1.00  0.00    -0.010 C 
HETATM    8  C9  UNL     1      25.591  33.763  16.034  1.00  0.00     0.010 C 
HETATM    9  C10 UNL     1      25.494  31.560  17.330  1.00  0.00     0.037 C 
HETATM   10  C11 UNL     1      24.566  31.723  18.551  1.00  0.00     0.126 C 
HETATM   11  O3  UNL     1      23.857  30.649  18.774  1.00  0.00    -0.380 OA
HETATM   12  C12 UNL     1      23.187  30.407  19.908  1.00  0.00     0.132 C 
HETATM   13  C13 UNL     1      22.358  31.527  20.456  1.00  0.00     0.070 C 
HETATM   14  C14 UNL     1      20.990  31.179  19.834  1.00  0.00     0.064 C 
HETATM   15  C15 UNL     1      19.900  32.004  20.464  1.00  0.00     0.046 C 
HETATM   16  O4  UNL     1      21.066  31.379  18.528  1.00  0.00    -0.372 OA
HETATM   17  C16 UNL     1      20.964  29.737  20.305  1.00  0.00     0.025 C 
HETATM   18  C17 UNL     1      19.724  29.010  20.066  1.00  0.00     0.014 C 
HETATM   19  C18 UNL     1      22.207  29.245  19.640  1.00  0.00     0.053 C 
ENDROOT
BRANCH   1  20
HETATM   20  O1  UNL     1      21.356  28.002  17.827  1.00  0.00    -0.388 OA
HETATM   21  C1  UNL     1      21.947  26.858  18.290  1.00  0.00     0.202 C 
ENDBRANCH   1  20
BRANCH   4  22
HETATM   22  O2  UNL     1      21.245  32.884  15.610  1.00  0.00    -0.395 OA
ATOM     23  H2  UNL     1      21.357  33.799  15.839  1.00  0.00     0.210 HD
ENDBRANCH   4  22
TORSDOF 2
ENDMDL
MODEL 2
REMARK VINA RESULT: -6.874386796      1.690      3.981
REMARK  2 active torsions:
REMARK  status: ('A' for Active; 'I' for Inactive)
REMARK    1  A    between atoms: O1_2  and  C2_3 
REMARK    2  A    between atoms: C5_6  and  O2_7 
ROOT
HETATM    1  C2  UNL     1      21.435  32.585  19.115  1.00  0.00     0.156 C 
HETATM    2  C3  UNL     1      22.906  32.535  18.680  1.00  0.00     0.154 C 
HETATM    3  C4  UNL     1      22.956  32.979  17.256  1.00  0.00     0.066 C 
HETATM    4  C5  UNL     1      23.667  32.182  16.271  1.00  0.00     0.121 C 
HETATM    5  C6  UNL     1      23.737  30.755  16.190  1.00  0.00     0.039 C 
HETATM    6  C7  UNL     1      22.679  29.796  16.049  1.00  0.00     0.021 C 
HETATM    7  C8  UNL     1      21.948  29.697  14.699  1.00  0.00    -0.010 C 
HETATM    8  C9  UNL     1      22.590  30.186  13.497  1.00  0.00     0.010 C 
HETATM    9  C10 UNL     1      20.860  30.519  15.352  1.00  0.00     0.037 C 
HETATM   10  C11 UNL     1      21.375  29.876  16.656  1.00  0.00     0.126 C 
HETATM   11  O3  UNL     1      21.064  30.586  17.708  1.00  0.00    -0.380 OA
HETATM   12  C12 UNL     1      21.136  30.140  18.969  1.00  0.00     0.132 C 
HETATM   13  C13 UNL     1      22.384  29.413  19.360  1.00  0.00     0.070 C 
HETATM   14  C14 UNL     1      23.198  30.579  19.959  1.00  0.00     0.064 C 
HETATM   15  C15 UNL     1      24.403  30.056  20.694  1.00  0.00     0.046 C 
HETATM   16  O4  UNL     1      23.537  31.396  18.976  1.00  0.00    -0.372 OA
HETATM   17  C16 UNL     1      22.112  31.059  20.904  1.00  0.00     0.025 C 
HETATM   18  C17 UNL     1      22.499  32.110  21.837  1.00  0.00     0.014 C 
HETATM   19  C18 UNL     1      21.043  31.362  19.908  1.00  0.00     0.053 C 
ENDROOT
BRANCH   1  20
HETATM   20  O1  UNL     1      21.103  33.715  19.795  1.00  0.00    -0.388 OA
HETATM   21  C1  UNL     1      19.767  33.927  19.995  1.00  0.00     0.202 C 
ENDBRANCH   1  20
BRANCH   4  22
HETATM   22  O2  UNL     1      25.034  32.620  16.315  1.00  0.00    -0.395 OA
ATOM     23  H2  UNL     1      25.549  31.854  16.544  1.00  0.00     0.210 HD
ENDBRANCH   4  22
TORSDOF 2
ENDMDL
MODEL 3
REMARK VINA RESULT: -6.706197094      1.312      5.044
REMARK  2 active torsions:
REMARK  status: ('A' for Active; 'I' for Inactive)
REMARK    1  A    between atoms: O1_2  and  C2_3 
REMARK    2  A    between atoms: C5_6  and  O2_7 
ROOT
HETATM    1  C2  UNL     1      22.330  31.095  16.274  1.00  0.00     0.156 C 
HETATM    2  C3  UNL     1      23.149  30.150  17.166  1.00  0.00     0.154 C 
HETATM    3  C4  UNL     1      22.254  29.013  17.533  1.00  0.00     0.066 C 
HETATM    4  C5  UNL     1      22.126  28.611  18.924  1.00  0.00     0.121 C 
HETATM    5  C6  UNL     1      22.103  29.457  20.078  1.00  0.00     0.039 C 
HETATM    6  C7  UNL     1      21.199  30.521  20.412  1.00  0.00     0.021 C 
HETATM    7  C8  UNL     1      19.758  30.165  20.816  1.00  0.00    -0.010 C 
HETATM    8  C9  UNL     1      19.456  28.836  21.303  1.00  0.00     0.010 C 
HETATM    9  C10 UNL     1      19.384  30.545  19.401  1.00  0.00     0.037 C 
HETATM   10  C11 UNL     1      20.621  31.463  19.488  1.00  0.00     0.126 C 
HETATM   11  O3  UNL     1      21.092  31.763  18.308  1.00  0.00    -0.380 OA
HETATM   12  C12 UNL     1      21.970  32.746  18.071  1.00  0.00     0.132 C 
HETATM   13  C13 UNL     1      23.155  32.829  18.982  1.00  0.00     0.070 C 
HETATM   14  C14 UNL     1      24.180  32.016  18.165  1.00  0.00     0.064 C 
HETATM   15  C15 UNL     1      25.563  32.186  18.736  1.00  0.00     0.046 C 
HETATM   16  O4  UNL     1      23.800  30.749  18.165  1.00  0.00    -0.372 OA
HETATM   17  C16 UNL     1      23.995  32.786  16.870  1.00  0.00     0.025 C 
HETATM   18  C17 UNL     1      24.918  32.452  15.792  1.00  0.00     0.014 C 
HETATM   19  C18 UNL     1      22.539  32.541  16.651  1.00  0.00     0.053 C 
ENDROOT
BRANCH   1  20
HETATM   20  O1  UNL     1      22.548  30.917  14.943  1.00  0.00    -0.388 OA
HETATM   21  C1  UNL     1      21.518  30.361  14.234  1.00  0.00     0.202 C 
ENDBRANCH   1  20
BRANCH   4  22
HETATM   22  O2  UNL     1      23.190  27.678  19.168  1.00  0.00    -0.395 OA
ATOM     23  H2  UNL     1      23.943  28.197  19.426  1.00  0.00     0.210 HD
ENDBRANCH   4  22
TORSDOF 2
ENDMDL
MODEL 4
REMARK VINA RESULT: -6.676613691      0.977      1.035
REMARK  2 active torsions:
REMARK  status: ('A' for Active; 'I' for Inactive)
REMARK    1  A    between atoms: O1_2  and  C2_3 
REMARK    2  A    between atoms: C5_6  and  O2_7 
ROOT
HETATM    1  C2  UNL     1      22.093  29.758  17.638  1.00  0.00     0.156 C 
HETATM    2  C3  UNL     1      21.167  30.966  17.432  1.00  0.00     0.154 C 
HETATM    3  C4  UNL     1      21.672  31.703  16.236  1.00  0.00     0.066 C 
HETATM    4  C5  UNL     1      21.891  33.137  16.307  1.00  0.00     0.121 C 
HETATM    5  C6  UNL     1      22.397  33.888  17.415  1.00  0.00     0.039 C 
HETATM    6  C7  UNL     1      23.651  33.768  18.104  1.00  0.00     0.021 C 
HETATM    7  C8  UNL     1      24.932  34.228  17.387  1.00  0.00    -0.010 C 
HETATM    8  C9  UNL     1      24.844  35.167  16.290  1.00  0.00     0.010 C 
HETATM    9  C10 UNL     1      25.166  32.762  17.099  1.00  0.00     0.037 C 
HETATM   10  C11 UNL     1      24.347  32.540  18.388  1.00  0.00     0.126 C 
HETATM   11  O3  UNL     1      23.812  31.349  18.429  1.00  0.00    -0.380 OA
HETATM   12  C12 UNL     1      23.293  30.791  19.530  1.00  0.00     0.132 C 
HETATM   13  C13 UNL     1      22.380  31.644  20.355  1.00  0.00     0.070 C 
HETATM   14  C14 UNL     1      21.017  31.226  19.767  1.00  0.00     0.064 C 
HETATM   15  C15 UNL     1      19.893  31.738  20.629  1.00  0.00     0.046 C 
HETATM   16  O4  UNL     1      20.938  31.688  18.531  1.00  0.00    -0.372 OA
HETATM   17  C16 UNL     1      21.228  29.732  19.927  1.00  0.00     0.025 C 
HETATM   18  C17 UNL     1      20.077  28.889  19.626  1.00  0.00     0.014 C 
HETATM   19  C18 UNL     1      22.454  29.571  19.091  1.00  0.00     0.053 C 
ENDROOT
BRANCH   1  20
HETATM   20  O1  UNL     1      21.604  28.599  17.120  1.00  0.00    -0.388 OA
HETATM   21  C1  UNL     1      22.061  28.254  15.878  1.00  0.00     0.202 C 
ENDBRANCH   1  20
BRANCH   4  22
HETATM   22  O2  UNL     1      20.633  33.749  15.987  1.00  0.00    -0.395 OA
ATOM     23  H2  UNL     1      20.467  34.387  16.671  1.00  0.00     0.210 HD
ENDBRANCH   4  22
TORSDOF 2
ENDMDL
MODEL 5
REMARK VINA RESULT: -6.542979512      1.807      4.063
REMARK  2 active torsions:
REMARK  status: ('A' for Active; 'I' for Inactive)
REMARK    1  A    between atoms: O1_2  and  C2_3 
REMARK    2  A    between atoms: C5_6  and  O2_7 
ROOT
HETATM    1  C2  UNL     1      21.289  29.613  18.296  1.00  0.00     0.156 C 
HETATM    2  C3  UNL     1      22.796  29.613  18.591  1.00  0.00     0.154 C 
HETATM    3  C4  UNL     1      22.960  30.001  20.023  1.00  0.00     0.066 C 
HETATM    4  C5  UNL     1      23.894  31.052  20.388  1.00  0.00     0.121 C 
HETATM    5  C6  UNL     1      24.173  32.258  19.670  1.00  0.00     0.039 C 
HETATM    6  C7  UNL     1      23.287  33.321  19.290  1.00  0.00     0.021 C 
HETATM    7  C8  UNL     1      22.753  34.261  20.384  1.00  0.00    -0.010 C 
HETATM    8  C9  UNL     1      23.464  34.383  21.638  1.00  0.00     0.010 C 
HETATM    9  C10 UNL     1      21.486  33.438  20.320  1.00  0.00     0.037 C 
HETATM   10  C11 UNL     1      21.920  33.172  18.863  1.00  0.00     0.126 C 
HETATM   11  O3  UNL     1      21.383  32.083  18.384  1.00  0.00    -0.380 OA
HETATM   12  C12 UNL     1      21.358  31.761  17.084  1.00  0.00     0.132 C 
HETATM   13  C13 UNL     1      22.637  31.917  16.323  1.00  0.00     0.070 C 
HETATM   14  C14 UNL     1      23.197  30.485  16.441  1.00  0.00     0.064 C 
HETATM   15  C15 UNL     1      24.363  30.297  15.506  1.00  0.00     0.046 C 
HETATM   16  O4  UNL     1      23.539  30.275  17.701  1.00  0.00    -0.372 OA
HETATM   17  C16 UNL     1      21.946  29.785  15.945  1.00  0.00     0.025 C 
HETATM   18  C17 UNL     1      22.061  28.348  15.732  1.00  0.00     0.014 C 
HETATM   19  C18 UNL     1      20.977  30.269  16.973  1.00  0.00     0.053 C 
ENDROOT
BRANCH   1  20
HETATM   20  O1  UNL     1      20.719  28.379  18.358  1.00  0.00    -0.388 OA
HETATM   21  C1  UNL     1      20.152  28.038  19.555  1.00  0.00     0.202 C 
ENDBRANCH   1  20
BRANCH   4  22
HETATM   22  O2  UNL     1      25.169  30.413  20.554  1.00  0.00    -0.395 OA
ATOM     23  H2  UNL     1      25.655  30.582  19.755  1.00  0.00     0.210 HD
ENDBRANCH   4  22
TORSDOF 2
ENDMDL
