MODEL 1
REMARK VINA RESULT: -7.341927851      0.000      0.000
REMARK  3 active torsions:
REMARK  status: ('A' for Active; 'I' for Inactive)
REMARK    1  A    between atoms: C4_4  and  C5_5 
REMARK    2  A    between atoms: C6_6  and  C7_7 
REMARK    3  A    between atoms: C17_21  and  O5_22 
ROOT
HETATM    1  C7  UNL     1      21.239  30.715  18.115  1.00  0.00     0.128 C 
HETATM    2  C8  UNL     1      20.262  30.300  19.135  1.00  0.00     0.268 C 
HETATM    3  O1  UNL     1      20.125  29.065  19.252  1.00  0.00    -0.264 OA
HETATM    4  O2  UNL     1      19.539  31.160  19.917  1.00  0.00    -0.315 OA
HETATM    5  C9  UNL     1      19.872  32.273  20.643  1.00  0.00     0.137 C 
HETATM    6  C10 UNL     1      18.741  33.301  20.439  1.00  0.00     0.040 C 
HETATM    7  C11 UNL     1      21.167  32.934  20.428  1.00  0.00     0.074 C 
HETATM    8  C12 UNL     1      22.153  32.463  21.496  1.00  0.00     0.137 C 
HETATM    9  C13 UNL     1      23.092  33.570  21.877  1.00  0.00     0.040 C 
HETATM   10  O3  UNL     1      22.820  31.276  21.131  1.00  0.00    -0.315 OA
HETATM   11  C14 UNL     1      23.031  30.896  19.818  1.00  0.00     0.271 C 
HETATM   12  O4  UNL     1      23.827  29.954  19.602  1.00  0.00    -0.264 OA
HETATM   13  C15 UNL     1      22.363  31.548  18.694  1.00  0.00     0.086 C 
HETATM   14  C16 UNL     1      23.334  31.812  17.552  1.00  0.00     0.030 C 
HETATM   15  C17 UNL     1      21.749  32.878  19.066  1.00  0.00     0.146 C 
ENDROOT
BRANCH   1  16
HETATM   16  C6  UNL     1      21.760  29.555  17.346  1.00  0.00    -0.011 C 
HETATM   17  C5  UNL     1      21.577  29.457  16.060  1.00  0.00    -0.003 C 
BRANCH  17  18
HETATM   18  C4  UNL     1      22.060  28.352  15.249  1.00  0.00     0.002 C 
HETATM   19  C2  UNL     1      22.584  28.516  14.059  1.00  0.00    -0.088 C 
HETATM   20  C1  UNL     1      22.703  29.904  13.485  1.00  0.00     0.043 C 
HETATM   21  C3  UNL     1      23.066  27.393  13.252  1.00  0.00     0.043 C 
ENDBRANCH  17  18
ENDBRANCH   1  16
BRANCH  15  22
HETATM   22  O5  UNL     1      20.827  33.296  18.136  1.00  0.00    -0.394 OA
ATOM     23  H5  UNL     1      21.267  33.659  17.376  1.00  0.00     0.210 HD
ENDBRANCH  15  22
TORSDOF 3
ENDMDL
MODEL 2
REMARK VINA RESULT: -7.220332914      1.897      6.088
REMARK  3 active torsions:
REMARK  status: ('A' for Active; 'I' for Inactive)
REMARK    1  A    between atoms: C4_4  and  C5_5 
REMARK    2  A    between atoms: C6_6  and  C7_7 
REMARK    3  A    between atoms: C17_21  and  O5_22 
ROOT
HETATM    1  C7  UNL     1      21.969  32.141  18.711  1.00  0.00     0.128 C 
HETATM    2  C8  UNL     1      20.841  31.242  19.001  1.00  0.00     0.268 C 
HETATM    3  O1  UNL     1      19.760  31.822  19.232  1.00  0.00    -0.264 OA
HETATM    4  O2  UNL     1      20.919  29.876  19.029  1.00  0.00    -0.315 OA
HETATM    5  C9  UNL     1      21.479  28.951  18.188  1.00  0.00     0.137 C 
HETATM    6  C10 UNL     1      22.145  27.879  19.073  1.00  0.00     0.040 C 
HETATM    7  C11 UNL     1      22.431  29.378  17.152  1.00  0.00     0.074 C 
HETATM    8  C12 UNL     1      21.693  29.516  15.821  1.00  0.00     0.137 C 
HETATM    9  C13 UNL     1      22.584  29.126  14.677  1.00  0.00     0.040 C 
HETATM   10  O3  UNL     1      21.108  30.788  15.655  1.00  0.00    -0.315 OA
HETATM   11  C14 UNL     1      21.587  31.929  16.271  1.00  0.00     0.271 C 
HETATM   12  O4  UNL     1      21.145  33.035  15.881  1.00  0.00    -0.264 OA
HETATM   13  C15 UNL     1      22.575  31.887  17.346  1.00  0.00     0.086 C 
HETATM   14  C16 UNL     1      23.650  32.947  17.151  1.00  0.00     0.030 C 
HETATM   15  C17 UNL     1      23.282  30.555  17.444  1.00  0.00     0.146 C 
ENDROOT
BRANCH   1  16
HETATM   16  C6  UNL     1      21.597  33.568  18.886  1.00  0.00    -0.011 C 
HETATM   17  C5  UNL     1      21.726  34.167  20.036  1.00  0.00    -0.003 C 
BRANCH  17  18
HETATM   18  C4  UNL     1      21.381  35.559  20.275  1.00  0.00     0.002 C 
HETATM   19  C2  UNL     1      20.146  35.974  20.412  1.00  0.00    -0.088 C 
HETATM   20  C1  UNL     1      19.015  34.982  20.321  1.00  0.00     0.043 C 
HETATM   21  C3  UNL     1      19.812  37.380  20.652  1.00  0.00     0.043 C 
ENDBRANCH  17  18
ENDBRANCH   1  16
BRANCH  15  22
HETATM   22  O5  UNL     1      23.916  30.398  18.653  1.00  0.00    -0.394 OA
ATOM     23  H5  UNL     1      24.591  29.732  18.587  1.00  0.00     0.210 HD
ENDBRANCH  15  22
TORSDOF 3
ENDMDL
MODEL 3
REMARK VINA RESULT: -7.147797768      1.797      6.382
REMARK  3 active torsions:
REMARK  status: ('A' for Active; 'I' for Inactive)
REMARK    1  A    between atoms: C4_4  and  C5_5 
REMARK    2  A    between atoms: C6_6  and  C7_7 
REMARK    3  A    between atoms: C17_21  and  O5_22 
ROOT
HETATM    1  C7  UNL     1      22.383  31.291  20.646  1.00  0.00     0.128 C 
HETATM    2  C8  UNL     1      20.954  30.978  20.803  1.00  0.00     0.268 C 
HETATM    3  O1  UNL     1      20.272  31.898  21.299  1.00  0.00    -0.264 OA
HETATM    4  O2  UNL     1      20.372  29.790  20.450  1.00  0.00    -0.315 OA
HETATM    5  C9  UNL     1      20.455  29.002  19.332  1.00  0.00     0.137 C 
HETATM    6  C10 UNL     1      20.500  27.538  19.814  1.00  0.00     0.040 C 
HETATM    7  C11 UNL     1      21.530  29.219  18.353  1.00  0.00     0.074 C 
HETATM    8  C12 UNL     1      20.993  30.065  17.200  1.00  0.00     0.137 C 
HETATM    9  C13 UNL     1      21.630  29.658  15.903  1.00  0.00     0.040 C 
HETATM   10  O3  UNL     1      21.089  31.448  17.451  1.00  0.00    -0.315 OA
HETATM   11  C14 UNL     1      22.031  32.002  18.298  1.00  0.00     0.271 C 
HETATM   12  O4  UNL     1      22.182  33.245  18.273  1.00  0.00    -0.264 OA
HETATM   13  C15 UNL     1      22.843  31.196  19.206  1.00  0.00     0.086 C 
HETATM   14  C16 UNL     1      24.298  31.640  19.190  1.00  0.00     0.030 C 
HETATM   15  C17 UNL     1      22.828  29.724  18.860  1.00  0.00     0.146 C 
ENDROOT
BRANCH   1  16
HETATM   16  C6  UNL     1      22.729  32.608  21.242  1.00  0.00    -0.011 C 
HETATM   17  C5  UNL     1      23.479  32.696  22.304  1.00  0.00    -0.003 C 
BRANCH  17  18
HETATM   18  C4  UNL     1      23.854  33.950  22.937  1.00  0.00     0.002 C 
HETATM   19  C2  UNL     1      24.507  34.008  24.072  1.00  0.00    -0.088 C 
HETATM   20  C1  UNL     1      24.897  32.731  24.770  1.00  0.00     0.043 C 
HETATM   21  C3  UNL     1      24.878  35.278  24.699  1.00  0.00     0.043 C 
ENDBRANCH  17  18
ENDBRANCH   1  16
BRANCH  15  22
HETATM   22  O5  UNL     1      23.269  28.947  19.904  1.00  0.00    -0.394 OA
ATOM     23  H5  UNL     1      24.196  29.089  20.052  1.00  0.00     0.210 HD
ENDBRANCH  15  22
TORSDOF 3
ENDMDL
MODEL 4
REMARK VINA RESULT: -7.050741872      2.402      4.696
REMARK  3 active torsions:
REMARK  status: ('A' for Active; 'I' for Inactive)
REMARK    1  A    between atoms: C4_4  and  C5_5 
REMARK    2  A    between atoms: C6_6  and  C7_7 
REMARK    3  A    between atoms: C17_21  and  O5_22 
ROOT
HETATM    1  C7  UNL     1      22.833  30.003  18.081  1.00  0.00     0.128 C 
HETATM    2  C8  UNL     1      23.053  30.390  16.678  1.00  0.00     0.268 C 
HETATM    3  O1  UNL     1      22.241  29.894  15.869  1.00  0.00    -0.264 OA
HETATM    4  O2  UNL     1      24.050  31.221  16.244  1.00  0.00    -0.315 OA
HETATM    5  C9  UNL     1      24.520  32.431  16.684  1.00  0.00     0.137 C 
HETATM    6  C10 UNL     1      26.057  32.385  16.577  1.00  0.00     0.040 C 
HETATM    7  C11 UNL     1      24.145  32.928  18.016  1.00  0.00     0.074 C 
HETATM    8  C12 UNL     1      22.982  33.909  17.874  1.00  0.00     0.137 C 
HETATM    9  C13 UNL     1      23.085  35.004  18.896  1.00  0.00     0.040 C 
HETATM   10  O3  UNL     1      21.727  33.266  17.880  1.00  0.00    -0.315 OA
HETATM   11  C14 UNL     1      21.500  32.051  18.499  1.00  0.00     0.271 C 
HETATM   12  O4  UNL     1      20.312  31.681  18.645  1.00  0.00    -0.264 OA
HETATM   13  C15 UNL     1      22.585  31.197  18.979  1.00  0.00     0.086 C 
HETATM   14  C16 UNL     1      22.278  30.639  20.361  1.00  0.00     0.030 C 
HETATM   15  C17 UNL     1      23.905  31.925  19.081  1.00  0.00     0.146 C 
ENDROOT
BRANCH   1  16
HETATM   16  C6  UNL     1      21.756  28.989  18.212  1.00  0.00    -0.011 C 
HETATM   17  C5  UNL     1      21.974  27.838  18.783  1.00  0.00    -0.003 C 
BRANCH  17  18
HETATM   18  C4  UNL     1      20.966  26.803  18.944  1.00  0.00     0.002 C 
HETATM   19  C2  UNL     1      19.898  26.957  19.688  1.00  0.00    -0.088 C 
HETATM   20  C1  UNL     1      19.684  28.257  20.419  1.00  0.00     0.043 C 
HETATM   21  C3  UNL     1      18.890  25.905  19.841  1.00  0.00     0.043 C 
ENDBRANCH  17  18
ENDBRANCH   1  16
BRANCH  15  22
HETATM   22  O5  UNL     1      24.966  31.056  19.166  1.00  0.00    -0.394 OA
ATOM     23  H5  UNL     1      25.482  31.240  19.941  1.00  0.00     0.210 HD
ENDBRANCH  15  22
TORSDOF 3
ENDMDL
MODEL 5
REMARK VINA RESULT: -6.941890927      2.304      4.309
REMARK  3 active torsions:
REMARK  status: ('A' for Active; 'I' for Inactive)
REMARK    1  A    between atoms: C4_4  and  C5_5 
REMARK    2  A    between atoms: C6_6  and  C7_7 
REMARK    3  A    between atoms: C17_21  and  O5_22 
ROOT
HETATM    1  C7  UNL     1      21.051  30.971  18.621  1.00  0.00     0.128 C 
HETATM    2  C8  UNL     1      20.914  32.332  19.164  1.00  0.00     0.268 C 
HETATM    3  O1  UNL     1      20.768  32.386  20.402  1.00  0.00    -0.264 OA
HETATM    4  O2  UNL     1      20.938  33.477  18.414  1.00  0.00    -0.315 OA
HETATM    5  C9  UNL     1      21.759  33.925  17.412  1.00  0.00     0.137 C 
HETATM    6  C10 UNL     1      20.859  34.600  16.358  1.00  0.00     0.040 C 
HETATM    7  C11 UNL     1      22.675  32.994  16.737  1.00  0.00     0.074 C 
HETATM    8  C12 UNL     1      24.066  33.123  17.357  1.00  0.00     0.137 C 
HETATM    9  C13 UNL     1      25.131  32.919  16.319  1.00  0.00     0.040 C 
HETATM   10  O3  UNL     1      24.234  32.298  18.488  1.00  0.00    -0.315 OA
HETATM   11  C14 UNL     1      23.524  31.129  18.687  1.00  0.00     0.271 C 
HETATM   12  O4  UNL     1      23.908  30.358  19.596  1.00  0.00    -0.264 OA
HETATM   13  C15 UNL     1      22.357  30.770  17.882  1.00  0.00     0.086 C 
HETATM   14  C16 UNL     1      22.398  29.305  17.472  1.00  0.00     0.030 C 
HETATM   15  C17 UNL     1      22.248  31.580  16.611  1.00  0.00     0.146 C 
ENDROOT
BRANCH   1  16
HETATM   16  C6  UNL     1      20.852  29.937  19.669  1.00  0.00    -0.011 C 
HETATM   17  C5  UNL     1      19.915  29.037  19.564  1.00  0.00    -0.003 C 
BRANCH  17  18
HETATM   18  C4  UNL     1      19.667  27.998  20.551  1.00  0.00     0.002 C 
HETATM   19  C2  UNL     1      20.132  26.779  20.435  1.00  0.00    -0.088 C 
HETATM   20  C1  UNL     1      20.964  26.413  19.233  1.00  0.00     0.043 C 
HETATM   21  C3  UNL     1      19.874  25.742  21.436  1.00  0.00     0.043 C 
ENDBRANCH  17  18
ENDBRANCH   1  16
BRANCH  15  22
HETATM   22  O5  UNL     1      20.990  31.509  16.064  1.00  0.00    -0.394 OA
ATOM     23  H5  UNL     1      21.038  31.567  15.117  1.00  0.00     0.210 HD
ENDBRANCH  15  22
TORSDOF 3
ENDMDL
