MODEL 1
REMARK VINA RESULT: -5.008365533      0.000      0.000
REMARK  7 active torsions:
REMARK  status: ('A' for Active; 'I' for Inactive)
REMARK    1  A    between atoms: C2_2  and  C3_3 
REMARK    2  A    between atoms: C3_3  and  C4_4 
REMARK    3  A    between atoms: C6_6  and  N1_7 
REMARK    4  A    between atoms: N1_7  and  C7_10 
REMARK    5  A    between atoms: C7_10  and  C8_11 
REMARK    6  A    between atoms: C8_11  and  C9_12 
REMARK    7  A    between atoms: C9_12  and  N2_13 
ROOT
HETATM    1  N1  UNL     1      63.416  10.717  25.923  1.00  0.00    -0.071 N 
ATOM      2  H11 UNL     1      62.873   9.855  25.881  1.00  0.00     0.277 HD
ATOM      3  H12 UNL     1      62.711  11.345  26.308  1.00  0.00     0.277 HD
ENDROOT
BRANCH   1   4
HETATM    4  C6  UNL     1      63.802  11.137  24.602  1.00  0.00     0.186 C 
HETATM    5  C5  UNL     1      63.014  12.370  24.199  1.00  0.00     0.038 C 
HETATM    6  C4  UNL     1      62.035  11.467  23.517  1.00  0.00    -0.007 C 
HETATM    7  C11 UNL     1      63.088  10.384  23.498  1.00  0.00     0.038 C 
BRANCH   6   8
HETATM    8  C3  UNL     1      61.548  11.926  22.170  1.00  0.00     0.031 C 
BRANCH   8   9
HETATM    9  C2  UNL     1      60.070  11.878  22.066  1.00  0.00    -0.037 C 
HETATM   10  C1  UNL     1      59.385  12.995  22.169  1.00  0.00     0.007 C 
ENDBRANCH   8   9
ENDBRANCH   6   8
ENDBRANCH   1   4
BRANCH   1  11
HETATM   11  C7  UNL     1      64.515  10.576  26.830  1.00  0.00     0.234 C 
BRANCH  11  12
HETATM   12  C8  UNL     1      65.861  10.545  26.183  1.00  0.00     0.055 C 
BRANCH  12  13
HETATM   13  C9  UNL     1      66.640   9.393  26.826  1.00  0.00     0.233 C 
BRANCH  13  14
HETATM   14  N2  UNL     1      67.729   9.902  27.627  1.00  0.00    -0.079 N 
HETATM   15  C10 UNL     1      68.718  10.449  26.731  1.00  0.00     0.266 C 
ATOM     16  H22 UNL     1      67.422  10.572  28.333  1.00  0.00     0.276 HD
ATOM     17  H21 UNL     1      68.113   9.202  28.262  1.00  0.00     0.276 HD
ENDBRANCH  13  14
ENDBRANCH  12  13
ENDBRANCH  11  12
ENDBRANCH   1  11
TORSDOF 7
ENDMDL
MODEL 2
REMARK VINA RESULT: -4.922793094      3.343      5.293
REMARK  7 active torsions:
REMARK  status: ('A' for Active; 'I' for Inactive)
REMARK    1  A    between atoms: C2_2  and  C3_3 
REMARK    2  A    between atoms: C3_3  and  C4_4 
REMARK    3  A    between atoms: C6_6  and  N1_7 
REMARK    4  A    between atoms: N1_7  and  C7_10 
REMARK    5  A    between atoms: C7_10  and  C8_11 
REMARK    6  A    between atoms: C8_11  and  C9_12 
REMARK    7  A    between atoms: C9_12  and  N2_13 
ROOT
HETATM    1  N1  UNL     1      64.112   9.865  25.684  1.00  0.00    -0.071 N 
ATOM      2  H11 UNL     1      64.256   9.861  24.675  1.00  0.00     0.277 HD
ATOM      3  H12 UNL     1      63.175  10.266  25.722  1.00  0.00     0.277 HD
ENDROOT
BRANCH   1   4
HETATM    4  C6  UNL     1      65.061  10.734  26.328  1.00  0.00     0.186 C 
HETATM    5  C5  UNL     1      64.548  11.139  27.698  1.00  0.00     0.038 C 
HETATM    6  C4  UNL     1      63.989  12.378  27.073  1.00  0.00    -0.007 C 
HETATM    7  C11 UNL     1      64.932  12.184  25.908  1.00  0.00     0.038 C 
BRANCH   6   8
HETATM    8  C3  UNL     1      64.175  13.649  27.856  1.00  0.00     0.031 C 
BRANCH   8   9
HETATM    9  C2  UNL     1      62.929  14.450  27.921  1.00  0.00    -0.037 C 
HETATM   10  C1  UNL     1      61.788  13.885  27.597  1.00  0.00     0.007 C 
ENDBRANCH   8   9
ENDBRANCH   6   8
ENDBRANCH   1   4
BRANCH   1  11
HETATM   11  C7  UNL     1      64.109   8.528  26.198  1.00  0.00     0.234 C 
BRANCH  11  12
HETATM   12  C8  UNL     1      63.021   7.655  25.665  1.00  0.00     0.055 C 
BRANCH  12  13
HETATM   13  C9  UNL     1      62.610   8.233  24.307  1.00  0.00     0.233 C 
BRANCH  13  14
HETATM   14  N2  UNL     1      61.194   8.050  24.085  1.00  0.00    -0.079 N 
HETATM   15  C10 UNL     1      60.865   6.690  24.438  1.00  0.00     0.266 C 
ATOM     16  H22 UNL     1      60.624   8.736  24.580  1.00  0.00     0.276 HD
ATOM     17  H21 UNL     1      60.908   8.294  23.137  1.00  0.00     0.276 HD
ENDBRANCH  13  14
ENDBRANCH  12  13
ENDBRANCH  11  12
ENDBRANCH   1  11
TORSDOF 7
ENDMDL
MODEL 3
REMARK VINA RESULT: -4.922492392      3.262      5.470
REMARK  7 active torsions:
REMARK  status: ('A' for Active; 'I' for Inactive)
REMARK    1  A    between atoms: C2_2  and  C3_3 
REMARK    2  A    between atoms: C3_3  and  C4_4 
REMARK    3  A    between atoms: C6_6  and  N1_7 
REMARK    4  A    between atoms: N1_7  and  C7_10 
REMARK    5  A    between atoms: C7_10  and  C8_11 
REMARK    6  A    between atoms: C8_11  and  C9_12 
REMARK    7  A    between atoms: C9_12  and  N2_13 
ROOT
HETATM    1  N1  UNL     1      64.004   9.991  26.244  1.00  0.00    -0.071 N 
ATOM      2  H11 UNL     1      63.817  10.305  25.292  1.00  0.00     0.277 HD
ATOM      3  H12 UNL     1      63.133  10.276  26.692  1.00  0.00     0.277 HD
ENDROOT
BRANCH   1   4
HETATM    4  C6  UNL     1      65.120  10.708  26.803  1.00  0.00     0.186 C 
HETATM    5  C5  UNL     1      65.254  12.064  26.132  1.00  0.00     0.038 C 
HETATM    6  C4  UNL     1      66.247  11.452  25.195  1.00  0.00    -0.007 C 
HETATM    7  C11 UNL     1      66.450  10.329  26.186  1.00  0.00     0.038 C 
BRANCH   6   8
HETATM    8  C3  UNL     1      67.464  12.284  24.894  1.00  0.00     0.031 C 
BRANCH   8   9
HETATM    9  C2  UNL     1      67.540  12.660  23.462  1.00  0.00    -0.037 C 
HETATM   10  C1  UNL     1      66.443  12.651  22.739  1.00  0.00     0.007 C 
ENDBRANCH   8   9
ENDBRANCH   6   8
ENDBRANCH   1   4
BRANCH   1  11
HETATM   11  C7  UNL     1      64.151   8.568  26.285  1.00  0.00     0.234 C 
BRANCH  11  12
HETATM   12  C8  UNL     1      62.956   7.802  25.821  1.00  0.00     0.055 C 
BRANCH  12  13
HETATM   13  C9  UNL     1      62.661   8.258  24.389  1.00  0.00     0.233 C 
BRANCH  13  14
HETATM   14  N2  UNL     1      61.250   8.146  24.101  1.00  0.00    -0.079 N 
HETATM   15  C10 UNL     1      60.858   6.779  24.340  1.00  0.00     0.266 C 
ATOM     16  H22 UNL     1      60.685   8.816  24.623  1.00  0.00     0.276 HD
ATOM     17  H21 UNL     1      61.011   8.469  23.163  1.00  0.00     0.276 HD
ENDBRANCH  13  14
ENDBRANCH  12  13
ENDBRANCH  11  12
ENDBRANCH   1  11
TORSDOF 7
ENDMDL
MODEL 4
REMARK VINA RESULT: -4.907459478      3.507      6.015
REMARK  7 active torsions:
REMARK  status: ('A' for Active; 'I' for Inactive)
REMARK    1  A    between atoms: C2_2  and  C3_3 
REMARK    2  A    between atoms: C3_3  and  C4_4 
REMARK    3  A    between atoms: C6_6  and  N1_7 
REMARK    4  A    between atoms: N1_7  and  C7_10 
REMARK    5  A    between atoms: C7_10  and  C8_11 
REMARK    6  A    between atoms: C8_11  and  C9_12 
REMARK    7  A    between atoms: C9_12  and  N2_13 
ROOT
HETATM    1  N1  UNL     1      59.654  13.150  22.478  1.00  0.00    -0.071 N 
ATOM      2  H11 UNL     1      59.082  12.658  23.165  1.00  0.00     0.277 HD
ATOM      3  H12 UNL     1      60.115  13.824  23.090  1.00  0.00     0.277 HD
ENDROOT
BRANCH   1   4
HETATM    4  C6  UNL     1      58.822  13.825  21.517  1.00  0.00     0.186 C 
HETATM    5  C5  UNL     1      57.360  13.668  21.895  1.00  0.00     0.038 C 
HETATM    6  C4  UNL     1      57.295  12.491  20.974  1.00  0.00    -0.007 C 
HETATM    7  C11 UNL     1      58.538  12.999  20.280  1.00  0.00     0.038 C 
BRANCH   6   8
HETATM    8  C3  UNL     1      56.062  12.397  20.116  1.00  0.00     0.031 C 
BRANCH   8   9
HETATM    9  C2  UNL     1      56.182  11.339  19.084  1.00  0.00    -0.037 C 
HETATM   10  C1  UNL     1      55.875  11.624  17.838  1.00  0.00     0.007 C 
ENDBRANCH   8   9
ENDBRANCH   6   8
ENDBRANCH   1   4
BRANCH   1  11
HETATM   11  C7  UNL     1      60.613  12.262  21.893  1.00  0.00     0.234 C 
BRANCH  11  12
HETATM   12  C8  UNL     1      61.485  11.549  22.873  1.00  0.00     0.055 C 
BRANCH  12  13
HETATM   13  C9  UNL     1      62.932  11.926  22.540  1.00  0.00     0.233 C 
BRANCH  13  14
HETATM   14  N2  UNL     1      63.456  12.845  23.523  1.00  0.00    -0.079 N 
HETATM   15  C10 UNL     1      62.860  12.517  24.795  1.00  0.00     0.266 C 
ATOM     16  H22 UNL     1      64.475  12.852  23.555  1.00  0.00     0.276 HD
ATOM     17  H21 UNL     1      63.321  13.822  23.263  1.00  0.00     0.276 HD
ENDBRANCH  13  14
ENDBRANCH  12  13
ENDBRANCH  11  12
ENDBRANCH   1  11
TORSDOF 7
ENDMDL
MODEL 5
REMARK VINA RESULT: -4.898854737      3.408      4.709
REMARK  7 active torsions:
REMARK  status: ('A' for Active; 'I' for Inactive)
REMARK    1  A    between atoms: C2_2  and  C3_3 
REMARK    2  A    between atoms: C3_3  and  C4_4 
REMARK    3  A    between atoms: C6_6  and  N1_7 
REMARK    4  A    between atoms: N1_7  and  C7_10 
REMARK    5  A    between atoms: C7_10  and  C8_11 
REMARK    6  A    between atoms: C8_11  and  C9_12 
REMARK    7  A    between atoms: C9_12  and  N2_13 
ROOT
HETATM    1  N1  UNL     1      61.054  11.095  22.786  1.00  0.00    -0.071 N 
ATOM      2  H11 UNL     1      60.706  10.250  22.332  1.00  0.00     0.277 HD
ATOM      3  H12 UNL     1      60.436  11.119  23.598  1.00  0.00     0.277 HD
ENDROOT
BRANCH   1   4
HETATM    4  C6  UNL     1      60.835  12.245  21.949  1.00  0.00     0.186 C 
HETATM    5  C5  UNL     1      59.588  12.984  22.399  1.00  0.00     0.038 C 
HETATM    6  C4  UNL     1      58.817  12.217  21.372  1.00  0.00    -0.007 C 
HETATM    7  C11 UNL     1      60.115  11.923  20.656  1.00  0.00     0.038 C 
BRANCH   6   8
HETATM    8  C3  UNL     1      57.804  13.006  20.587  1.00  0.00     0.031 C 
BRANCH   8   9
HETATM    9  C2  UNL     1      56.503  12.301  20.491  1.00  0.00    -0.037 C 
HETATM   10  C1  UNL     1      55.498  12.711  21.232  1.00  0.00     0.007 C 
ENDBRANCH   8   9
ENDBRANCH   6   8
ENDBRANCH   1   4
BRANCH   1  11
HETATM   11  C7  UNL     1      62.416  10.924  23.192  1.00  0.00     0.234 C 
BRANCH  11  12
HETATM   12  C8  UNL     1      63.124  12.189  23.554  1.00  0.00     0.055 C 
BRANCH  12  13
HETATM   13  C9  UNL     1      62.930  12.393  25.060  1.00  0.00     0.233 C 
BRANCH  13  14
HETATM   14  N2  UNL     1      62.586  13.767  25.346  1.00  0.00    -0.079 N 
HETATM   15  C10 UNL     1      62.661  13.953  26.774  1.00  0.00     0.266 C 
ATOM     16  H22 UNL     1      63.160  14.434  24.830  1.00  0.00     0.276 HD
ATOM     17  H21 UNL     1      61.682  14.037  24.958  1.00  0.00     0.276 HD
ENDBRANCH  13  14
ENDBRANCH  12  13
ENDBRANCH  11  12
ENDBRANCH   1  11
TORSDOF 7
ENDMDL
