MODEL 1
REMARK VINA RESULT: -5.534728810      0.000      0.000
REMARK  7 active torsions:
REMARK  status: ('A' for Active; 'I' for Inactive)
REMARK    1  A    between atoms: C1_4  and  C2_5 
REMARK    2  A    between atoms: C2_5  and  C3_6 
REMARK    3  A    between atoms: C3_6  and  N2_7 
REMARK    4  A    between atoms: N2_7  and  C4_9 
REMARK    5  A    between atoms: C4_9  and  C5_10 
REMARK    6  A    between atoms: C5_10  and  O1_11 
REMARK    7  A    between atoms: O1_11  and  C6_12 
ROOT
HETATM    1  C4  UNL     1      62.981   8.520  24.668  1.00  0.00     0.140 C 
ENDROOT
BRANCH   1   2
HETATM    2  N2  UNL     1      62.390   9.643  24.035  1.00  0.00    -0.419 N 
ATOM      3  H2  UNL     1      61.383   9.700  23.877  1.00  0.00     0.153 HD
BRANCH   2   4
HETATM    4  C3  UNL     1      63.267  10.682  23.631  1.00  0.00     0.119 C 
BRANCH   4   5
HETATM    5  C2  UNL     1      62.532  12.010  23.726  1.00  0.00     0.063 C 
BRANCH   5   6
HETATM    6  C1  UNL     1      62.662  12.618  25.073  1.00  0.00     0.054 C 
HETATM    7  N1  UNL     1      62.640  13.886  25.221  1.00  0.00    -0.411 N 
ATOM      8  H12 UNL     1      62.532  14.473  24.394  1.00  0.00     0.155 HD
ATOM      9  H11 UNL     1      62.729  14.304  26.148  1.00  0.00     0.155 HD
ENDBRANCH   5   6
ENDBRANCH   4   5
ENDBRANCH   2   4
ENDBRANCH   1   2
BRANCH   1  10
HETATM   10  C5  UNL     1      63.452   8.778  26.071  1.00  0.00     0.195 C 
BRANCH  10  11
HETATM   11  O1  UNL     1      64.859   8.666  26.132  1.00  0.00    -0.350 OA
BRANCH  11  12
HETATM   12  C6  UNL     1      65.594   9.699  26.680  1.00  0.00     0.068 A 
HETATM   13  C7  UNL     1      64.958  10.824  27.157  1.00  0.00     0.037 A 
HETATM   14  C8  UNL     1      65.643  11.885  27.715  1.00  0.00     0.003 A 
HETATM   15  C9  UNL     1      67.017  11.842  27.810  1.00  0.00     0.000 A 
HETATM   16  C10 UNL     1      67.672  10.727  27.340  1.00  0.00     0.003 A 
HETATM   17  C11 UNL     1      66.975   9.660  26.778  1.00  0.00     0.037 A 
ENDBRANCH  11  12
ENDBRANCH  10  11
ENDBRANCH   1  10
TORSDOF 7
ENDMDL
MODEL 2
REMARK VINA RESULT: -5.500616513      5.569      8.916
REMARK  7 active torsions:
REMARK  status: ('A' for Active; 'I' for Inactive)
REMARK    1  A    between atoms: C1_4  and  C2_5 
REMARK    2  A    between atoms: C2_5  and  C3_6 
REMARK    3  A    between atoms: C3_6  and  N2_7 
REMARK    4  A    between atoms: N2_7  and  C4_9 
REMARK    5  A    between atoms: C4_9  and  C5_10 
REMARK    6  A    between atoms: C5_10  and  O1_11 
REMARK    7  A    between atoms: O1_11  and  C6_12 
ROOT
HETATM    1  C4  UNL     1      60.297  11.989  22.068  1.00  0.00     0.140 C 
ENDROOT
BRANCH   1   2
HETATM    2  N2  UNL     1      61.476  12.363  21.373  1.00  0.00    -0.419 N 
ATOM      3  H2  UNL     1      61.437  12.882  20.495  1.00  0.00     0.153 HD
BRANCH   2   4
HETATM    4  C3  UNL     1      62.710  11.980  21.959  1.00  0.00     0.119 C 
BRANCH   4   5
HETATM    5  C2  UNL     1      62.445  11.441  23.355  1.00  0.00     0.063 C 
BRANCH   5   6
HETATM    6  C1  UNL     1      63.076  12.281  24.402  1.00  0.00     0.054 C 
HETATM    7  N1  UNL     1      62.531  13.373  24.779  1.00  0.00    -0.411 N 
ATOM      8  H12 UNL     1      61.653  13.656  24.345  1.00  0.00     0.155 HD
ATOM      9  H11 UNL     1      62.965  13.950  25.499  1.00  0.00     0.155 HD
ENDBRANCH   5   6
ENDBRANCH   4   5
ENDBRANCH   2   4
ENDBRANCH   1   2
BRANCH   1  10
HETATM   10  C5  UNL     1      59.273  13.082  22.182  1.00  0.00     0.195 C 
BRANCH  10  11
HETATM   11  O1  UNL     1      58.999  13.617  20.904  1.00  0.00    -0.350 OA
BRANCH  11  12
HETATM   12  C6  UNL     1      58.081  12.982  20.090  1.00  0.00     0.068 A 
HETATM   13  C7  UNL     1      56.860  12.596  20.597  1.00  0.00     0.037 A 
HETATM   14  C8  UNL     1      55.905  11.960  19.828  1.00  0.00     0.003 A 
HETATM   15  C9  UNL     1      56.159  11.688  18.502  1.00  0.00     0.000 A 
HETATM   16  C10 UNL     1      57.373  12.066  17.977  1.00  0.00     0.003 A 
HETATM   17  C11 UNL     1      58.331  12.708  18.756  1.00  0.00     0.037 A 
ENDBRANCH  11  12
ENDBRANCH  10  11
ENDBRANCH   1  10
TORSDOF 7
ENDMDL
MODEL 3
REMARK VINA RESULT: -5.487126535      5.569      8.971
REMARK  7 active torsions:
REMARK  status: ('A' for Active; 'I' for Inactive)
REMARK    1  A    between atoms: C1_4  and  C2_5 
REMARK    2  A    between atoms: C2_5  and  C3_6 
REMARK    3  A    between atoms: C3_6  and  N2_7 
REMARK    4  A    between atoms: N2_7  and  C4_9 
REMARK    5  A    between atoms: C4_9  and  C5_10 
REMARK    6  A    between atoms: C5_10  and  O1_11 
REMARK    7  A    between atoms: O1_11  and  C6_12 
ROOT
HETATM    1  C4  UNL     1      60.294  11.966  22.036  1.00  0.00     0.140 C 
ENDROOT
BRANCH   1   2
HETATM    2  N2  UNL     1      61.478  12.358  21.360  1.00  0.00    -0.419 N 
ATOM      3  H2  UNL     1      61.447  12.891  20.490  1.00  0.00     0.153 HD
BRANCH   2   4
HETATM    4  C3  UNL     1      62.708  11.971  21.953  1.00  0.00     0.119 C 
BRANCH   4   5
HETATM    5  C2  UNL     1      62.432  11.429  23.347  1.00  0.00     0.063 C 
BRANCH   5   6
HETATM    6  C1  UNL     1      63.068  12.258  24.399  1.00  0.00     0.054 C 
HETATM    7  N1  UNL     1      62.533  13.354  24.779  1.00  0.00    -0.411 N 
ATOM      8  H12 UNL     1      61.659  13.647  24.343  1.00  0.00     0.155 HD
ATOM      9  H11 UNL     1      62.971  13.924  25.502  1.00  0.00     0.155 HD
ENDBRANCH   5   6
ENDBRANCH   4   5
ENDBRANCH   2   4
ENDBRANCH   1   2
BRANCH   1  10
HETATM   10  C5  UNL     1      59.283  13.066  22.198  1.00  0.00     0.195 C 
BRANCH  10  11
HETATM   11  O1  UNL     1      58.968  13.616  20.936  1.00  0.00    -0.350 OA
BRANCH  11  12
HETATM   12  C6  UNL     1      58.044  12.977  20.132  1.00  0.00     0.068 A 
HETATM   13  C7  UNL     1      58.333  12.730  18.808  1.00  0.00     0.037 A 
HETATM   14  C8  UNL     1      57.447  12.094  17.961  1.00  0.00     0.003 A 
HETATM   15  C9  UNL     1      56.220  11.682  18.433  1.00  0.00     0.000 A 
HETATM   16  C10 UNL     1      55.912  11.919  19.752  1.00  0.00     0.003 A 
HETATM   17  C11 UNL     1      56.810  12.560  20.602  1.00  0.00     0.037 A 
ENDBRANCH  11  12
ENDBRANCH  10  11
ENDBRANCH   1  10
TORSDOF 7
ENDMDL
MODEL 4
REMARK VINA RESULT: -5.476789308      2.809      3.497
REMARK  7 active torsions:
REMARK  status: ('A' for Active; 'I' for Inactive)
REMARK    1  A    between atoms: C1_4  and  C2_5 
REMARK    2  A    between atoms: C2_5  and  C3_6 
REMARK    3  A    between atoms: C3_6  and  N2_7 
REMARK    4  A    between atoms: N2_7  and  C4_9 
REMARK    5  A    between atoms: C4_9  and  C5_10 
REMARK    6  A    between atoms: C5_10  and  O1_11 
REMARK    7  A    between atoms: O1_11  and  C6_12 
ROOT
HETATM    1  C4  UNL     1      61.781  11.506  22.910  1.00  0.00     0.140 C 
ENDROOT
BRANCH   1   2
HETATM    2  N2  UNL     1      61.636  12.257  21.715  1.00  0.00    -0.419 N 
ATOM      3  H2  UNL     1      62.415  12.778  21.312  1.00  0.00     0.153 HD
BRANCH   2   4
HETATM    4  C3  UNL     1      60.354  12.247  21.107  1.00  0.00     0.119 C 
BRANCH   4   5
HETATM    5  C2  UNL     1      59.306  12.553  22.166  1.00  0.00     0.063 C 
BRANCH   5   6
HETATM    6  C1  UNL     1      58.497  13.746  21.814  1.00  0.00     0.054 C 
HETATM    7  N1  UNL     1      58.906  14.921  22.103  1.00  0.00    -0.411 N 
ATOM      8  H12 UNL     1      59.801  15.022  22.581  1.00  0.00     0.155 HD
ATOM      9  H11 UNL     1      58.349  15.740  21.861  1.00  0.00     0.155 HD
ENDBRANCH   5   6
ENDBRANCH   4   5
ENDBRANCH   2   4
ENDBRANCH   1   2
BRANCH   1  10
HETATM   10  C5  UNL     1      62.988  11.872  23.726  1.00  0.00     0.195 C 
BRANCH  10  11
HETATM   11  O1  UNL     1      62.969  11.167  24.950  1.00  0.00    -0.350 OA
BRANCH  11  12
HETATM   12  C6  UNL     1      64.161  10.732  25.497  1.00  0.00     0.068 A 
HETATM   13  C7  UNL     1      65.313  11.464  25.314  1.00  0.00     0.037 A 
HETATM   14  C8  UNL     1      66.530  11.076  25.838  1.00  0.00     0.003 A 
HETATM   15  C9  UNL     1      66.623   9.917  26.575  1.00  0.00     0.000 A 
HETATM   16  C10 UNL     1      65.484   9.171  26.769  1.00  0.00     0.003 A 
HETATM   17  C11 UNL     1      64.259   9.567  26.239  1.00  0.00     0.037 A 
ENDBRANCH  11  12
ENDBRANCH  10  11
ENDBRANCH   1  10
TORSDOF 7
ENDMDL
MODEL 5
REMARK VINA RESULT: -5.469940324      2.831      3.523
REMARK  7 active torsions:
REMARK  status: ('A' for Active; 'I' for Inactive)
REMARK    1  A    between atoms: C1_4  and  C2_5 
REMARK    2  A    between atoms: C2_5  and  C3_6 
REMARK    3  A    between atoms: C3_6  and  N2_7 
REMARK    4  A    between atoms: N2_7  and  C4_9 
REMARK    5  A    between atoms: C4_9  and  C5_10 
REMARK    6  A    between atoms: C5_10  and  O1_11 
REMARK    7  A    between atoms: O1_11  and  C6_12 
ROOT
HETATM    1  C4  UNL     1      61.713  11.527  22.893  1.00  0.00     0.140 C 
ENDROOT
BRANCH   1   2
HETATM    2  N2  UNL     1      61.567  12.277  21.697  1.00  0.00    -0.419 N 
ATOM      3  H2  UNL     1      62.346  12.799  21.295  1.00  0.00     0.153 HD
BRANCH   2   4
HETATM    4  C3  UNL     1      60.285  12.265  21.089  1.00  0.00     0.119 C 
BRANCH   4   5
HETATM    5  C2  UNL     1      59.236  12.561  22.149  1.00  0.00     0.063 C 
BRANCH   5   6
HETATM    6  C1  UNL     1      58.450  13.777  21.825  1.00  0.00     0.054 C 
HETATM    7  N1  UNL     1      58.892  14.938  22.120  1.00  0.00    -0.411 N 
ATOM      8  H12 UNL     1      59.797  15.013  22.585  1.00  0.00     0.155 HD
ATOM      9  H11 UNL     1      58.351  15.774  21.898  1.00  0.00     0.155 HD
ENDBRANCH   5   6
ENDBRANCH   4   5
ENDBRANCH   2   4
ENDBRANCH   1   2
BRANCH   1  10
HETATM   10  C5  UNL     1      62.952  11.849  23.678  1.00  0.00     0.195 C 
BRANCH  10  11
HETATM   11  O1  UNL     1      62.930  11.161  24.911  1.00  0.00    -0.350 OA
BRANCH  11  12
HETATM   12  C6  UNL     1      64.121  10.736  25.468  1.00  0.00     0.068 A 
HETATM   13  C7  UNL     1      64.168   9.561  26.183  1.00  0.00     0.037 A 
HETATM   14  C8  UNL     1      65.331   9.089  26.761  1.00  0.00     0.003 A 
HETATM   15  C9  UNL     1      66.501   9.804  26.631  1.00  0.00     0.000 A 
HETATM   16  C10 UNL     1      66.475  10.981  25.920  1.00  0.00     0.003 A 
HETATM   17  C11 UNL     1      65.300  11.451  25.340  1.00  0.00     0.037 A 
ENDBRANCH  11  12
ENDBRANCH  10  11
ENDBRANCH   1  10
TORSDOF 7
ENDMDL
