MODEL 1
REMARK VINA RESULT: -5.722749894      0.000      0.000
REMARK  2 active torsions:
REMARK  status: ('A' for Active; 'I' for Inactive)
REMARK    1  A    between atoms: C3_3  and  N1_4 
REMARK       I    between atoms: N1_4  and  C4_6 
REMARK       I    between atoms: C4_6  and  N2_8 
REMARK    2  A    between atoms: N2_8  and  C5_10 
ROOT
HETATM    1  C1  UNL     1      -0.640  11.120  41.708  1.00  0.00     0.014 C 
HETATM    2  C2  UNL     1      -0.446  10.830  42.865  1.00  0.00    -0.098 C 
HETATM    3  C3  UNL     1      -0.205  10.460  44.276  1.00  0.00     0.217 C 
ENDROOT
BRANCH   3   4
HETATM    4  N1  UNL     1      -1.016  11.314  45.125  1.00  0.00    -0.333 N 
HETATM    5  C4  UNL     1      -0.563  11.785  46.384  1.00  0.00     0.317 C 
HETATM    6  O1  UNL     1       0.590  11.438  46.765  1.00  0.00    -0.247 OA
HETATM    7  N2  UNL     1      -1.372  12.610  47.182  1.00  0.00    -0.330 N 
ATOM      8  H2  UNL     1      -2.295  12.859  46.826  1.00  0.00     0.165 HD
ATOM      9  H1  UNL     1      -1.945  11.586  44.804  1.00  0.00     0.165 HD
BRANCH   7  10
HETATM   10  C5  UNL     1      -0.988  13.128  48.469  1.00  0.00     0.178 C 
HETATM   11  C6  UNL     1      -2.035  12.770  49.502  1.00  0.00     0.036 C 
HETATM   12  C7  UNL     1      -1.670  13.499  50.780  1.00  0.00     0.022 C 
HETATM   13  C8  UNL     1      -2.049  14.956  50.579  1.00  0.00     0.122 C 
HETATM   14  N3  UNL     1      -1.267  15.450  49.438  1.00  0.00    -0.359 N 
HETATM   15  C9  UNL     1      -0.708  14.563  48.481  1.00  0.00     0.240 C 
ATOM     16  H3  UNL     1      -1.123  16.454  49.330  1.00  0.00     0.162 HD
HETATM   17  O2  UNL     1       0.060  15.044  47.611  1.00  0.00    -0.271 OA
ENDBRANCH   7  10
ENDBRANCH   3   4
TORSDOF 2
ENDMDL
MODEL 2
REMARK VINA RESULT: -5.721919097      2.788      3.438
REMARK  2 active torsions:
REMARK  status: ('A' for Active; 'I' for Inactive)
REMARK    1  A    between atoms: C3_3  and  N1_4 
REMARK       I    between atoms: N1_4  and  C4_6 
REMARK       I    between atoms: C4_6  and  N2_8 
REMARK    2  A    between atoms: N2_8  and  C5_10 
ROOT
HETATM    1  C1  UNL     1       3.912   8.794  46.707  1.00  0.00     0.014 C 
HETATM    2  C2  UNL     1       2.812   9.298  46.720  1.00  0.00    -0.098 C 
HETATM    3  C3  UNL     1       1.467   9.911  46.719  1.00  0.00     0.217 C 
ENDROOT
BRANCH   3   4
HETATM    4  N1  UNL     1       1.410  10.907  47.774  1.00  0.00    -0.333 N 
HETATM    5  C4  UNL     1       0.255  11.693  48.016  1.00  0.00     0.317 C 
HETATM    6  O1  UNL     1      -0.752  11.508  47.276  1.00  0.00    -0.247 OA
HETATM    7  N2  UNL     1       0.231  12.648  49.045  1.00  0.00    -0.330 N 
ATOM      8  H2  UNL     1       1.072  12.757  49.613  1.00  0.00     0.165 HD
ATOM      9  H1  UNL     1       2.231  11.046  48.364  1.00  0.00     0.165 HD
BRANCH   7  10
HETATM   10  C5  UNL     1      -0.899  13.485  49.354  1.00  0.00     0.178 C 
HETATM   11  C6  UNL     1      -0.477  14.938  49.363  1.00  0.00     0.036 C 
HETATM   12  C7  UNL     1      -1.654  15.743  49.876  1.00  0.00     0.022 C 
HETATM   13  C8  UNL     1      -1.716  15.523  51.378  1.00  0.00     0.122 C 
HETATM   14  N3  UNL     1      -1.916  14.084  51.594  1.00  0.00    -0.359 N 
HETATM   15  C9  UNL     1      -1.589  13.131  50.595  1.00  0.00     0.240 C 
ATOM     16  H3  UNL     1      -2.298  13.762  52.483  1.00  0.00     0.162 HD
HETATM   17  O2  UNL     1      -1.910  11.933  50.796  1.00  0.00    -0.271 OA
ENDBRANCH   7  10
ENDBRANCH   3   4
TORSDOF 2
ENDMDL
MODEL 3
REMARK VINA RESULT: -5.698270901      2.369      6.176
REMARK  2 active torsions:
REMARK  status: ('A' for Active; 'I' for Inactive)
REMARK    1  A    between atoms: C3_3  and  N1_4 
REMARK       I    between atoms: N1_4  and  C4_6 
REMARK       I    between atoms: C4_6  and  N2_8 
REMARK    2  A    between atoms: N2_8  and  C5_10 
ROOT
HETATM    1  C1  UNL     1      -1.769  15.612  52.362  1.00  0.00     0.014 C 
HETATM    2  C2  UNL     1      -1.615  15.677  51.164  1.00  0.00    -0.098 C 
HETATM    3  C3  UNL     1      -1.443  15.762  49.699  1.00  0.00     0.217 C 
ENDROOT
BRANCH   3   4
HETATM    4  N1  UNL     1      -0.479  14.758  49.285  1.00  0.00    -0.333 N 
HETATM    5  C4  UNL     1      -0.869  13.474  48.826  1.00  0.00     0.317 C 
HETATM    6  O1  UNL     1      -2.104  13.211  48.782  1.00  0.00    -0.247 OA
HETATM    7  N2  UNL     1       0.088  12.524  48.433  1.00  0.00    -0.330 N 
ATOM      8  H2  UNL     1       1.072  12.789  48.488  1.00  0.00     0.165 HD
ATOM      9  H1  UNL     1       0.514  14.985  49.326  1.00  0.00     0.165 HD
BRANCH   7  10
HETATM   10  C5  UNL     1      -0.224  11.202  47.957  1.00  0.00     0.178 C 
HETATM   11  C6  UNL     1       0.336  10.167  48.908  1.00  0.00     0.036 C 
HETATM   12  C7  UNL     1       0.141   8.811  48.258  1.00  0.00     0.022 C 
HETATM   13  C8  UNL     1       1.188   8.693  47.163  1.00  0.00     0.122 C 
HETATM   14  N3  UNL     1       0.940   9.784  46.212  1.00  0.00    -0.359 N 
HETATM   15  C9  UNL     1       0.205  10.940  46.583  1.00  0.00     0.240 C 
ATOM     16  H3  UNL     1       1.304   9.710  45.262  1.00  0.00     0.162 HD
HETATM   17  O2  UNL     1      -0.084  11.768  45.683  1.00  0.00    -0.271 OA
ENDBRANCH   7  10
ENDBRANCH   3   4
TORSDOF 2
ENDMDL
MODEL 4
REMARK VINA RESULT: -5.647624149      3.374      3.595
REMARK  2 active torsions:
REMARK  status: ('A' for Active; 'I' for Inactive)
REMARK    1  A    between atoms: C3_3  and  N1_4 
REMARK       I    between atoms: N1_4  and  C4_6 
REMARK       I    between atoms: C4_6  and  N2_8 
REMARK    2  A    between atoms: N2_8  and  C5_10 
ROOT
HETATM    1  C1  UNL     1       3.499   9.255  46.768  1.00  0.00     0.014 C 
HETATM    2  C2  UNL     1       2.679   9.643  47.567  1.00  0.00    -0.098 C 
HETATM    3  C3  UNL     1       1.675  10.101  48.551  1.00  0.00     0.217 C 
ENDROOT
BRANCH   3   4
HETATM    4  N1  UNL     1       0.953  11.227  47.986  1.00  0.00    -0.333 N 
HETATM    5  C4  UNL     1       0.132  12.075  48.772  1.00  0.00     0.317 C 
HETATM    6  O1  UNL     1       0.037  11.827  50.007  1.00  0.00    -0.247 OA
HETATM    7  N2  UNL     1      -0.554  13.157  48.196  1.00  0.00    -0.330 N 
ATOM      8  H2  UNL     1      -0.442  13.312  47.193  1.00  0.00     0.165 HD
ATOM      9  H1  UNL     1       1.039  11.415  46.987  1.00  0.00     0.165 HD
BRANCH   7  10
HETATM   10  C5  UNL     1      -1.405  14.062  48.922  1.00  0.00     0.178 C 
HETATM   11  C6  UNL     1      -0.563  15.031  49.723  1.00  0.00     0.036 C 
HETATM   12  C7  UNL     1      -1.508  15.825  50.602  1.00  0.00     0.022 C 
HETATM   13  C8  UNL     1      -1.928  14.907  51.738  1.00  0.00     0.122 C 
HETATM   14  N3  UNL     1      -2.603  13.752  51.130  1.00  0.00    -0.359 N 
HETATM   15  C9  UNL     1      -2.400  13.405  49.770  1.00  0.00     0.240 C 
ATOM     16  H3  UNL     1      -3.232  13.187  51.700  1.00  0.00     0.162 HD
HETATM   17  O2  UNL     1      -3.110  12.490  49.283  1.00  0.00    -0.271 OA
ENDBRANCH   7  10
ENDBRANCH   3   4
TORSDOF 2
ENDMDL
MODEL 5
REMARK VINA RESULT: -5.619770216      1.298      1.543
REMARK  2 active torsions:
REMARK  status: ('A' for Active; 'I' for Inactive)
REMARK    1  A    between atoms: C3_3  and  N1_4 
REMARK       I    between atoms: N1_4  and  C4_6 
REMARK       I    between atoms: C4_6  and  N2_8 
REMARK    2  A    between atoms: N2_8  and  C5_10 
ROOT
HETATM    1  C1  UNL     1      -1.504  11.067  43.130  1.00  0.00     0.014 C 
HETATM    2  C2  UNL     1      -1.092  11.062  44.267  1.00  0.00    -0.098 C 
HETATM    3  C3  UNL     1      -0.587  11.039  45.656  1.00  0.00     0.217 C 
ENDROOT
BRANCH   3   4
HETATM    4  N1  UNL     1      -1.240  12.098  46.405  1.00  0.00    -0.333 N 
HETATM    5  C4  UNL     1      -0.805  12.496  47.695  1.00  0.00     0.317 C 
HETATM    6  O1  UNL     1       0.187  11.896  48.196  1.00  0.00    -0.247 OA
HETATM    7  N2  UNL     1      -1.458  13.524  48.395  1.00  0.00    -0.330 N 
ATOM      8  H2  UNL     1      -2.254  13.975  47.943  1.00  0.00     0.165 HD
ATOM      9  H1  UNL     1      -2.040  12.574  45.988  1.00  0.00     0.165 HD
BRANCH   7  10
HETATM   10  C5  UNL     1      -1.081  13.985  49.705  1.00  0.00     0.178 C 
HETATM   11  C6  UNL     1      -2.253  13.859  50.653  1.00  0.00     0.036 C 
HETATM   12  C7  UNL     1      -1.853  14.531  51.952  1.00  0.00     0.022 C 
HETATM   13  C8  UNL     1      -1.924  16.029  51.712  1.00  0.00     0.122 C 
HETATM   14  N3  UNL     1      -0.976  16.338  50.634  1.00  0.00    -0.359 N 
HETATM   15  C9  UNL     1      -0.528  15.339  49.731  1.00  0.00     0.240 C 
ATOM     16  H3  UNL     1      -0.631  17.292  50.532  1.00  0.00     0.162 HD
HETATM   17  O2  UNL     1       0.383  15.644  48.921  1.00  0.00    -0.271 OA
ENDBRANCH   7  10
ENDBRANCH   3   4
TORSDOF 2
ENDMDL
