MODEL 1
REMARK VINA RESULT: -6.575772454      0.000      0.000
REMARK  2 active torsions:
REMARK  status: ('A' for Active; 'I' for Inactive)
REMARK    1  A    between atoms: C3_6  and  C4_7 
REMARK    2  A    between atoms: C4_7  and  N2_8 
ROOT
HETATM    1  N2  UNL     1      -1.427  14.255  50.464  1.00  0.00    -0.329 N 
HETATM    2  C5  UNL     1      -2.315  14.741  51.503  1.00  0.00     0.149 C 
HETATM    3  C6  UNL     1      -1.680  15.791  52.356  1.00  0.00     0.159 C 
HETATM    4  N3  UNL     1      -0.757  16.650  51.702  1.00  0.00    -0.331 N 
ATOM      5  H3  UNL     1      -0.184  17.314  52.224  1.00  0.00     0.180 HD
HETATM    6  N4  UNL     1      -0.670  16.546  50.335  1.00  0.00    -0.256 N 
ATOM      7  H4  UNL     1      -0.571  17.382  49.759  1.00  0.00     0.191 HD
HETATM    8  C7  UNL     1      -0.721  15.253  49.728  1.00  0.00     0.336 C 
HETATM    9  O2  UNL     1      -0.186  15.002  48.626  1.00  0.00    -0.245 OA
ENDROOT
BRANCH   1  10
HETATM   10  C4  UNL     1      -1.244  12.855  50.164  1.00  0.00     0.154 C 
BRANCH  10  11
HETATM   11  C3  UNL     1      -2.497  12.071  50.394  1.00  0.00     0.122 C 
HETATM   12  C2  UNL     1      -2.865  11.363  49.094  1.00  0.00     0.151 C 
HETATM   13  N1  UNL     1      -3.833  10.396  49.577  1.00  0.00    -0.341 N 
HETATM   14  C1  UNL     1      -3.365  10.022  50.870  1.00  0.00     0.316 C 
ATOM     15  H1  UNL     1      -4.666  10.058  49.097  1.00  0.00     0.164 HD
HETATM   16  O1  UNL     1      -3.756   9.036  51.559  1.00  0.00    -0.247 OA
HETATM   17  N5  UNL     1      -2.350  10.963  51.284  1.00  0.00    -0.335 N 
ATOM     18  H5  UNL     1      -1.677  10.859  52.044  1.00  0.00     0.164 HD
ENDBRANCH  10  11
ENDBRANCH   1  10
TORSDOF 2
ENDMDL
MODEL 2
REMARK VINA RESULT: -6.441257251      2.830      3.329
REMARK  2 active torsions:
REMARK  status: ('A' for Active; 'I' for Inactive)
REMARK    1  A    between atoms: C3_6  and  C4_7 
REMARK    2  A    between atoms: C4_7  and  N2_8 
ROOT
HETATM    1  N2  UNL     1      -1.819  13.984  49.630  1.00  0.00    -0.329 N 
HETATM    2  C5  UNL     1      -2.496  14.274  50.878  1.00  0.00     0.149 C 
HETATM    3  C6  UNL     1      -1.731  15.226  51.740  1.00  0.00     0.159 C 
HETATM    4  N3  UNL     1      -0.974  16.215  51.055  1.00  0.00    -0.331 N 
ATOM      5  H3  UNL     1      -0.327  16.828  51.550  1.00  0.00     0.180 HD
HETATM    6  N4  UNL     1      -1.155  16.307  49.697  1.00  0.00    -0.256 N 
ATOM      7  H4  UNL     1      -1.190  17.220  49.242  1.00  0.00     0.191 HD
HETATM    8  C7  UNL     1      -1.294  15.111  48.927  1.00  0.00     0.336 C 
HETATM    9  O2  UNL     1      -0.980  15.044  47.719  1.00  0.00    -0.245 OA
ENDROOT
BRANCH   1  10
HETATM   10  C4  UNL     1      -1.665  12.651  49.098  1.00  0.00     0.154 C 
BRANCH  10  11
HETATM   11  C3  UNL     1      -0.252  12.173  49.204  1.00  0.00     0.122 C 
HETATM   12  C2  UNL     1      -0.272  10.721  49.671  1.00  0.00     0.151 C 
HETATM   13  N1  UNL     1       1.089  10.319  49.365  1.00  0.00    -0.341 N 
HETATM   14  C1  UNL     1       1.420  11.025  48.172  1.00  0.00     0.316 C 
ATOM     15  H1  UNL     1       1.679   9.673  49.889  1.00  0.00     0.164 HD
HETATM   16  O1  UNL     1       2.408  10.804  47.414  1.00  0.00    -0.247 OA
HETATM   17  N5  UNL     1       0.431  12.055  47.955  1.00  0.00    -0.335 N 
ATOM     18  H5  UNL     1       0.258  12.582  47.098  1.00  0.00     0.164 HD
ENDBRANCH  10  11
ENDBRANCH   1  10
TORSDOF 2
ENDMDL
MODEL 3
REMARK VINA RESULT: -6.248459334      2.496      5.288
REMARK  2 active torsions:
REMARK  status: ('A' for Active; 'I' for Inactive)
REMARK    1  A    between atoms: C3_6  and  C4_7 
REMARK    2  A    between atoms: C4_7  and  N2_8 
ROOT
HETATM    1  N2  UNL     1      -1.296  12.598  49.691  1.00  0.00    -0.329 N 
HETATM    2  C5  UNL     1      -1.784  12.910  48.362  1.00  0.00     0.149 C 
HETATM    3  C6  UNL     1      -0.678  13.193  47.396  1.00  0.00     0.159 C 
HETATM    4  N3  UNL     1       0.525  12.465  47.597  1.00  0.00    -0.331 N 
ATOM      5  H3  UNL     1       1.371  12.676  47.068  1.00  0.00     0.180 HD
HETATM    6  N4  UNL     1       0.497  11.462  48.535  1.00  0.00    -0.256 N 
ATOM      7  H4  UNL     1       0.978  10.579  48.362  1.00  0.00     0.191 HD
HETATM    8  C7  UNL     1      -0.214  11.668  49.758  1.00  0.00     0.336 C 
HETATM    9  O2  UNL     1       0.083  11.080  50.821  1.00  0.00    -0.245 OA
ENDROOT
BRANCH   1  10
HETATM   10  C4  UNL     1      -1.846  13.171  50.896  1.00  0.00     0.154 C 
BRANCH  10  11
HETATM   11  C3  UNL     1      -1.872  14.665  50.837  1.00  0.00     0.122 C 
HETATM   12  C2  UNL     1      -2.115  15.197  52.245  1.00  0.00     0.151 C 
HETATM   13  N1  UNL     1      -1.745  16.590  52.077  1.00  0.00    -0.341 N 
HETATM   14  C1  UNL     1      -0.670  16.573  51.141  1.00  0.00     0.316 C 
ATOM     15  H1  UNL     1      -2.162  17.403  52.529  1.00  0.00     0.164 HD
HETATM   16  O1  UNL     1       0.118  17.527  50.879  1.00  0.00    -0.247 OA
HETATM   17  N5  UNL     1      -0.616  15.269  50.523  1.00  0.00    -0.335 N 
ATOM     18  H5  UNL     1       0.151  14.868  49.982  1.00  0.00     0.164 HD
ENDBRANCH  10  11
ENDBRANCH   1  10
TORSDOF 2
ENDMDL
MODEL 4
REMARK VINA RESULT: -6.094923993      2.908      5.236
REMARK  2 active torsions:
REMARK  status: ('A' for Active; 'I' for Inactive)
REMARK    1  A    between atoms: C3_6  and  C4_7 
REMARK    2  A    between atoms: C4_7  and  N2_8 
ROOT
HETATM    1  N2  UNL     1      -1.004  13.153  49.221  1.00  0.00    -0.329 N 
HETATM    2  C5  UNL     1      -0.107  12.138  49.739  1.00  0.00     0.149 C 
HETATM    3  C6  UNL     1       0.197  11.075  48.733  1.00  0.00     0.159 C 
HETATM    4  N3  UNL     1       0.253  11.497  47.377  1.00  0.00    -0.331 N 
ATOM      5  H3  UNL     1       0.333  10.828  46.612  1.00  0.00     0.180 HD
HETATM    6  N4  UNL     1       0.194  12.850  47.144  1.00  0.00    -0.256 N 
ATOM      7  H4  UNL     1       0.779  13.276  46.425  1.00  0.00     0.191 HD
HETATM    8  C7  UNL     1      -0.696  13.655  47.920  1.00  0.00     0.336 C 
HETATM    9  O2  UNL     1      -1.178  14.729  47.499  1.00  0.00    -0.245 OA
ENDROOT
BRANCH   1  10
HETATM   10  C4  UNL     1      -2.147  13.652  49.948  1.00  0.00     0.154 C 
BRANCH  10  11
HETATM   11  C3  UNL     1      -1.982  15.091  50.320  1.00  0.00     0.122 C 
HETATM   12  C2  UNL     1      -2.255  15.234  51.814  1.00  0.00     0.151 C 
HETATM   13  N1  UNL     1      -1.703  16.553  52.064  1.00  0.00    -0.341 N 
HETATM   14  C1  UNL     1      -0.576  16.650  51.198  1.00  0.00     0.316 C 
ATOM     15  H1  UNL     1      -2.047  17.256  52.718  1.00  0.00     0.164 HD
HETATM   16  O1  UNL     1       0.340  17.520  51.245  1.00  0.00    -0.247 OA
HETATM   17  N5  UNL     1      -0.642  15.578  50.232  1.00  0.00    -0.335 N 
ATOM     18  H5  UNL     1       0.104  15.242  49.623  1.00  0.00     0.164 HD
ENDBRANCH  10  11
ENDBRANCH   1  10
TORSDOF 2
ENDMDL
MODEL 5
REMARK VINA RESULT: -6.090844223      2.705      2.815
REMARK  2 active torsions:
REMARK  status: ('A' for Active; 'I' for Inactive)
REMARK    1  A    between atoms: C3_6  and  C4_7 
REMARK    2  A    between atoms: C4_7  and  N2_8 
ROOT
HETATM    1  N2  UNL     1      -0.970  15.123  49.855  1.00  0.00    -0.329 N 
HETATM    2  C5  UNL     1      -2.277  14.795  50.391  1.00  0.00     0.149 C 
HETATM    3  C6  UNL     1      -2.291  14.755  51.885  1.00  0.00     0.159 C 
HETATM    4  N3  UNL     1      -1.425  15.671  52.541  1.00  0.00    -0.331 N 
ATOM      5  H3  UNL     1      -1.275  15.635  53.549  1.00  0.00     0.180 HD
HETATM    6  N4  UNL     1      -0.799  16.607  51.754  1.00  0.00    -0.256 N 
ATOM      7  H4  UNL     1      -0.691  17.567  52.082  1.00  0.00     0.191 HD
HETATM    8  C7  UNL     1      -0.299  16.222  50.472  1.00  0.00     0.336 C 
HETATM    9  O2  UNL     1       0.661  16.801  49.918  1.00  0.00    -0.245 OA
ENDROOT
BRANCH   1  10
HETATM   10  C4  UNL     1      -0.354  14.406  48.764  1.00  0.00     0.154 C 
BRANCH  10  11
HETATM   11  C3  UNL     1      -0.644  12.940  48.833  1.00  0.00     0.122 C 
HETATM   12  C2  UNL     1      -1.516  12.568  47.638  1.00  0.00     0.151 C 
HETATM   13  N1  UNL     1      -1.387  11.122  47.648  1.00  0.00    -0.341 N 
HETATM   14  C1  UNL     1      -0.051  10.876  48.080  1.00  0.00     0.316 C 
ATOM     15  H1  UNL     1      -2.097  10.434  47.401  1.00  0.00     0.164 HD
HETATM   16  O1  UNL     1       0.574   9.779  48.009  1.00  0.00    -0.247 OA
HETATM   17  N5  UNL     1       0.492  12.099  48.623  1.00  0.00    -0.335 N 
ATOM     18  H5  UNL     1       1.471  12.315  48.814  1.00  0.00     0.164 HD
ENDBRANCH  10  11
ENDBRANCH   1  10
TORSDOF 2
ENDMDL
