MODEL 1
REMARK VINA RESULT: -6.254247850      0.000      0.000
REMARK  9 active torsions:
REMARK  status: ('A' for Active; 'I' for Inactive)
REMARK    1  A    between atoms: N1_1  and  N2_4 
REMARK    2  A    between atoms: N2_4  and  N3_5 
REMARK    3  A    between atoms: C2_12  and  N6_13 
REMARK    4  A    between atoms: N7_16  and  C3_17 
REMARK    5  A    between atoms: C3_17  and  C4_18 
REMARK    6  A    between atoms: C4_18  and  C5_19 
REMARK    7  A    between atoms: C5_19  and  C6_20 
REMARK    8  A    between atoms: C6_20  and  C7_21 
REMARK    9  A    between atoms: C7_21  and  N8_22 
ROOT
HETATM    1  N3  UNL     1       5.623   6.255  -0.937  1.00  0.00     0.012 N 
HETATM    2  C1  UNL     1       6.019   6.640   0.282  1.00  0.00     0.726 A 
HETATM    3  N4  UNL     1       6.007   7.767   0.884  1.00  0.00    -0.231 N 
ATOM      4  H41 UNL     1       6.309   8.061   1.813  1.00  0.00     0.174 HD
ATOM      5  H42 UNL     1       5.635   8.585   0.403  1.00  0.00     0.174 HD
HETATM    6  N5  UNL     1       6.523   5.532   0.933  1.00  0.00    -0.019 N 
ATOM      7  H5  UNL     1       6.906   5.488   1.877  1.00  0.00     0.203 HD
HETATM    8  C2  UNL     1       6.400   4.529   0.059  1.00  0.00     0.709 A 
HETATM    9  N7  UNL     1       5.861   4.928  -1.081  1.00  0.00    -0.089 N 
ENDROOT
BRANCH   9  10
HETATM   10  C3  UNL     1       5.562   4.142  -2.279  1.00  0.00     0.170 C 
BRANCH  10  11
HETATM   11  C4  UNL     1       6.705   4.109  -3.232  1.00  0.00     0.022 C 
BRANCH  11  12
HETATM   12  C5  UNL     1       6.867   2.717  -3.796  1.00  0.00     0.003 C 
BRANCH  12  13
HETATM   13  C6  UNL     1       7.222   1.680  -2.764  1.00  0.00     0.027 C 
BRANCH  13  14
HETATM   14  C7  UNL     1       8.713   1.431  -2.859  1.00  0.00     0.229 C 
BRANCH  14  15
HETATM   15  N8  UNL     1       9.394   2.021  -1.725  1.00  0.00    -0.079 N 
ATOM     16  H83 UNL     1       9.067   2.970  -1.536  1.00  0.00     0.274 HD
ATOM     17  H82 UNL     1       9.114   1.588  -0.845  1.00  0.00     0.274 HD
ATOM     18  H81 UNL     1      10.404   1.987  -1.861  1.00  0.00     0.274 HD
ENDBRANCH  14  15
ENDBRANCH  13  14
ENDBRANCH  12  13
ENDBRANCH  11  12
ENDBRANCH  10  11
ENDBRANCH   9  10
BRANCH   1  19
HETATM   19  N2  UNL     1       5.056   6.998  -1.953  1.00  0.00     0.010 NA
BRANCH  19  20
HETATM   20  N1  UNL     1       3.753   7.325  -1.687  1.00  0.00    -0.326 N 
ATOM     21  H12 UNL     1       3.235   6.950  -0.894  1.00  0.00     0.174 HD
ATOM     22  H11 UNL     1       3.374   7.980  -2.372  1.00  0.00     0.174 HD
ENDBRANCH  19  20
ENDBRANCH   1  19
BRANCH   8  23
HETATM   23  N6  UNL     1       6.764   3.303   0.290  1.00  0.00    -0.233 N 
ATOM     24  H62 UNL     1       7.727   2.976   0.204  1.00  0.00     0.174 HD
ATOM     25  H61 UNL     1       6.131   2.557   0.576  1.00  0.00     0.174 HD
ENDBRANCH   8  23
TORSDOF 9
ENDMDL
MODEL 2
REMARK VINA RESULT: -6.080551169      2.044      5.071
REMARK  9 active torsions:
REMARK  status: ('A' for Active; 'I' for Inactive)
REMARK    1  A    between atoms: N1_1  and  N2_4 
REMARK    2  A    between atoms: N2_4  and  N3_5 
REMARK    3  A    between atoms: C2_12  and  N6_13 
REMARK    4  A    between atoms: N7_16  and  C3_17 
REMARK    5  A    between atoms: C3_17  and  C4_18 
REMARK    6  A    between atoms: C4_18  and  C5_19 
REMARK    7  A    between atoms: C5_19  and  C6_20 
REMARK    8  A    between atoms: C6_20  and  C7_21 
REMARK    9  A    between atoms: C7_21  and  N8_22 
ROOT
HETATM    1  N3  UNL     1       7.786   3.954  -1.269  1.00  0.00     0.012 N 
HETATM    2  C1  UNL     1       8.275   2.710  -1.339  1.00  0.00     0.726 A 
HETATM    3  N4  UNL     1       8.996   2.013  -0.548  1.00  0.00    -0.231 N 
ATOM      4  H41 UNL     1       9.369   1.065  -0.601  1.00  0.00     0.174 HD
ATOM      5  H42 UNL     1       9.300   2.419   0.336  1.00  0.00     0.174 HD
HETATM    6  N5  UNL     1       7.863   2.161  -2.537  1.00  0.00    -0.019 N 
ATOM      7  H5  UNL     1       8.066   1.227  -2.894  1.00  0.00     0.203 HD
HETATM    8  C2  UNL     1       7.140   3.116  -3.128  1.00  0.00     0.709 A 
HETATM    9  N7  UNL     1       7.072   4.213  -2.391  1.00  0.00    -0.089 N 
ENDROOT
BRANCH   9  10
HETATM   10  C3  UNL     1       6.384   5.472  -2.682  1.00  0.00     0.170 C 
BRANCH  10  11
HETATM   11  C4  UNL     1       4.949   5.435  -2.287  1.00  0.00     0.022 C 
BRANCH  11  12
HETATM   12  C5  UNL     1       4.556   6.748  -1.651  1.00  0.00     0.003 C 
BRANCH  12  13
HETATM   13  C6  UNL     1       5.713   7.511  -1.064  1.00  0.00     0.027 C 
BRANCH  13  14
HETATM   14  C7  UNL     1       5.464   7.649   0.424  1.00  0.00     0.229 C 
BRANCH  14  15
HETATM   15  N8  UNL     1       5.556   9.039   0.821  1.00  0.00    -0.079 N 
ATOM     16  H83 UNL     1       6.411   9.229   1.345  1.00  0.00     0.274 HD
ATOM     17  H82 UNL     1       5.728   9.653   0.024  1.00  0.00     0.274 HD
ATOM     18  H81 UNL     1       4.722   9.315   1.340  1.00  0.00     0.274 HD
ENDBRANCH  14  15
ENDBRANCH  13  14
ENDBRANCH  12  13
ENDBRANCH  11  12
ENDBRANCH  10  11
ENDBRANCH   9  10
BRANCH   1  19
HETATM   19  N2  UNL     1       7.925   4.897  -0.271  1.00  0.00     0.010 NA
BRANCH  19  20
HETATM   20  N1  UNL     1       7.218   4.565   0.855  1.00  0.00    -0.326 N 
ATOM     21  H12 UNL     1       7.257   3.641   1.285  1.00  0.00     0.174 HD
ATOM     22  H11 UNL     1       6.657   5.344   1.200  1.00  0.00     0.174 HD
ENDBRANCH  19  20
ENDBRANCH   1  19
BRANCH   8  23
HETATM   23  N6  UNL     1       6.567   2.995  -4.288  1.00  0.00    -0.233 N 
ATOM     24  H62 UNL     1       6.016   2.181  -4.561  1.00  0.00     0.174 HD
ATOM     25  H61 UNL     1       6.613   3.693  -5.030  1.00  0.00     0.174 HD
ENDBRANCH   8  23
TORSDOF 9
ENDMDL
MODEL 3
REMARK VINA RESULT: -5.973097817      2.179      5.647
REMARK  9 active torsions:
REMARK  status: ('A' for Active; 'I' for Inactive)
REMARK    1  A    between atoms: N1_1  and  N2_4 
REMARK    2  A    between atoms: N2_4  and  N3_5 
REMARK    3  A    between atoms: C2_12  and  N6_13 
REMARK    4  A    between atoms: N7_16  and  C3_17 
REMARK    5  A    between atoms: C3_17  and  C4_18 
REMARK    6  A    between atoms: C4_18  and  C5_19 
REMARK    7  A    between atoms: C5_19  and  C6_20 
REMARK    8  A    between atoms: C6_20  and  C7_21 
REMARK    9  A    between atoms: C7_21  and  N8_22 
ROOT
HETATM    1  N3  UNL     1       7.904   2.702  -1.818  1.00  0.00     0.012 N 
HETATM    2  C1  UNL     1       8.501   1.825  -2.635  1.00  0.00     0.726 A 
HETATM    3  N4  UNL     1       9.635   1.238  -2.599  1.00  0.00    -0.231 N 
ATOM      4  H41 UNL     1      10.090   0.570  -3.221  1.00  0.00     0.174 HD
ATOM      5  H42 UNL     1      10.268   1.423  -1.822  1.00  0.00     0.174 HD
HETATM    6  N5  UNL     1       7.643   1.575  -3.686  1.00  0.00    -0.019 N 
ATOM      7  H5  UNL     1       7.799   0.953  -4.480  1.00  0.00     0.203 HD
HETATM    8  C2  UNL     1       6.564   2.323  -3.441  1.00  0.00     0.709 A 
HETATM    9  N7  UNL     1       6.686   3.017  -2.322  1.00  0.00    -0.089 N 
ENDROOT
BRANCH   9  10
HETATM   10  C3  UNL     1       5.734   3.946  -1.710  1.00  0.00     0.170 C 
BRANCH  10  11
HETATM   11  C4  UNL     1       5.845   5.320  -2.272  1.00  0.00     0.022 C 
BRANCH  11  12
HETATM   12  C5  UNL     1       6.383   6.265  -1.223  1.00  0.00     0.003 C 
BRANCH  12  13
HETATM   13  C6  UNL     1       5.420   7.355  -0.836  1.00  0.00     0.027 C 
BRANCH  13  14
HETATM   14  C7  UNL     1       5.657   7.679   0.625  1.00  0.00     0.229 C 
BRANCH  14  15
HETATM   15  N8  UNL     1       5.635   9.113   0.832  1.00  0.00    -0.079 N 
ATOM     16  H83 UNL     1       5.115   9.368   1.672  1.00  0.00     0.274 HD
ATOM     17  H82 UNL     1       6.550   9.473   1.105  1.00  0.00     0.274 HD
ATOM     18  H81 UNL     1       5.274   9.584   0.002  1.00  0.00     0.274 HD
ENDBRANCH  14  15
ENDBRANCH  13  14
ENDBRANCH  12  13
ENDBRANCH  11  12
ENDBRANCH  10  11
ENDBRANCH   9  10
BRANCH   1  19
HETATM   19  N2  UNL     1       8.360   3.256  -0.639  1.00  0.00     0.010 NA
BRANCH  19  20
HETATM   20  N1  UNL     1       8.312   2.367   0.402  1.00  0.00    -0.326 N 
ATOM     21  H12 UNL     1       7.656   1.587   0.439  1.00  0.00     0.174 HD
ATOM     22  H11 UNL     1       9.003   2.580   1.122  1.00  0.00     0.174 HD
ENDBRANCH  19  20
ENDBRANCH   1  19
BRANCH   8  23
HETATM   23  N6  UNL     1       5.514   2.372  -4.205  1.00  0.00    -0.233 N 
ATOM     24  H62 UNL     1       4.641   2.824  -3.932  1.00  0.00     0.174 HD
ATOM     25  H61 UNL     1       5.460   1.969  -5.140  1.00  0.00     0.174 HD
ENDBRANCH   8  23
TORSDOF 9
ENDMDL
MODEL 4
REMARK VINA RESULT: -5.951649475      1.158      2.562
REMARK  9 active torsions:
REMARK  status: ('A' for Active; 'I' for Inactive)
REMARK    1  A    between atoms: N1_1  and  N2_4 
REMARK    2  A    between atoms: N2_4  and  N3_5 
REMARK    3  A    between atoms: C2_12  and  N6_13 
REMARK    4  A    between atoms: N7_16  and  C3_17 
REMARK    5  A    between atoms: C3_17  and  C4_18 
REMARK    6  A    between atoms: C4_18  and  C5_19 
REMARK    7  A    between atoms: C5_19  and  C6_20 
REMARK    8  A    between atoms: C6_20  and  C7_21 
REMARK    9  A    between atoms: C7_21  and  N8_22 
ROOT
HETATM    1  N3  UNL     1       6.569   5.628  -0.617  1.00  0.00     0.012 N 
HETATM    2  C1  UNL     1       5.989   6.744  -0.157  1.00  0.00     0.726 A 
HETATM    3  N4  UNL     1       6.281   7.546   0.793  1.00  0.00    -0.231 N 
ATOM      4  H41 UNL     1       5.840   8.396   1.144  1.00  0.00     0.174 HD
ATOM      5  H42 UNL     1       7.109   7.367   1.361  1.00  0.00     0.174 HD
HETATM    6  N5  UNL     1       4.869   6.986  -0.925  1.00  0.00    -0.019 N 
ATOM      7  H5  UNL     1       4.208   7.757  -0.833  1.00  0.00     0.203 HD
HETATM    8  C2  UNL     1       4.835   5.991  -1.816  1.00  0.00     0.709 A 
HETATM    9  N7  UNL     1       5.846   5.152  -1.660  1.00  0.00    -0.089 N 
ENDROOT
BRANCH   9  10
HETATM   10  C3  UNL     1       6.164   3.946  -2.427  1.00  0.00     0.170 C 
BRANCH  10  11
HETATM   11  C4  UNL     1       5.672   2.709  -1.762  1.00  0.00     0.022 C 
BRANCH  11  12
HETATM   12  C5  UNL     1       6.761   1.661  -1.751  1.00  0.00     0.003 C 
BRANCH  12  13
HETATM   13  C6  UNL     1       7.612   1.655  -2.992  1.00  0.00     0.027 C 
BRANCH  13  14
HETATM   14  C7  UNL     1       9.062   1.621  -2.553  1.00  0.00     0.229 C 
BRANCH  14  15
HETATM   15  N8  UNL     1       9.200   2.196  -1.231  1.00  0.00    -0.079 N 
ATOM     16  H83 UNL     1       9.163   1.483  -0.501  1.00  0.00     0.274 HD
ATOM     17  H82 UNL     1      10.145   2.538  -1.060  1.00  0.00     0.274 HD
ATOM     18  H81 UNL     1       8.500   2.924  -1.088  1.00  0.00     0.274 HD
ENDBRANCH  14  15
ENDBRANCH  13  14
ENDBRANCH  12  13
ENDBRANCH  11  12
ENDBRANCH  10  11
ENDBRANCH   9  10
BRANCH   1  19
HETATM   19  N2  UNL     1       7.709   4.985  -0.179  1.00  0.00     0.010 NA
BRANCH  19  20
HETATM   20  N1  UNL     1       7.498   4.301   0.989  1.00  0.00    -0.326 N 
ATOM     21  H12 UNL     1       6.930   3.456   1.046  1.00  0.00     0.174 HD
ATOM     22  H11 UNL     1       7.973   4.736   1.780  1.00  0.00     0.174 HD
ENDBRANCH  19  20
ENDBRANCH   1  19
BRANCH   8  23
HETATM   23  N6  UNL     1       3.923   5.852  -2.731  1.00  0.00    -0.233 N 
ATOM     24  H62 UNL     1       3.236   6.572  -2.954  1.00  0.00     0.174 HD
ATOM     25  H61 UNL     1       3.807   5.020  -3.310  1.00  0.00     0.174 HD
ENDBRANCH   8  23
TORSDOF 9
ENDMDL
MODEL 5
REMARK VINA RESULT: -5.943243163      1.867      5.065
REMARK  9 active torsions:
REMARK  status: ('A' for Active; 'I' for Inactive)
REMARK    1  A    between atoms: N1_1  and  N2_4 
REMARK    2  A    between atoms: N2_4  and  N3_5 
REMARK    3  A    between atoms: C2_12  and  N6_13 
REMARK    4  A    between atoms: N7_16  and  C3_17 
REMARK    5  A    between atoms: C3_17  and  C4_18 
REMARK    6  A    between atoms: C4_18  and  C5_19 
REMARK    7  A    between atoms: C5_19  and  C6_20 
REMARK    8  A    between atoms: C6_20  and  C7_21 
REMARK    9  A    between atoms: C7_21  and  N8_22 
ROOT
HETATM    1  N3  UNL     1       6.279   2.796  -2.160  1.00  0.00     0.012 N 
HETATM    2  C1  UNL     1       7.097   2.227  -3.053  1.00  0.00     0.726 A 
HETATM    3  N4  UNL     1       6.982   1.976  -4.300  1.00  0.00    -0.231 N 
ATOM      4  H41 UNL     1       7.606   1.543  -4.982  1.00  0.00     0.174 HD
ATOM      5  H42 UNL     1       6.121   2.231  -4.783  1.00  0.00     0.174 HD
HETATM    6  N5  UNL     1       8.263   1.881  -2.399  1.00  0.00    -0.019 N 
ATOM      7  H5  UNL     1       9.087   1.430  -2.796  1.00  0.00     0.203 HD
HETATM    8  C2  UNL     1       8.079   2.266  -1.133  1.00  0.00     0.709 A 
HETATM    9  N7  UNL     1       6.893   2.822  -0.952  1.00  0.00    -0.089 N 
ENDROOT
BRANCH   9  10
HETATM   10  C3  UNL     1       6.314   3.368   0.277  1.00  0.00     0.170 C 
BRANCH  10  11
HETATM   11  C4  UNL     1       6.813   4.737   0.577  1.00  0.00     0.022 C 
BRANCH  11  12
HETATM   12  C5  UNL     1       5.649   5.686   0.743  1.00  0.00     0.003 C 
BRANCH  12  13
HETATM   13  C6  UNL     1       5.837   7.008   0.049  1.00  0.00     0.027 C 
BRANCH  13  14
HETATM   14  C7  UNL     1       5.412   6.832  -1.395  1.00  0.00     0.229 C 
BRANCH  14  15
HETATM   15  N8  UNL     1       4.007   7.151  -1.545  1.00  0.00    -0.079 N 
ATOM     16  H83 UNL     1       3.826   8.146  -1.413  1.00  0.00     0.274 HD
ATOM     17  H82 UNL     1       3.699   7.069  -2.515  1.00  0.00     0.274 HD
ATOM     18  H81 UNL     1       3.444   6.574  -0.919  1.00  0.00     0.274 HD
ENDBRANCH  14  15
ENDBRANCH  13  14
ENDBRANCH  12  13
ENDBRANCH  11  12
ENDBRANCH  10  11
ENDBRANCH   9  10
BRANCH   1  19
HETATM   19  N2  UNL     1       5.007   3.304  -2.332  1.00  0.00     0.010 NA
BRANCH  19  20
HETATM   20  N1  UNL     1       4.076   2.314  -2.507  1.00  0.00    -0.326 N 
ATOM     21  H12 UNL     1       4.308   1.389  -2.867  1.00  0.00     0.174 HD
ATOM     22  H11 UNL     1       3.140   2.615  -2.238  1.00  0.00     0.174 HD
ENDBRANCH  19  20
ENDBRANCH   1  19
BRANCH   8  23
HETATM   23  N6  UNL     1       8.954   2.117  -0.184  1.00  0.00    -0.233 N 
ATOM     24  H62 UNL     1       9.962   2.146  -0.338  1.00  0.00     0.174 HD
ATOM     25  H61 UNL     1       8.721   1.957   0.796  1.00  0.00     0.174 HD
ENDBRANCH   8  23
TORSDOF 9
ENDMDL
