MODEL 1
REMARK VINA RESULT: -6.864014601      0.000      0.000
REMARK  7 active torsions:
REMARK  status: ('A' for Active; 'I' for Inactive)
REMARK    1  A    between atoms: C1_4  and  C2_5 
REMARK    2  A    between atoms: C2_5  and  N2_6 
REMARK    3  A    between atoms: C2_5  and  C3_10 
REMARK    4  A    between atoms: C2_5  and  C4_15 
REMARK    5  A    between atoms: C3_10  and  N3_11 
REMARK    6  A    between atoms: C4_15  and  N4_16 
REMARK    7  A    between atoms: C6_20  and  N6_21 
ROOT
HETATM    1  C2  UNL     1       6.374   3.163  -2.393  1.00  0.00     0.194 C 
ENDROOT
BRANCH   1   2
HETATM    2  C1  UNL     1       5.283   2.453  -3.110  1.00  0.00     0.095 C 
HETATM    3  N1  UNL     1       4.101   2.346  -2.693  1.00  0.00    -0.409 N 
ATOM      4  H12 UNL     1       3.893   2.784  -1.796  1.00  0.00     0.155 HD
ATOM      5  H11 UNL     1       3.352   1.859  -3.185  1.00  0.00     0.155 HD
ENDBRANCH   1   2
BRANCH   1   6
HETATM    6  N2  UNL     1       6.019   3.209  -0.964  1.00  0.00    -0.062 N 
ATOM      7  H23 UNL     1       5.095   3.608  -0.799  1.00  0.00     0.275 HD
ATOM      8  H22 UNL     1       5.840   2.285  -0.571  1.00  0.00     0.275 HD
ATOM      9  H21 UNL     1       6.759   3.711  -0.475  1.00  0.00     0.275 HD
ENDBRANCH   1   6
BRANCH   1  10
HETATM   10  C3  UNL     1       7.623   2.335  -2.526  1.00  0.00     0.275 C 
BRANCH  10  11
HETATM   11  N3  UNL     1       8.455   2.379  -1.346  1.00  0.00    -0.076 N 
ATOM     12  H33 UNL     1       8.246   3.204  -0.784  1.00  0.00     0.274 HD
ATOM     13  H32 UNL     1       8.186   1.652  -0.683  1.00  0.00     0.274 HD
ATOM     14  H31 UNL     1       9.451   2.327  -1.561  1.00  0.00     0.274 HD
ENDBRANCH  10  11
ENDBRANCH   1  10
BRANCH   1  15
HETATM   15  C4  UNL     1       6.533   4.553  -2.901  1.00  0.00     0.180 C 
BRANCH  15  16
HETATM   16  N4  UNL     1       6.172   5.589  -1.958  1.00  0.00    -0.292 N 
HETATM   17  C5  UNL     1       4.945   6.189  -2.027  1.00  0.00     0.205 A 
HETATM   18  N5  UNL     1       4.568   7.160  -1.179  1.00  0.00    -0.188 N 
HETATM   19  C6  UNL     1       5.391   7.590  -0.211  1.00  0.00     0.680 A 
ATOM     20  H5  UNL     1       3.641   7.576  -1.272  1.00  0.00     0.185 HD
HETATM   21  N7  UNL     1       6.600   7.013  -0.126  1.00  0.00    -0.141 N 
HETATM   22  C7  UNL     1       6.975   6.040  -0.979  1.00  0.00     0.341 A 
ATOM     23  H7  UNL     1       7.249   7.317   0.599  1.00  0.00     0.189 HD
HETATM   24  O1  UNL     1       8.120   5.538  -0.847  1.00  0.00    -0.246 OA
BRANCH  19  25
HETATM   25  N6  UNL     1       5.040   8.532   0.620  1.00  0.00    -0.234 N 
ATOM     26  H62 UNL     1       4.197   8.443   1.186  1.00  0.00     0.174 HD
ATOM     27  H61 UNL     1       5.591   9.383   0.732  1.00  0.00     0.174 HD
ENDBRANCH  19  25
ENDBRANCH  15  16
ENDBRANCH   1  15
TORSDOF 7
ENDMDL
MODEL 2
REMARK VINA RESULT: -6.699571852      1.379      1.826
REMARK  7 active torsions:
REMARK  status: ('A' for Active; 'I' for Inactive)
REMARK    1  A    between atoms: C1_4  and  C2_5 
REMARK    2  A    between atoms: C2_5  and  N2_6 
REMARK    3  A    between atoms: C2_5  and  C3_10 
REMARK    4  A    between atoms: C2_5  and  C4_15 
REMARK    5  A    between atoms: C3_10  and  N3_11 
REMARK    6  A    between atoms: C4_15  and  N4_16 
REMARK    7  A    between atoms: C6_20  and  N6_21 
ROOT
HETATM    1  C2  UNL     1       6.730   3.334  -1.658  1.00  0.00     0.194 C 
ENDROOT
BRANCH   1   2
HETATM    2  C1  UNL     1       6.288   2.110  -2.374  1.00  0.00     0.095 C 
HETATM    3  N1  UNL     1       5.133   1.616  -2.305  1.00  0.00    -0.409 N 
ATOM      4  H12 UNL     1       4.463   2.104  -1.711  1.00  0.00     0.155 HD
ATOM      5  H11 UNL     1       4.829   0.775  -2.796  1.00  0.00     0.155 HD
ENDBRANCH   1   2
BRANCH   1   6
HETATM    6  N2  UNL     1       6.039   3.371  -0.357  1.00  0.00    -0.062 N 
ATOM      7  H23 UNL     1       5.036   3.530  -0.447  1.00  0.00     0.275 HD
ATOM      8  H22 UNL     1       5.991   2.456   0.091  1.00  0.00     0.275 HD
ATOM      9  H21 UNL     1       6.501   4.072   0.222  1.00  0.00     0.275 HD
ENDBRANCH   1   6
BRANCH   1  10
HETATM   10  C3  UNL     1       8.203   3.199  -1.387  1.00  0.00     0.275 C 
BRANCH  10  11
HETATM   11  N3  UNL     1       8.496   2.277  -0.314  1.00  0.00    -0.076 N 
ATOM     12  H33 UNL     1       9.051   2.729   0.413  1.00  0.00     0.274 HD
ATOM     13  H32 UNL     1       7.656   2.066   0.224  1.00  0.00     0.274 HD
ATOM     14  H31 UNL     1       8.947   1.422  -0.638  1.00  0.00     0.274 HD
ENDBRANCH  10  11
ENDBRANCH   1  10
BRANCH   1  15
HETATM   15  C4  UNL     1       6.383   4.560  -2.428  1.00  0.00     0.180 C 
BRANCH  15  16
HETATM   16  N4  UNL     1       6.046   5.711  -1.619  1.00  0.00    -0.292 N 
HETATM   17  C5  UNL     1       6.912   6.161  -0.663  1.00  0.00     0.205 A 
HETATM   18  N5  UNL     1       6.640   7.219   0.117  1.00  0.00    -0.188 N 
HETATM   19  C6  UNL     1       5.486   7.893  -0.009  1.00  0.00     0.680 A 
ATOM     20  H5  UNL     1       7.321   7.516   0.817  1.00  0.00     0.185 HD
HETATM   21  N7  UNL     1       4.622   7.466  -0.944  1.00  0.00    -0.141 N 
HETATM   22  C7  UNL     1       4.899   6.404  -1.724  1.00  0.00     0.341 A 
ATOM     23  H7  UNL     1       3.737   7.957  -1.066  1.00  0.00     0.189 HD
HETATM   24  O1  UNL     1       4.049   6.055  -2.581  1.00  0.00    -0.246 OA
BRANCH  19  25
HETATM   25  N6  UNL     1       5.206   8.922   0.741  1.00  0.00    -0.234 N 
ATOM     26  H62 UNL     1       4.339   9.442   0.613  1.00  0.00     0.174 HD
ATOM     27  H61 UNL     1       5.839   9.240   1.475  1.00  0.00     0.174 HD
ENDBRANCH  19  25
ENDBRANCH  15  16
ENDBRANCH   1  15
TORSDOF 7
ENDMDL
MODEL 3
REMARK VINA RESULT: -6.694270818      1.837      2.278
REMARK  7 active torsions:
REMARK  status: ('A' for Active; 'I' for Inactive)
REMARK    1  A    between atoms: C1_4  and  C2_5 
REMARK    2  A    between atoms: C2_5  and  N2_6 
REMARK    3  A    between atoms: C2_5  and  C3_10 
REMARK    4  A    between atoms: C2_5  and  C4_15 
REMARK    5  A    between atoms: C3_10  and  N3_11 
REMARK    6  A    between atoms: C4_15  and  N4_16 
REMARK    7  A    between atoms: C6_20  and  N6_21 
ROOT
HETATM    1  C2  UNL     1       7.337   3.350  -1.565  1.00  0.00     0.194 C 
ENDROOT
BRANCH   1   2
HETATM    2  C1  UNL     1       7.723   2.456  -0.443  1.00  0.00     0.095 C 
HETATM    3  N1  UNL     1       8.287   2.836   0.615  1.00  0.00    -0.409 N 
ATOM      4  H12 UNL     1       8.485   3.833   0.693  1.00  0.00     0.155 HD
ATOM      5  H11 UNL     1       8.552   2.222   1.386  1.00  0.00     0.155 HD
ENDBRANCH   1   2
BRANCH   1   6
HETATM    6  N2  UNL     1       8.254   4.502  -1.561  1.00  0.00    -0.062 N 
ATOM      7  H23 UNL     1       8.010   5.200  -0.858  1.00  0.00     0.275 HD
ATOM      8  H22 UNL     1       9.181   4.269  -1.204  1.00  0.00     0.275 HD
ATOM      9  H21 UNL     1       8.279   4.886  -2.506  1.00  0.00     0.275 HD
ENDBRANCH   1   6
BRANCH   1  10
HETATM   10  C3  UNL     1       7.558   2.597  -2.848  1.00  0.00     0.275 C 
BRANCH  10  11
HETATM   11  N3  UNL     1       8.256   1.347  -2.654  1.00  0.00    -0.076 N 
ATOM     12  H33 UNL     1       9.064   1.473  -2.045  1.00  0.00     0.274 HD
ATOM     13  H32 UNL     1       7.708   0.710  -2.075  1.00  0.00     0.274 HD
ATOM     14  H31 UNL     1       8.526   0.903  -3.531  1.00  0.00     0.274 HD
ENDBRANCH  10  11
ENDBRANCH   1  10
BRANCH   1  15
HETATM   15  C4  UNL     1       5.939   3.839  -1.404  1.00  0.00     0.180 C 
BRANCH  15  16
HETATM   16  N4  UNL     1       5.822   5.171  -0.851  1.00  0.00    -0.292 N 
HETATM   17  C5  UNL     1       5.772   6.260  -1.675  1.00  0.00     0.205 A 
HETATM   18  N5  UNL     1       5.672   7.515  -1.208  1.00  0.00    -0.188 N 
HETATM   19  C6  UNL     1       5.614   7.759   0.111  1.00  0.00     0.680 A 
ATOM     20  H5  UNL     1       5.638   8.295  -1.865  1.00  0.00     0.185 HD
HETATM   21  N7  UNL     1       5.661   6.702   0.937  1.00  0.00    -0.141 N 
HETATM   22  C7  UNL     1       5.763   5.445   0.464  1.00  0.00     0.341 A 
ATOM     23  H7  UNL     1       5.619   6.853   1.944  1.00  0.00     0.189 HD
HETATM   24  O1  UNL     1       5.801   4.498   1.289  1.00  0.00    -0.246 OA
BRANCH  19  25
HETATM   25  N6  UNL     1       5.517   8.972   0.581  1.00  0.00    -0.234 N 
ATOM     26  H62 UNL     1       4.800   9.610   0.238  1.00  0.00     0.174 HD
ATOM     27  H61 UNL     1       6.149   9.321   1.301  1.00  0.00     0.174 HD
ENDBRANCH  19  25
ENDBRANCH  15  16
ENDBRANCH   1  15
TORSDOF 7
ENDMDL
MODEL 4
REMARK VINA RESULT: -6.621781024      1.082      1.324
REMARK  7 active torsions:
REMARK  status: ('A' for Active; 'I' for Inactive)
REMARK    1  A    between atoms: C1_4  and  C2_5 
REMARK    2  A    between atoms: C2_5  and  N2_6 
REMARK    3  A    between atoms: C2_5  and  C3_10 
REMARK    4  A    between atoms: C2_5  and  C4_15 
REMARK    5  A    between atoms: C3_10  and  N3_11 
REMARK    6  A    between atoms: C4_15  and  N4_16 
REMARK    7  A    between atoms: C6_20  and  N6_21 
ROOT
HETATM    1  C2  UNL     1       5.898   3.392  -2.700  1.00  0.00     0.194 C 
ENDROOT
BRANCH   1   2
HETATM    2  C1  UNL     1       6.596   2.359  -3.508  1.00  0.00     0.095 C 
HETATM    3  N1  UNL     1       6.651   2.347  -4.765  1.00  0.00    -0.409 N 
ATOM      4  H12 UNL     1       6.177   3.109  -5.249  1.00  0.00     0.155 HD
ATOM      5  H11 UNL     1       7.130   1.638  -5.320  1.00  0.00     0.155 HD
ENDBRANCH   1   2
BRANCH   1   6
HETATM    6  N2  UNL     1       4.473   3.367  -3.070  1.00  0.00    -0.062 N 
ATOM      7  H23 UNL     1       4.191   2.486  -3.500  1.00  0.00     0.275 HD
ATOM      8  H22 UNL     1       3.855   3.325  -2.259  1.00  0.00     0.275 HD
ATOM      9  H21 UNL     1       4.290   4.175  -3.665  1.00  0.00     0.275 HD
ENDBRANCH   1   6
BRANCH   1  10
HETATM   10  C3  UNL     1       6.001   2.989  -1.255  1.00  0.00     0.275 C 
BRANCH  10  11
HETATM   11  N3  UNL     1       7.324   2.540  -0.888  1.00  0.00    -0.076 N 
ATOM     12  H33 UNL     1       7.933   2.495  -1.705  1.00  0.00     0.274 HD
ATOM     13  H32 UNL     1       7.817   3.256  -0.353  1.00  0.00     0.274 HD
ATOM     14  H31 UNL     1       7.318   1.651  -0.389  1.00  0.00     0.274 HD
ENDBRANCH  10  11
ENDBRANCH   1  10
BRANCH   1  15
HETATM   15  C4  UNL     1       6.448   4.749  -2.973  1.00  0.00     0.180 C 
BRANCH  15  16
HETATM   16  N4  UNL     1       6.104   5.753  -1.990  1.00  0.00    -0.292 N 
HETATM   17  C5  UNL     1       4.885   6.370  -2.031  1.00  0.00     0.205 A 
HETATM   18  N5  UNL     1       4.524   7.312  -1.145  1.00  0.00    -0.188 N 
HETATM   19  C6  UNL     1       5.356   7.696  -0.166  1.00  0.00     0.680 A 
ATOM     20  H5  UNL     1       3.601   7.743  -1.218  1.00  0.00     0.185 HD
HETATM   21  N7  UNL     1       6.558   7.101  -0.109  1.00  0.00    -0.141 N 
HETATM   22  C7  UNL     1       6.917   6.157  -0.999  1.00  0.00     0.341 A 
ATOM     23  H7  UNL     1       7.214   7.370   0.625  1.00  0.00     0.189 HD
HETATM   24  O1  UNL     1       8.056   5.636  -0.891  1.00  0.00    -0.246 OA
BRANCH  19  25
HETATM   25  N6  UNL     1       5.020   8.611   0.702  1.00  0.00    -0.234 N 
ATOM     26  H62 UNL     1       4.876   9.578   0.413  1.00  0.00     0.174 HD
ATOM     27  H61 UNL     1       4.891   8.392   1.690  1.00  0.00     0.174 HD
ENDBRANCH  19  25
ENDBRANCH  15  16
ENDBRANCH   1  15
TORSDOF 7
ENDMDL
MODEL 5
REMARK VINA RESULT: -6.604177624      1.548      2.270
REMARK  7 active torsions:
REMARK  status: ('A' for Active; 'I' for Inactive)
REMARK    1  A    between atoms: C1_4  and  C2_5 
REMARK    2  A    between atoms: C2_5  and  N2_6 
REMARK    3  A    between atoms: C2_5  and  C3_10 
REMARK    4  A    between atoms: C2_5  and  C4_15 
REMARK    5  A    between atoms: C3_10  and  N3_11 
REMARK    6  A    between atoms: C4_15  and  N4_16 
REMARK    7  A    between atoms: C6_20  and  N6_21 
ROOT
HETATM    1  C2  UNL     1       7.152   2.811  -1.797  1.00  0.00     0.194 C 
ENDROOT
BRANCH   1   2
HETATM    2  C1  UNL     1       7.525   1.678  -2.682  1.00  0.00     0.095 C 
HETATM    3  N1  UNL     1       8.697   1.250  -2.845  1.00  0.00    -0.409 N 
ATOM      4  H12 UNL     1       9.432   1.726  -2.323  1.00  0.00     0.155 HD
ATOM      5  H11 UNL     1       8.953   0.472  -3.453  1.00  0.00     0.155 HD
ENDBRANCH   1   2
BRANCH   1   6
HETATM    6  N2  UNL     1       5.856   2.490  -1.175  1.00  0.00    -0.062 N 
ATOM      7  H23 UNL     1       5.444   1.631  -1.540  1.00  0.00     0.275 HD
ATOM      8  H22 UNL     1       5.946   2.194  -0.203  1.00  0.00     0.275 HD
ATOM      9  H21 UNL     1       5.246   3.300  -1.287  1.00  0.00     0.275 HD
ENDBRANCH   1   6
BRANCH   1  10
HETATM   10  C3  UNL     1       8.177   2.890  -0.699  1.00  0.00     0.275 C 
BRANCH  10  11
HETATM   11  N3  UNL     1       7.861   2.044   0.428  1.00  0.00    -0.076 N 
ATOM     12  H33 UNL     1       7.309   2.550   1.120  1.00  0.00     0.274 HD
ATOM     13  H32 UNL     1       7.184   1.327   0.167  1.00  0.00     0.274 HD
ATOM     14  H31 UNL     1       8.688   1.627   0.856  1.00  0.00     0.274 HD
ENDBRANCH  10  11
ENDBRANCH   1  10
BRANCH   1  15
HETATM   15  C4  UNL     1       7.021   4.076  -2.571  1.00  0.00     0.180 C 
BRANCH  15  16
HETATM   16  N4  UNL     1       6.467   5.188  -1.829  1.00  0.00    -0.292 N 
HETATM   17  C5  UNL     1       7.263   5.932  -1.003  1.00  0.00     0.205 A 
HETATM   18  N5  UNL     1       6.793   6.967  -0.289  1.00  0.00    -0.188 N 
HETATM   19  C6  UNL     1       5.501   7.323  -0.355  1.00  0.00     0.680 A 
ATOM     20  H5  UNL     1       7.428   7.492   0.313  1.00  0.00     0.185 HD
HETATM   21  N7  UNL     1       4.703   6.604  -1.161  1.00  0.00    -0.141 N 
HETATM   22  C7  UNL     1       5.178   5.566  -1.875  1.00  0.00     0.341 A 
ATOM     23  H7  UNL     1       3.716   6.850  -1.234  1.00  0.00     0.189 HD
HETATM   24  O1  UNL     1       4.381   4.934  -2.613  1.00  0.00    -0.246 OA
BRANCH  19  25
HETATM   25  N6  UNL     1       5.029   8.326   0.333  1.00  0.00    -0.234 N 
ATOM     26  H62 UNL     1       4.306   8.932  -0.054  1.00  0.00     0.174 HD
ATOM     27  H61 UNL     1       5.362   8.536   1.274  1.00  0.00     0.174 HD
ENDBRANCH  19  25
ENDBRANCH  15  16
ENDBRANCH   1  15
TORSDOF 7
ENDMDL
