MODEL 1
REMARK VINA RESULT: -7.791893684      0.000      0.000
REMARK  7 active torsions:
REMARK  status: ('A' for Active; 'I' for Inactive)
REMARK    1  A    between atoms: N1_2  and  N2_4 
REMARK    2  A    between atoms: C3_9  and  N4_10 
REMARK    3  A    between atoms: C4_15  and  N6_16 
REMARK    4  A    between atoms: N6_16  and  C5_18 
REMARK    5  A    between atoms: C5_18  and  C6_19 
REMARK    6  A    between atoms: C6_19  and  N7_20 
REMARK    7  A    between atoms: N7_20  and  N8_21 
ROOT
HETATM    1  N2  UNL     1       5.743   5.750  -1.498  1.00  0.00    -0.035 N 
HETATM    2  C2  UNL     1       4.811   6.673  -1.661  1.00  0.00     0.374 A 
HETATM    3  O1  UNL     1       3.927   6.606  -2.575  1.00  0.00    -0.244 OA
HETATM    4  N3  UNL     1       4.693   7.784  -0.878  1.00  0.00    -0.139 N 
ATOM      5  H3  UNL     1       3.956   8.468  -1.044  1.00  0.00     0.189 HD
HETATM    6  C3  UNL     1       5.580   7.948   0.116  1.00  0.00     0.694 A 
HETATM    7  N5  UNL     1       6.540   7.036   0.316  1.00  0.00    -0.021 N 
ATOM      8  H5  UNL     1       7.212   7.162   1.074  1.00  0.00     0.203 HD
HETATM    9  C4  UNL     1       6.622   5.955  -0.476  1.00  0.00     0.718 A 
ENDROOT
BRANCH   9  10
HETATM   10  N6  UNL     1       7.536   5.061  -0.307  1.00  0.00    -0.222 N 
ATOM     11  H6  UNL     1       8.413   5.114  -0.825  1.00  0.00     0.177 HD
BRANCH  10  12
HETATM   12  C5  UNL     1       7.302   3.997   0.614  1.00  0.00     0.156 C 
BRANCH  12  13
HETATM   13  C6  UNL     1       7.834   2.674   0.115  1.00  0.00     0.154 C 
BRANCH  13  14
HETATM   14  N7  UNL     1       9.215   2.738  -0.282  1.00  0.00    -0.147 NA
BRANCH  14  15
HETATM   15  N8  UNL     1       9.325   2.096  -1.522  1.00  0.00    -0.348 N 
ATOM     16  H82 UNL     1       8.648   2.157  -2.282  1.00  0.00     0.172 HD
ATOM     17  H81 UNL     1      10.197   1.566  -1.515  1.00  0.00     0.172 HD
ENDBRANCH  14  15
ENDBRANCH  13  14
ENDBRANCH  12  13
ENDBRANCH  10  12
ENDBRANCH   9  10
BRANCH   1  18
HETATM   18  N1  UNL     1       5.826   4.633  -2.316  1.00  0.00    -0.316 N 
HETATM   19  C1  UNL     1       6.589   4.537  -3.529  1.00  0.00     0.169 C 
ATOM     20  H1  UNL     1       5.300   3.807  -2.031  1.00  0.00     0.180 HD
ENDBRANCH   1  18
BRANCH   6  21
HETATM   21  N4  UNL     1       5.477   9.012   0.874  1.00  0.00    -0.234 N 
ATOM     22  H42 UNL     1       6.108   9.806   0.768  1.00  0.00     0.174 HD
ATOM     23  H41 UNL     1       4.743   9.033   1.582  1.00  0.00     0.174 HD
ENDBRANCH   6  21
TORSDOF 7
ENDMDL
MODEL 2
REMARK VINA RESULT: -6.839414696      1.095      3.082
REMARK  7 active torsions:
REMARK  status: ('A' for Active; 'I' for Inactive)
REMARK    1  A    between atoms: N1_2  and  N2_4 
REMARK    2  A    between atoms: C3_9  and  N4_10 
REMARK    3  A    between atoms: C4_15  and  N6_16 
REMARK    4  A    between atoms: N6_16  and  C5_18 
REMARK    5  A    between atoms: C5_18  and  C6_19 
REMARK    6  A    between atoms: C6_19  and  N7_20 
REMARK    7  A    between atoms: N7_20  and  N8_21 
ROOT
HETATM    1  N2  UNL     1       5.737   6.341  -1.100  1.00  0.00    -0.035 N 
HETATM    2  C2  UNL     1       4.652   6.506  -1.837  1.00  0.00     0.374 A 
HETATM    3  O1  UNL     1       3.987   7.592  -1.852  1.00  0.00    -0.244 OA
HETATM    4  N3  UNL     1       4.130   5.544  -2.652  1.00  0.00    -0.139 N 
ATOM      5  H3  UNL     1       3.290   5.720  -3.202  1.00  0.00     0.189 HD
HETATM    6  C3  UNL     1       4.759   4.359  -2.708  1.00  0.00     0.694 A 
HETATM    7  N5  UNL     1       5.863   4.150  -1.977  1.00  0.00    -0.021 N 
ATOM      8  H5  UNL     1       6.339   3.250  -2.022  1.00  0.00     0.203 HD
HETATM    9  C4  UNL     1       6.345   5.122  -1.187  1.00  0.00     0.718 A 
ENDROOT
BRANCH   9  10
HETATM   10  N6  UNL     1       7.404   4.950  -0.473  1.00  0.00    -0.222 N 
ATOM     11  H6  UNL     1       8.252   5.482  -0.668  1.00  0.00     0.177 HD
BRANCH  10  12
HETATM   12  C5  UNL     1       7.373   4.003   0.595  1.00  0.00     0.156 C 
BRANCH  12  13
HETATM   13  C6  UNL     1       7.916   2.655   0.186  1.00  0.00     0.154 C 
BRANCH  13  14
HETATM   14  N7  UNL     1       9.253   2.723  -0.339  1.00  0.00    -0.147 NA
BRANCH  14  15
HETATM   15  N8  UNL     1       9.258   2.046  -1.565  1.00  0.00    -0.348 N 
ATOM     16  H82 UNL     1       8.727   1.201  -1.777  1.00  0.00     0.172 HD
ATOM     17  H81 UNL     1       9.883   2.554  -2.192  1.00  0.00     0.172 HD
ENDBRANCH  14  15
ENDBRANCH  13  14
ENDBRANCH  12  13
ENDBRANCH  10  12
ENDBRANCH   9  10
BRANCH   1  18
HETATM   18  N1  UNL     1       6.235   7.346  -0.284  1.00  0.00    -0.316 N 
HETATM   19  C1  UNL     1       5.544   7.950   0.819  1.00  0.00     0.169 C 
ATOM     20  H1  UNL     1       7.176   7.685  -0.486  1.00  0.00     0.180 HD
ENDBRANCH   1  18
BRANCH   6  21
HETATM   21  N4  UNL     1       4.267   3.429  -3.487  1.00  0.00    -0.234 N 
ATOM     22  H42 UNL     1       4.336   3.491  -4.502  1.00  0.00     0.174 HD
ATOM     23  H41 UNL     1       3.805   2.629  -3.054  1.00  0.00     0.174 HD
ENDBRANCH   6  21
TORSDOF 7
ENDMDL
MODEL 3
REMARK VINA RESULT: -6.685000431      2.695      5.484
REMARK  7 active torsions:
REMARK  status: ('A' for Active; 'I' for Inactive)
REMARK    1  A    between atoms: N1_2  and  N2_4 
REMARK    2  A    between atoms: C3_9  and  N4_10 
REMARK    3  A    between atoms: C4_15  and  N6_16 
REMARK    4  A    between atoms: N6_16  and  C5_18 
REMARK    5  A    between atoms: C5_18  and  C6_19 
REMARK    6  A    between atoms: C6_19  and  N7_20 
REMARK    7  A    between atoms: N7_20  and  N8_21 
ROOT
HETATM    1  N2  UNL     1       7.334   2.697  -3.415  1.00  0.00    -0.035 N 
HETATM    2  C2  UNL     1       8.261   1.856  -2.990  1.00  0.00     0.374 A 
HETATM    3  O1  UNL     1       8.891   1.072  -3.771  1.00  0.00    -0.244 OA
HETATM    4  N3  UNL     1       8.642   1.737  -1.685  1.00  0.00    -0.139 N 
ATOM      5  H3  UNL     1       9.363   1.073  -1.406  1.00  0.00     0.189 HD
HETATM    6  C3  UNL     1       8.036   2.522  -0.780  1.00  0.00     0.694 A 
HETATM    7  N5  UNL     1       7.091   3.389  -1.169  1.00  0.00    -0.021 N 
ATOM      8  H5  UNL     1       6.633   3.985  -0.479  1.00  0.00     0.203 HD
HETATM    9  C4  UNL     1       6.745   3.476  -2.463  1.00  0.00     0.718 A 
ENDROOT
BRANCH   9  10
HETATM   10  N6  UNL     1       5.839   4.300  -2.866  1.00  0.00    -0.222 N 
ATOM     11  H6  UNL     1       5.279   4.090  -3.692  1.00  0.00     0.177 HD
BRANCH  10  12
HETATM   12  C5  UNL     1       5.631   5.511  -2.138  1.00  0.00     0.156 C 
BRANCH  12  13
HETATM   13  C6  UNL     1       4.198   5.984  -2.204  1.00  0.00     0.154 C 
BRANCH  13  14
HETATM   14  N7  UNL     1       4.049   7.374  -1.866  1.00  0.00    -0.147 NA
BRANCH  14  15
HETATM   15  N8  UNL     1       4.788   7.603  -0.699  1.00  0.00    -0.348 N 
ATOM     16  H82 UNL     1       4.918   8.510  -0.249  1.00  0.00     0.172 HD
ATOM     17  H81 UNL     1       5.164   6.705  -0.393  1.00  0.00     0.172 HD
ENDBRANCH  14  15
ENDBRANCH  13  14
ENDBRANCH  12  13
ENDBRANCH  10  12
ENDBRANCH   9  10
BRANCH   1  18
HETATM   18  N1  UNL     1       6.977   2.788  -4.752  1.00  0.00    -0.316 N 
HETATM   19  C1  UNL     1       5.868   2.120  -5.371  1.00  0.00     0.169 C 
ATOM     20  H1  UNL     1       7.554   3.382  -5.348  1.00  0.00     0.180 HD
ENDBRANCH   1  18
BRANCH   6  21
HETATM   21  N4  UNL     1       8.393   2.415   0.476  1.00  0.00    -0.234 N 
ATOM     22  H42 UNL     1       8.970   1.640   0.803  1.00  0.00     0.174 HD
ATOM     23  H41 UNL     1       8.079   3.131   1.132  1.00  0.00     0.174 HD
ENDBRANCH   6  21
TORSDOF 7
ENDMDL
MODEL 4
REMARK VINA RESULT: -6.627676690      2.695      5.896
REMARK  7 active torsions:
REMARK  status: ('A' for Active; 'I' for Inactive)
REMARK    1  A    between atoms: N1_2  and  N2_4 
REMARK    2  A    between atoms: C3_9  and  N4_10 
REMARK    3  A    between atoms: C4_15  and  N6_16 
REMARK    4  A    between atoms: N6_16  and  C5_18 
REMARK    5  A    between atoms: C5_18  and  C6_19 
REMARK    6  A    between atoms: C6_19  and  N7_20 
REMARK    7  A    between atoms: N7_20  and  N8_21 
ROOT
HETATM    1  N2  UNL     1       7.032   2.886  -0.760  1.00  0.00    -0.035 N 
HETATM    2  C2  UNL     1       8.309   2.553  -0.712  1.00  0.00     0.374 A 
HETATM    3  O1  UNL     1       9.046   2.787   0.300  1.00  0.00    -0.244 OA
HETATM    4  N3  UNL     1       8.973   1.929  -1.728  1.00  0.00    -0.139 N 
ATOM      5  H3  UNL     1       9.961   1.691  -1.643  1.00  0.00     0.189 HD
HETATM    6  C3  UNL     1       8.284   1.638  -2.843  1.00  0.00     0.694 A 
HETATM    7  N5  UNL     1       6.986   1.958  -2.932  1.00  0.00    -0.021 N 
ATOM      8  H5  UNL     1       6.465   1.735  -3.780  1.00  0.00     0.203 HD
HETATM    9  C4  UNL     1       6.369   2.572  -1.910  1.00  0.00     0.718 A 
ENDROOT
BRANCH   9  10
HETATM   10  N6  UNL     1       5.121   2.893  -1.968  1.00  0.00    -0.222 N 
ATOM     11  H6  UNL     1       4.461   2.529  -1.281  1.00  0.00     0.177 HD
BRANCH  10  12
HETATM   12  C5  UNL     1       4.678   3.763  -3.009  1.00  0.00     0.156 C 
BRANCH  12  13
HETATM   13  C6  UNL     1       4.880   5.220  -2.666  1.00  0.00     0.154 C 
BRANCH  13  14
HETATM   14  N7  UNL     1       3.819   5.760  -1.859  1.00  0.00    -0.147 NA
BRANCH  14  15
HETATM   15  N8  UNL     1       4.092   7.118  -1.660  1.00  0.00    -0.348 N 
ATOM     16  H82 UNL     1       3.626   7.723  -0.983  1.00  0.00     0.172 HD
ATOM     17  H81 UNL     1       4.834   7.379  -2.310  1.00  0.00     0.172 HD
ENDBRANCH  14  15
ENDBRANCH  13  14
ENDBRANCH  12  13
ENDBRANCH  10  12
ENDBRANCH   9  10
BRANCH   1  18
HETATM   18  N1  UNL     1       6.394   3.519   0.297  1.00  0.00    -0.316 N 
HETATM   19  C1  UNL     1       6.445   4.924   0.587  1.00  0.00     0.169 C 
ATOM     20  H1  UNL     1       5.839   2.936   0.923  1.00  0.00     0.180 HD
ENDBRANCH   1  18
BRANCH   6  21
HETATM   21  N4  UNL     1       8.912   1.039  -3.825  1.00  0.00    -0.234 N 
ATOM     22  H42 UNL     1       8.980   1.461  -4.750  1.00  0.00     0.174 HD
ATOM     23  H41 UNL     1       9.337   0.130  -3.645  1.00  0.00     0.174 HD
ENDBRANCH   6  21
TORSDOF 7
ENDMDL
MODEL 5
REMARK VINA RESULT: -6.439319498      1.956      4.704
REMARK  7 active torsions:
REMARK  status: ('A' for Active; 'I' for Inactive)
REMARK    1  A    between atoms: N1_2  and  N2_4 
REMARK    2  A    between atoms: C3_9  and  N4_10 
REMARK    3  A    between atoms: C4_15  and  N6_16 
REMARK    4  A    between atoms: N6_16  and  C5_18 
REMARK    5  A    between atoms: C5_18  and  C6_19 
REMARK    6  A    between atoms: C6_19  and  N7_20 
REMARK    7  A    between atoms: N7_20  and  N8_21 
ROOT
HETATM    1  N2  UNL     1       7.218   4.856  -2.152  1.00  0.00    -0.035 N 
HETATM    2  C2  UNL     1       7.305   3.611  -2.584  1.00  0.00     0.374 A 
HETATM    3  O1  UNL     1       7.205   3.299  -3.815  1.00  0.00    -0.244 OA
HETATM    4  N3  UNL     1       7.509   2.534  -1.772  1.00  0.00    -0.139 N 
ATOM      5  H3  UNL     1       7.570   1.590  -2.153  1.00  0.00     0.189 HD
HETATM    6  C3  UNL     1       7.628   2.756  -0.453  1.00  0.00     0.694 A 
HETATM    7  N5  UNL     1       7.547   4.004   0.027  1.00  0.00    -0.021 N 
ATOM      8  H5  UNL     1       7.638   4.170   1.030  1.00  0.00     0.203 HD
HETATM    9  C4  UNL     1       7.345   5.037  -0.806  1.00  0.00     0.718 A 
ENDROOT
BRANCH   9  10
HETATM   10  N6  UNL     1       7.261   6.249  -0.372  1.00  0.00    -0.222 N 
ATOM     11  H6  UNL     1       7.990   6.928  -0.591  1.00  0.00     0.177 HD
BRANCH  10  12
HETATM   12  C5  UNL     1       6.134   6.625   0.419  1.00  0.00     0.156 C 
BRANCH  12  13
HETATM   13  C6  UNL     1       5.463   7.878  -0.093  1.00  0.00     0.154 C 
BRANCH  13  14
HETATM   14  N7  UNL     1       5.146   7.813  -1.495  1.00  0.00    -0.147 NA
BRANCH  14  15
HETATM   15  N8  UNL     1       3.943   7.109  -1.621  1.00  0.00    -0.348 N 
ATOM     16  H82 UNL     1       3.204   7.067  -0.918  1.00  0.00     0.172 HD
ATOM     17  H81 UNL     1       3.949   6.654  -2.534  1.00  0.00     0.172 HD
ENDBRANCH  14  15
ENDBRANCH  13  14
ENDBRANCH  12  13
ENDBRANCH  10  12
ENDBRANCH   9  10
BRANCH   1  18
HETATM   18  N1  UNL     1       7.010   5.924  -3.013  1.00  0.00    -0.316 N 
HETATM   19  C1  UNL     1       8.031   6.631  -3.733  1.00  0.00     0.169 C 
ATOM     20  H1  UNL     1       6.048   6.234  -3.146  1.00  0.00     0.180 HD
ENDBRANCH   1  18
BRANCH   6  21
HETATM   21  N4  UNL     1       7.824   1.729   0.337  1.00  0.00    -0.234 N 
ATOM     22  H42 UNL     1       7.235   0.898   0.288  1.00  0.00     0.174 HD
ATOM     23  H41 UNL     1       8.588   1.776   1.012  1.00  0.00     0.174 HD
ENDBRANCH   6  21
TORSDOF 7
ENDMDL
