MODEL 1
REMARK VINA RESULT: -6.515008617      0.000      0.000
REMARK  14 active torsions:
REMARK  status: ('A' for Active; 'I' for Inactive)
REMARK    1  A    between atoms: C3_3  and  O1_6 
REMARK    2  A    between atoms: O1_6  and  C6_7 
REMARK    3  A    between atoms: C6_7  and  C7_9 
REMARK    4  A    between atoms: C7_9  and  O3_10 
REMARK    5  A    between atoms: O3_10  and  C8_11 
REMARK    6  A    between atoms: C8_11  and  C9_13 
REMARK    7  A    between atoms: C9_13  and  C10_14 
REMARK    8  A    between atoms: C10_14  and  C11_15 
REMARK    9  A    between atoms: C11_15  and  C12_16 
REMARK   10  A    between atoms: C12_16  and  O6_18 
REMARK   11  A    between atoms: O6_18  and  N1_19 
REMARK       I    between atoms: N1_19  and  C13_21 
REMARK       I    between atoms: C13_21  and  N3_28 
REMARK   12  A    between atoms: N2_22  and  C14_24 
REMARK   13  A    between atoms: C14_24  and  C15_25 
REMARK   14  A    between atoms: C15_25  and  C16_26 
ROOT
HETATM    1  C1  UNL     1      39.467 162.228  61.141  1.00  0.00     0.015 C 
HETATM    2  C2  UNL     1      39.954 162.557  60.089  1.00  0.00    -0.079 C 
HETATM    3  C3  UNL     1      40.563 162.971  58.829  1.00  0.00     0.125 C 
HETATM    4  C4  UNL     1      40.197 161.996  57.762  1.00  0.00     0.061 C 
HETATM    5  C5  UNL     1      42.069 162.914  59.025  1.00  0.00     0.061 C 
ENDROOT
BRANCH   3   6
HETATM    6  O1  UNL     1      40.249 164.309  58.521  1.00  0.00    -0.296 OA
BRANCH   6   7
HETATM    7  C6  UNL     1      38.958 164.764  58.245  1.00  0.00     0.284 C 
HETATM    8  O2  UNL     1      38.336 165.251  59.226  1.00  0.00    -0.263 OA
BRANCH   7   9
HETATM    9  C7  UNL     1      38.329 164.700  56.914  1.00  0.00     0.289 C 
BRANCH   9  10
HETATM   10  O3  UNL     1      37.502 163.599  56.724  1.00  0.00    -0.312 OA
BRANCH  10  11
HETATM   11  C8  UNL     1      36.173 163.522  57.026  1.00  0.00     0.259 C 
HETATM   12  O4  UNL     1      35.473 164.563  56.986  1.00  0.00    -0.265 OA
BRANCH  11  13
HETATM   13  C9  UNL     1      35.467 162.252  57.414  1.00  0.00     0.111 C 
BRANCH  13  14
HETATM   14  C10 UNL     1      36.524 161.178  57.406  1.00  0.00     0.019 C 
BRANCH  14  15
HETATM   15  C11 UNL     1      36.722 160.483  58.704  1.00  0.00     0.113 C 
BRANCH  15  16
HETATM   16  C12 UNL     1      36.451 159.024  58.669  1.00  0.00     0.281 C 
HETATM   17  O5  UNL     1      36.525 158.321  57.629  1.00  0.00    -0.263 OA
BRANCH  16  18
HETATM   18  O6  UNL     1      36.086 158.341  59.843  1.00  0.00    -0.185 OA
BRANCH  18  19
HETATM   19  N1  UNL     1      34.824 158.522  60.346  1.00  0.00    -0.088 N 
HETATM   20  C13 UNL     1      33.718 157.939  59.667  1.00  0.00     0.693 C 
HETATM   21  N2  UNL     1      32.827 158.695  59.116  1.00  0.00    -0.225 N 
HETATM   22  N3  UNL     1      33.643 156.519  59.627  1.00  0.00    -0.229 N 
ATOM     23  H2  UNL     1      32.034 158.276  58.630  1.00  0.00     0.177 HD
HETATM   24  C18 UNL     1      34.147 155.725  58.527  1.00  0.00     0.165 C 
ATOM     25  H3  UNL     1      33.212 156.035  60.414  1.00  0.00     0.177 HD
ATOM     26  H1  UNL     1      34.680 159.067  61.195  1.00  0.00     0.213 HD
BRANCH  21  27
HETATM   27  C14 UNL     1      32.952 160.124  59.185  1.00  0.00     0.138 C 
BRANCH  27  28
HETATM   28  C15 UNL     1      32.235 160.719  58.007  1.00  0.00     0.020 C 
BRANCH  28  29
HETATM   29  C16 UNL     1      31.359 161.882  58.365  1.00  0.00    -0.003 C 
HETATM   30  C17 UNL     1      30.646 161.731  59.667  1.00  0.00     0.005 C 
ENDBRANCH  28  29
ENDBRANCH  27  28
ENDBRANCH  21  27
ENDBRANCH  18  19
ENDBRANCH  16  18
ENDBRANCH  15  16
ENDBRANCH  14  15
ENDBRANCH  13  14
ENDBRANCH  11  13
ENDBRANCH  10  11
ENDBRANCH   9  10
ENDBRANCH   7   9
ENDBRANCH   6   7
ENDBRANCH   3   6
TORSDOF 14
ENDMDL
MODEL 2
REMARK VINA RESULT: -6.463858578      2.399      3.919
REMARK  14 active torsions:
REMARK  status: ('A' for Active; 'I' for Inactive)
REMARK    1  A    between atoms: C3_3  and  O1_6 
REMARK    2  A    between atoms: O1_6  and  C6_7 
REMARK    3  A    between atoms: C6_7  and  C7_9 
REMARK    4  A    between atoms: C7_9  and  O3_10 
REMARK    5  A    between atoms: O3_10  and  C8_11 
REMARK    6  A    between atoms: C8_11  and  C9_13 
REMARK    7  A    between atoms: C9_13  and  C10_14 
REMARK    8  A    between atoms: C10_14  and  C11_15 
REMARK    9  A    between atoms: C11_15  and  C12_16 
REMARK   10  A    between atoms: C12_16  and  O6_18 
REMARK   11  A    between atoms: O6_18  and  N1_19 
REMARK       I    between atoms: N1_19  and  C13_21 
REMARK       I    between atoms: C13_21  and  N3_28 
REMARK   12  A    between atoms: N2_22  and  C14_24 
REMARK   13  A    between atoms: C14_24  and  C15_25 
REMARK   14  A    between atoms: C15_25  and  C16_26 
ROOT
HETATM    1  C1  UNL     1      38.769 164.750  58.512  1.00  0.00     0.015 C 
HETATM    2  C2  UNL     1      39.674 163.961  58.407  1.00  0.00    -0.079 C 
HETATM    3  C3  UNL     1      40.765 163.004  58.254  1.00  0.00     0.125 C 
HETATM    4  C4  UNL     1      41.694 163.126  59.413  1.00  0.00     0.061 C 
HETATM    5  C5  UNL     1      41.524 163.396  56.996  1.00  0.00     0.061 C 
ENDROOT
BRANCH   3   6
HETATM    6  O1  UNL     1      40.279 161.700  58.038  1.00  0.00    -0.296 OA
BRANCH   6   7
HETATM    7  C6  UNL     1      39.354 161.064  58.871  1.00  0.00     0.284 C 
HETATM    8  O2  UNL     1      39.790 160.731  60.004  1.00  0.00    -0.263 OA
BRANCH   7   9
HETATM    9  C7  UNL     1      37.959 160.785  58.489  1.00  0.00     0.289 C 
BRANCH   9  10
HETATM   10  O3  UNL     1      37.426 159.637  59.065  1.00  0.00    -0.312 OA
BRANCH  10  11
HETATM   11  C8  UNL     1      37.605 158.355  58.633  1.00  0.00     0.259 C 
HETATM   12  O4  UNL     1      38.474 157.637  59.184  1.00  0.00    -0.265 OA
BRANCH  11  13
HETATM   13  C9  UNL     1      36.820 157.722  57.518  1.00  0.00     0.111 C 
BRANCH  13  14
HETATM   14  C10 UNL     1      35.407 158.221  57.678  1.00  0.00     0.019 C 
BRANCH  14  15
HETATM   15  C11 UNL     1      34.680 157.680  58.856  1.00  0.00     0.113 C 
BRANCH  15  16
HETATM   16  C12 UNL     1      33.983 158.704  59.674  1.00  0.00     0.281 C 
HETATM   17  O5  UNL     1      34.572 159.529  60.417  1.00  0.00    -0.263 OA
BRANCH  16  18
HETATM   18  O6  UNL     1      32.580 158.796  59.651  1.00  0.00    -0.185 OA
BRANCH  18  19
HETATM   19  N1  UNL     1      32.000 159.878  59.041  1.00  0.00    -0.088 N 
HETATM   20  C13 UNL     1      32.000 159.953  57.620  1.00  0.00     0.693 C 
HETATM   21  N2  UNL     1      32.668 160.884  57.023  1.00  0.00    -0.225 N 
HETATM   22  N3  UNL     1      31.247 158.979  56.909  1.00  0.00    -0.229 N 
ATOM     23  H2  UNL     1      32.667 160.938  56.004  1.00  0.00     0.177 HD
HETATM   24  C18 UNL     1      31.817 157.756  56.384  1.00  0.00     0.165 C 
ATOM     25  H3  UNL     1      30.252 159.151  56.760  1.00  0.00     0.177 HD
ATOM     26  H1  UNL     1      31.575 160.619  59.598  1.00  0.00     0.213 HD
BRANCH  21  27
HETATM   27  C14 UNL     1      33.413 161.842  57.790  1.00  0.00     0.138 C 
BRANCH  27  28
HETATM   28  C15 UNL     1      33.702 163.028  56.913  1.00  0.00     0.020 C 
BRANCH  28  29
HETATM   29  C16 UNL     1      35.045 163.645  57.166  1.00  0.00    -0.003 C 
HETATM   30  C17 UNL     1      34.986 165.037  57.700  1.00  0.00     0.005 C 
ENDBRANCH  28  29
ENDBRANCH  27  28
ENDBRANCH  21  27
ENDBRANCH  18  19
ENDBRANCH  16  18
ENDBRANCH  15  16
ENDBRANCH  14  15
ENDBRANCH  13  14
ENDBRANCH  11  13
ENDBRANCH  10  11
ENDBRANCH   9  10
ENDBRANCH   7   9
ENDBRANCH   6   7
ENDBRANCH   3   6
TORSDOF 14
ENDMDL
MODEL 3
REMARK VINA RESULT: -6.397965863      3.833      5.808
REMARK  14 active torsions:
REMARK  status: ('A' for Active; 'I' for Inactive)
REMARK    1  A    between atoms: C3_3  and  O1_6 
REMARK    2  A    between atoms: O1_6  and  C6_7 
REMARK    3  A    between atoms: C6_7  and  C7_9 
REMARK    4  A    between atoms: C7_9  and  O3_10 
REMARK    5  A    between atoms: O3_10  and  C8_11 
REMARK    6  A    between atoms: C8_11  and  C9_13 
REMARK    7  A    between atoms: C9_13  and  C10_14 
REMARK    8  A    between atoms: C10_14  and  C11_15 
REMARK    9  A    between atoms: C11_15  and  C12_16 
REMARK   10  A    between atoms: C12_16  and  O6_18 
REMARK   11  A    between atoms: O6_18  and  N1_19 
REMARK       I    between atoms: N1_19  and  C13_21 
REMARK       I    between atoms: C13_21  and  N3_28 
REMARK   12  A    between atoms: N2_22  and  C14_24 
REMARK   13  A    between atoms: C14_24  and  C15_25 
REMARK   14  A    between atoms: C15_25  and  C16_26 
ROOT
HETATM    1  C1  UNL     1      39.391 164.485  58.023  1.00  0.00     0.015 C 
HETATM    2  C2  UNL     1      39.841 163.459  58.468  1.00  0.00    -0.079 C 
HETATM    3  C3  UNL     1      40.401 162.215  58.985  1.00  0.00     0.125 C 
HETATM    4  C4  UNL     1      40.204 162.162  60.461  1.00  0.00     0.061 C 
HETATM    5  C5  UNL     1      41.896 162.255  58.709  1.00  0.00     0.061 C 
ENDROOT
BRANCH   3   6
HETATM    6  O1  UNL     1      39.896 161.097  58.294  1.00  0.00    -0.296 OA
BRANCH   6   7
HETATM    7  C6  UNL     1      38.732 160.415  58.658  1.00  0.00     0.284 C 
HETATM    8  O2  UNL     1      38.913 159.330  59.270  1.00  0.00    -0.263 OA
BRANCH   7   9
HETATM    9  C7  UNL     1      37.371 160.897  58.367  1.00  0.00     0.289 C 
BRANCH   9  10
HETATM   10  O3  UNL     1      36.423 160.551  59.324  1.00  0.00    -0.312 OA
BRANCH  10  11
HETATM   11  C8  UNL     1      35.239 159.913  59.097  1.00  0.00     0.259 C 
HETATM   12  O4  UNL     1      34.451 160.368  58.232  1.00  0.00    -0.265 OA
BRANCH  11  13
HETATM   13  C9  UNL     1      34.794 158.674  59.824  1.00  0.00     0.111 C 
BRANCH  13  14
HETATM   14  C10 UNL     1      35.867 157.646  59.573  1.00  0.00     0.019 C 
BRANCH  14  15
HETATM   15  C11 UNL     1      35.662 156.808  58.363  1.00  0.00     0.113 C 
BRANCH  15  16
HETATM   16  C12 UNL     1      36.800 156.813  57.410  1.00  0.00     0.281 C 
HETATM   17  O5  UNL     1      37.156 157.821  56.748  1.00  0.00    -0.263 OA
BRANCH  16  18
HETATM   18  O6  UNL     1      37.555 155.646  57.198  1.00  0.00    -0.185 OA
BRANCH  18  19
HETATM   19  N1  UNL     1      38.860 155.620  57.618  1.00  0.00    -0.088 N 
HETATM   20  C13 UNL     1      39.696 154.542  57.214  1.00  0.00     0.693 C 
HETATM   21  N2  UNL     1      40.150 153.712  58.093  1.00  0.00    -0.225 N 
HETATM   22  N3  UNL     1      40.000 154.427  55.829  1.00  0.00    -0.229 N 
ATOM     23  H2  UNL     1      40.751 152.940  57.803  1.00  0.00     0.177 HD
HETATM   24  C18 UNL     1      39.255 153.587  54.916  1.00  0.00     0.165 C 
ATOM     25  H3  UNL     1      40.783 154.966  55.459  1.00  0.00     0.177 HD
ATOM     26  H1  UNL     1      39.226 156.363  58.213  1.00  0.00     0.213 HD
BRANCH  21  27
HETATM   27  C14 UNL     1      39.811 153.874  59.479  1.00  0.00     0.138 C 
BRANCH  27  28
HETATM   28  C15 UNL     1      38.633 152.994  59.784  1.00  0.00     0.020 C 
BRANCH  28  29
HETATM   29  C16 UNL     1      37.588 153.664  60.625  1.00  0.00    -0.003 C 
HETATM   30  C17 UNL     1      37.975 155.019  61.114  1.00  0.00     0.005 C 
ENDBRANCH  28  29
ENDBRANCH  27  28
ENDBRANCH  21  27
ENDBRANCH  18  19
ENDBRANCH  16  18
ENDBRANCH  15  16
ENDBRANCH  14  15
ENDBRANCH  13  14
ENDBRANCH  11  13
ENDBRANCH  10  11
ENDBRANCH   9  10
ENDBRANCH   7   9
ENDBRANCH   6   7
ENDBRANCH   3   6
TORSDOF 14
ENDMDL
MODEL 4
REMARK VINA RESULT: -6.395522791      2.423      3.830
REMARK  14 active torsions:
REMARK  status: ('A' for Active; 'I' for Inactive)
REMARK    1  A    between atoms: C3_3  and  O1_6 
REMARK    2  A    between atoms: O1_6  and  C6_7 
REMARK    3  A    between atoms: C6_7  and  C7_9 
REMARK    4  A    between atoms: C7_9  and  O3_10 
REMARK    5  A    between atoms: O3_10  and  C8_11 
REMARK    6  A    between atoms: C8_11  and  C9_13 
REMARK    7  A    between atoms: C9_13  and  C10_14 
REMARK    8  A    between atoms: C10_14  and  C11_15 
REMARK    9  A    between atoms: C11_15  and  C12_16 
REMARK   10  A    between atoms: C12_16  and  O6_18 
REMARK   11  A    between atoms: O6_18  and  N1_19 
REMARK       I    between atoms: N1_19  and  C13_21 
REMARK       I    between atoms: C13_21  and  N3_28 
REMARK   12  A    between atoms: N2_22  and  C14_24 
REMARK   13  A    between atoms: C14_24  and  C15_25 
REMARK   14  A    between atoms: C15_25  and  C16_26 
ROOT
HETATM    1  C1  UNL     1      38.649 164.426  58.583  1.00  0.00     0.015 C 
HETATM    2  C2  UNL     1      39.581 163.673  58.462  1.00  0.00    -0.079 C 
HETATM    3  C3  UNL     1      40.705 162.759  58.290  1.00  0.00     0.125 C 
HETATM    4  C4  UNL     1      41.668 162.945  59.412  1.00  0.00     0.061 C 
HETATM    5  C5  UNL     1      41.403 163.153  56.998  1.00  0.00     0.061 C 
ENDROOT
BRANCH   3   6
HETATM    6  O1  UNL     1      40.267 161.432  58.119  1.00  0.00    -0.296 OA
BRANCH   6   7
HETATM    7  C6  UNL     1      39.358 160.794  58.968  1.00  0.00     0.284 C 
HETATM    8  O2  UNL     1      39.855 160.296  60.013  1.00  0.00    -0.263 OA
BRANCH   7   9
HETATM    9  C7  UNL     1      37.914 160.690  58.698  1.00  0.00     0.289 C 
BRANCH   9  10
HETATM   10  O3  UNL     1      37.559 160.926  57.375  1.00  0.00    -0.312 OA
BRANCH  10  11
HETATM   11  C8  UNL     1      36.643 161.834  56.931  1.00  0.00     0.259 C 
HETATM   12  O4  UNL     1      36.876 162.480  55.881  1.00  0.00    -0.265 OA
BRANCH  11  13
HETATM   13  C9  UNL     1      35.341 162.127  57.624  1.00  0.00     0.111 C 
BRANCH  13  14
HETATM   14  C10 UNL     1      34.481 162.822  56.599  1.00  0.00     0.019 C 
BRANCH  14  15
HETATM   15  C11 UNL     1      33.103 163.145  57.050  1.00  0.00     0.113 C 
BRANCH  15  16
HETATM   16  C12 UNL     1      32.374 162.009  57.669  1.00  0.00     0.281 C 
HETATM   17  O5  UNL     1      32.026 161.974  58.877  1.00  0.00    -0.263 OA
BRANCH  16  18
HETATM   18  O6  UNL     1      32.031 160.882  56.902  1.00  0.00    -0.185 OA
BRANCH  18  19
HETATM   19  N1  UNL     1      32.693 159.704  57.128  1.00  0.00    -0.088 N 
HETATM   20  C13 UNL     1      31.996 158.474  56.963  1.00  0.00     0.693 C 
HETATM   21  N2  UNL     1      31.778 157.714  57.984  1.00  0.00    -0.225 N 
HETATM   22  N3  UNL     1      31.562 158.134  55.652  1.00  0.00    -0.229 N 
ATOM     23  H2  UNL     1      31.279 156.832  57.865  1.00  0.00     0.177 HD
HETATM   24  C18 UNL     1      30.235 158.423  55.151  1.00  0.00     0.165 C 
ATOM     25  H3  UNL     1      32.220 157.661  55.032  1.00  0.00     0.177 HD
ATOM     26  H1  UNL     1      33.673 159.708  57.411  1.00  0.00     0.213 HD
BRANCH  21  27
HETATM   27  C14 UNL     1      32.238 158.107  59.287  1.00  0.00     0.138 C 
BRANCH  27  28
HETATM   28  C15 UNL     1      33.435 157.269  59.638  1.00  0.00     0.020 C 
BRANCH  28  29
HETATM   29  C16 UNL     1      34.712 158.052  59.712  1.00  0.00    -0.003 C 
HETATM   30  C17 UNL     1      34.526 159.491  60.060  1.00  0.00     0.005 C 
ENDBRANCH  28  29
ENDBRANCH  27  28
ENDBRANCH  21  27
ENDBRANCH  18  19
ENDBRANCH  16  18
ENDBRANCH  15  16
ENDBRANCH  14  15
ENDBRANCH  13  14
ENDBRANCH  11  13
ENDBRANCH  10  11
ENDBRANCH   9  10
ENDBRANCH   7   9
ENDBRANCH   6   7
ENDBRANCH   3   6
TORSDOF 14
ENDMDL
MODEL 5
REMARK VINA RESULT: -6.392342810      2.068      3.426
REMARK  14 active torsions:
REMARK  status: ('A' for Active; 'I' for Inactive)
REMARK    1  A    between atoms: C3_3  and  O1_6 
REMARK    2  A    between atoms: O1_6  and  C6_7 
REMARK    3  A    between atoms: C6_7  and  C7_9 
REMARK    4  A    between atoms: C7_9  and  O3_10 
REMARK    5  A    between atoms: O3_10  and  C8_11 
REMARK    6  A    between atoms: C8_11  and  C9_13 
REMARK    7  A    between atoms: C9_13  and  C10_14 
REMARK    8  A    between atoms: C10_14  and  C11_15 
REMARK    9  A    between atoms: C11_15  and  C12_16 
REMARK   10  A    between atoms: C12_16  and  O6_18 
REMARK   11  A    between atoms: O6_18  and  N1_19 
REMARK       I    between atoms: N1_19  and  C13_21 
REMARK       I    between atoms: C13_21  and  N3_28 
REMARK   12  A    between atoms: N2_22  and  C14_24 
REMARK   13  A    between atoms: C14_24  and  C15_25 
REMARK   14  A    between atoms: C15_25  and  C16_26 
ROOT
HETATM    1  C1  UNL     1      39.843 164.713  58.130  1.00  0.00     0.015 C 
HETATM    2  C2  UNL     1      40.139 163.619  58.540  1.00  0.00    -0.079 C 
HETATM    3  C3  UNL     1      40.513 162.291  59.014  1.00  0.00     0.125 C 
HETATM    4  C4  UNL     1      40.213 162.185  60.469  1.00  0.00     0.061 C 
HETATM    5  C5  UNL     1      42.017 162.163  58.830  1.00  0.00     0.061 C 
ENDROOT
BRANCH   3   6
HETATM    6  O1  UNL     1      39.927 161.280  58.228  1.00  0.00    -0.296 OA
BRANCH   6   7
HETATM    7  C6  UNL     1      38.710 160.664  58.530  1.00  0.00     0.284 C 
HETATM    8  O2  UNL     1      38.798 159.567  59.141  1.00  0.00    -0.263 OA
BRANCH   7   9
HETATM    9  C7  UNL     1      37.394 161.225  58.178  1.00  0.00     0.289 C 
BRANCH   9  10
HETATM   10  O3  UNL     1      37.421 162.134  57.125  1.00  0.00    -0.312 OA
BRANCH  10  11
HETATM   11  C8  UNL     1      36.470 163.068  56.837  1.00  0.00     0.259 C 
HETATM   12  O4  UNL     1      36.723 164.283  57.029  1.00  0.00    -0.265 OA
BRANCH  11  13
HETATM   13  C9  UNL     1      35.106 162.746  56.293  1.00  0.00     0.111 C 
BRANCH  13  14
HETATM   14  C10 UNL     1      34.150 162.951  57.439  1.00  0.00     0.019 C 
BRANCH  14  15
HETATM   15  C11 UNL     1      33.002 162.009  57.476  1.00  0.00     0.113 C 
BRANCH  15  16
HETATM   16  C12 UNL     1      33.131 160.918  58.475  1.00  0.00     0.281 C 
HETATM   17  O5  UNL     1      32.316 160.725  59.412  1.00  0.00    -0.263 OA
BRANCH  16  18
HETATM   18  O6  UNL     1      34.213 160.021  58.412  1.00  0.00    -0.185 OA
BRANCH  18  19
HETATM   19  N1  UNL     1      34.418 159.162  59.459  1.00  0.00    -0.088 N 
HETATM   20  C13 UNL     1      34.908 157.852  59.195  1.00  0.00     0.693 C 
HETATM   21  N2  UNL     1      34.163 156.824  59.437  1.00  0.00    -0.225 N 
HETATM   22  N3  UNL     1      36.222 157.734  58.665  1.00  0.00    -0.229 N 
ATOM     23  H2  UNL     1      34.515 155.885  59.249  1.00  0.00     0.177 HD
HETATM   24  C18 UNL     1      36.505 157.627  57.249  1.00  0.00     0.165 C 
ATOM     25  H3  UNL     1      37.007 157.724  59.317  1.00  0.00     0.177 HD
ATOM     26  H1  UNL     1      34.224 159.458  60.415  1.00  0.00     0.213 HD
BRANCH  21  27
HETATM   27  C14 UNL     1      32.843 157.001  59.972  1.00  0.00     0.138 C 
BRANCH  27  28
HETATM   28  C15 UNL     1      32.165 155.661  60.009  1.00  0.00     0.020 C 
BRANCH  28  29
HETATM   29  C16 UNL     1      30.669 155.744  59.933  1.00  0.00    -0.003 C 
HETATM   30  C17 UNL     1      30.164 156.775  58.981  1.00  0.00     0.005 C 
ENDBRANCH  28  29
ENDBRANCH  27  28
ENDBRANCH  21  27
ENDBRANCH  18  19
ENDBRANCH  16  18
ENDBRANCH  15  16
ENDBRANCH  14  15
ENDBRANCH  13  14
ENDBRANCH  11  13
ENDBRANCH  10  11
ENDBRANCH   9  10
ENDBRANCH   7   9
ENDBRANCH   6   7
ENDBRANCH   3   6
TORSDOF 14
ENDMDL
