MODEL 1
REMARK VINA RESULT: -7.163818578      0.000      0.000
REMARK  8 active torsions:
REMARK  status: ('A' for Active; 'I' for Inactive)
REMARK    1  A    between atoms: C2_2  and  C11_21 
REMARK       I    between atoms: N1_3  and  C3_5 
REMARK    2  A    between atoms: C3_5  and  C4_7 
REMARK    3  A    between atoms: C4_7  and  N2_9 
REMARK    4  A    between atoms: N2_9  and  S1_11 
REMARK    5  A    between atoms: S1_11  and  C6_14 
REMARK    6  A    between atoms: C6_14  and  C7_15 
REMARK    7  A    between atoms: C7_15  and  C8_16 
REMARK    8  A    between atoms: C11_21  and  C13_23 
ROOT
HETATM    1  C4  UNL     1      37.179 164.373  57.409  1.00  0.00     0.180 C 
HETATM    2  C5  UNL     1      36.104 165.424  57.648  1.00  0.00     0.043 C 
ENDROOT
BRANCH   1   3
HETATM    3  C3  UNL     1      38.503 164.837  57.880  1.00  0.00     0.244 C 
HETATM    4  N1  UNL     1      39.646 164.313  57.334  1.00  0.00    -0.332 N 
HETATM    5  C2  UNL     1      40.574 163.574  57.661  1.00  0.00    -0.000 C 
ATOM      6  H1  UNL     1      39.762 164.631  56.371  1.00  0.00     0.168 HD
HETATM    7  C1  UNL     1      41.630 163.322  56.590  1.00  0.00     0.064 C 
HETATM    8  O1  UNL     1      38.548 165.710  58.777  1.00  0.00    -0.271 OA
BRANCH   5   9
HETATM    9  C11 UNL     1      40.843 162.878  58.936  1.00  0.00     0.128 C 
HETATM   10  C12 UNL     1      42.235 162.369  59.096  1.00  0.00     0.027 C 
BRANCH   9  11
HETATM   11  C13 UNL     1      39.895 161.754  59.073  1.00  0.00     0.182 C 
HETATM   12  O4  UNL     1      39.979 160.768  58.318  1.00  0.00    -0.647 OA
HETATM   13  O5  UNL     1      38.914 161.798  60.037  1.00  0.00    -0.647 OA
ENDBRANCH   9  11
ENDBRANCH   5   9
ENDBRANCH   1   3
BRANCH   1  14
HETATM   14  N2  UNL     1      36.803 163.189  58.124  1.00  0.00    -0.306 N 
ATOM     15  H2  UNL     1      36.908 163.071  59.132  1.00  0.00     0.173 HD
BRANCH  14  16
HETATM   16  S1  UNL     1      36.158 162.003  57.082  1.00  0.00     0.227 S 
HETATM   17  O2  UNL     1      37.120 160.837  56.936  1.00  0.00    -0.206 OA
HETATM   18  O3  UNL     1      35.848 162.556  55.725  1.00  0.00    -0.206 OA
BRANCH  16  19
HETATM   19  C6  UNL     1      34.616 161.387  57.764  1.00  0.00     0.164 C 
BRANCH  19  20
HETATM   20  C7  UNL     1      33.562 162.436  57.476  1.00  0.00     0.033 C 
BRANCH  20  21
HETATM   21  C8  UNL     1      32.174 161.868  57.648  1.00  0.00     0.060 C 
HETATM   22  C9  UNL     1      31.972 161.621  59.121  1.00  0.00     0.027 C 
HETATM   23  C10 UNL     1      30.681 160.864  59.313  1.00  0.00     0.087 C 
HETATM   24  S2  UNL     1      30.905 159.295  58.371  1.00  0.00    -0.097 SA
HETATM   25  S3  UNL     1      32.207 160.191  56.889  1.00  0.00    -0.093 SA
ENDBRANCH  20  21
ENDBRANCH  19  20
ENDBRANCH  16  19
ENDBRANCH  14  16
ENDBRANCH   1  14
TORSDOF 8
ENDMDL
MODEL 2
REMARK VINA RESULT: -7.131574980      1.774      2.151
REMARK  8 active torsions:
REMARK  status: ('A' for Active; 'I' for Inactive)
REMARK    1  A    between atoms: C2_2  and  C11_21 
REMARK       I    between atoms: N1_3  and  C3_5 
REMARK    2  A    between atoms: C3_5  and  C4_7 
REMARK    3  A    between atoms: C4_7  and  N2_9 
REMARK    4  A    between atoms: N2_9  and  S1_11 
REMARK    5  A    between atoms: S1_11  and  C6_14 
REMARK    6  A    between atoms: C6_14  and  C7_15 
REMARK    7  A    between atoms: C7_15  and  C8_16 
REMARK    8  A    between atoms: C11_21  and  C13_23 
ROOT
HETATM    1  C4  UNL     1      36.974 161.949  57.241  1.00  0.00     0.180 C 
HETATM    2  C5  UNL     1      35.545 162.390  56.959  1.00  0.00     0.043 C 
ENDROOT
BRANCH   1   3
HETATM    3  C3  UNL     1      37.877 163.111  57.395  1.00  0.00     0.244 C 
HETATM    4  N1  UNL     1      39.210 162.986  57.099  1.00  0.00    -0.332 N 
HETATM    5  C2  UNL     1      40.291 162.961  57.687  1.00  0.00    -0.000 C 
ATOM      6  H1  UNL     1      39.346 162.883  56.094  1.00  0.00     0.168 HD
HETATM    7  C1  UNL     1      41.523 162.790  56.804  1.00  0.00     0.064 C 
HETATM    8  O1  UNL     1      37.396 164.195  57.797  1.00  0.00    -0.271 OA
BRANCH   5   9
HETATM    9  C11 UNL     1      40.604 163.073  59.127  1.00  0.00     0.128 C 
HETATM   10  C12 UNL     1      42.040 163.312  59.444  1.00  0.00     0.027 C 
BRANCH   9  11
HETATM   11  C13 UNL     1      40.152 161.842  59.807  1.00  0.00     0.182 C 
HETATM   12  O4  UNL     1      40.782 160.778  59.659  1.00  0.00    -0.647 OA
HETATM   13  O5  UNL     1      39.033 161.871  60.606  1.00  0.00    -0.647 OA
ENDBRANCH   9  11
ENDBRANCH   5   9
ENDBRANCH   1   3
BRANCH   1  14
HETATM   14  N2  UNL     1      36.966 161.182  58.453  1.00  0.00    -0.306 N 
ATOM     15  H2  UNL     1      36.845 161.582  59.383  1.00  0.00     0.173 HD
BRANCH  14  16
HETATM   16  S1  UNL     1      37.186 159.519  58.145  1.00  0.00     0.227 S 
HETATM   17  O2  UNL     1      38.250 158.940  59.063  1.00  0.00    -0.206 OA
HETATM   18  O3  UNL     1      37.571 159.257  56.721  1.00  0.00    -0.206 OA
BRANCH  16  19
HETATM   19  C6  UNL     1      35.645 158.651  58.442  1.00  0.00     0.164 C 
BRANCH  19  20
HETATM   20  C7  UNL     1      34.795 159.554  59.311  1.00  0.00     0.033 C 
BRANCH  20  21
HETATM   21  C8  UNL     1      33.464 159.837  58.657  1.00  0.00     0.060 C 
HETATM   22  C9  UNL     1      32.513 160.262  59.748  1.00  0.00     0.027 C 
HETATM   23  C10 UNL     1      31.122 160.354  59.169  1.00  0.00     0.087 C 
HETATM   24  S2  UNL     1      30.752 158.658  58.547  1.00  0.00    -0.097 SA
HETATM   25  S3  UNL     1      32.820 158.213  58.078  1.00  0.00    -0.093 SA
ENDBRANCH  20  21
ENDBRANCH  19  20
ENDBRANCH  16  19
ENDBRANCH  14  16
ENDBRANCH   1  14
TORSDOF 8
ENDMDL
MODEL 3
REMARK VINA RESULT: -6.979885037      2.349      3.163
REMARK  8 active torsions:
REMARK  status: ('A' for Active; 'I' for Inactive)
REMARK    1  A    between atoms: C2_2  and  C11_21 
REMARK       I    between atoms: N1_3  and  C3_5 
REMARK    2  A    between atoms: C3_5  and  C4_7 
REMARK    3  A    between atoms: C4_7  and  N2_9 
REMARK    4  A    between atoms: N2_9  and  S1_11 
REMARK    5  A    between atoms: S1_11  and  C6_14 
REMARK    6  A    between atoms: C6_14  and  C7_15 
REMARK    7  A    between atoms: C7_15  and  C8_16 
REMARK    8  A    between atoms: C11_21  and  C13_23 
ROOT
HETATM    1  C4  UNL     1      37.154 164.410  57.413  1.00  0.00     0.180 C 
HETATM    2  C5  UNL     1      36.084 165.471  57.628  1.00  0.00     0.043 C 
ENDROOT
BRANCH   1   3
HETATM    3  C3  UNL     1      38.474 164.868  57.897  1.00  0.00     0.244 C 
HETATM    4  N1  UNL     1      39.621 164.355  57.347  1.00  0.00    -0.332 N 
HETATM    5  C2  UNL     1      40.549 163.611  57.665  1.00  0.00    -0.000 C 
ATOM      6  H1  UNL     1      39.741 164.690  56.391  1.00  0.00     0.168 HD
HETATM    7  C1  UNL     1      41.610 163.380  56.594  1.00  0.00     0.064 C 
HETATM    8  O1  UNL     1      38.515 165.725  58.810  1.00  0.00    -0.271 OA
BRANCH   5   9
HETATM    9  C11 UNL     1      40.814 162.894  58.929  1.00  0.00     0.128 C 
HETATM   10  C12 UNL     1      42.210 162.397  59.092  1.00  0.00     0.027 C 
BRANCH   9  11
HETATM   11  C13 UNL     1      39.876 161.758  59.035  1.00  0.00     0.182 C 
HETATM   12  O4  UNL     1      39.971 160.793  58.254  1.00  0.00    -0.647 OA
HETATM   13  O5  UNL     1      38.896 161.765  60.000  1.00  0.00    -0.647 OA
ENDBRANCH   9  11
ENDBRANCH   5   9
ENDBRANCH   1   3
BRANCH   1  14
HETATM   14  N2  UNL     1      36.758 163.235  58.134  1.00  0.00    -0.306 N 
ATOM     15  H2  UNL     1      36.892 163.107  59.137  1.00  0.00     0.173 HD
BRANCH  14  16
HETATM   16  S1  UNL     1      36.038 162.080  57.106  1.00  0.00     0.227 S 
HETATM   17  O2  UNL     1      36.380 162.367  55.654  1.00  0.00    -0.206 OA
HETATM   18  O3  UNL     1      34.548 162.041  57.262  1.00  0.00    -0.206 OA
BRANCH  16  19
HETATM   19  C6  UNL     1      36.652 160.447  57.525  1.00  0.00     0.164 C 
BRANCH  19  20
HETATM   20  C7  UNL     1      35.905 160.004  58.765  1.00  0.00     0.033 C 
BRANCH  20  21
HETATM   21  C8  UNL     1      36.158 158.544  59.056  1.00  0.00     0.060 C 
HETATM   22  C9  UNL     1      37.621 158.285  58.797  1.00  0.00     0.027 C 
HETATM   23  C10 UNL     1      37.870 156.798  58.875  1.00  0.00     0.087 C 
HETATM   24  S2  UNL     1      36.794 156.065  57.570  1.00  0.00    -0.097 SA
HETATM   25  S3  UNL     1      35.274 157.598  57.746  1.00  0.00    -0.093 SA
ENDBRANCH  20  21
ENDBRANCH  19  20
ENDBRANCH  16  19
ENDBRANCH  14  16
ENDBRANCH   1  14
TORSDOF 8
ENDMDL
MODEL 4
REMARK VINA RESULT: -6.965433608      1.704      1.915
REMARK  8 active torsions:
REMARK  status: ('A' for Active; 'I' for Inactive)
REMARK    1  A    between atoms: C2_2  and  C11_21 
REMARK       I    between atoms: N1_3  and  C3_5 
REMARK    2  A    between atoms: C3_5  and  C4_7 
REMARK    3  A    between atoms: C4_7  and  N2_9 
REMARK    4  A    between atoms: N2_9  and  S1_11 
REMARK    5  A    between atoms: S1_11  and  C6_14 
REMARK    6  A    between atoms: C6_14  and  C7_15 
REMARK    7  A    between atoms: C7_15  and  C8_16 
REMARK    8  A    between atoms: C11_21  and  C13_23 
ROOT
HETATM    1  C4  UNL     1      37.150 164.442  57.396  1.00  0.00     0.180 C 
HETATM    2  C5  UNL     1      36.092 165.512  57.621  1.00  0.00     0.043 C 
ENDROOT
BRANCH   1   3
HETATM    3  C3  UNL     1      38.476 164.883  57.881  1.00  0.00     0.244 C 
HETATM    4  N1  UNL     1      39.617 164.340  57.347  1.00  0.00    -0.332 N 
HETATM    5  C2  UNL     1      40.528 163.584  57.683  1.00  0.00    -0.000 C 
ATOM      6  H1  UNL     1      39.748 164.656  56.386  1.00  0.00     0.168 HD
HETATM    7  C1  UNL     1      41.591 163.315  56.623  1.00  0.00     0.064 C 
HETATM    8  O1  UNL     1      38.527 165.754  58.779  1.00  0.00    -0.271 OA
BRANCH   5   9
HETATM    9  C11 UNL     1      40.772 162.883  58.960  1.00  0.00     0.128 C 
HETATM   10  C12 UNL     1      42.142 162.318  59.119  1.00  0.00     0.027 C 
BRANCH   9  11
HETATM   11  C13 UNL     1      39.778 161.800  59.105  1.00  0.00     0.182 C 
HETATM   12  O4  UNL     1      38.932 161.845  60.017  1.00  0.00    -0.647 OA
HETATM   13  O5  UNL     1      39.787 160.740  58.229  1.00  0.00    -0.647 OA
ENDBRANCH   9  11
ENDBRANCH   5   9
ENDBRANCH   1   3
BRANCH   1  14
HETATM   14  N2  UNL     1      36.745 163.266  58.109  1.00  0.00    -0.306 N 
ATOM     15  H2  UNL     1      36.859 163.137  59.114  1.00  0.00     0.173 HD
BRANCH  14  16
HETATM   16  S1  UNL     1      36.048 162.108  57.068  1.00  0.00     0.227 S 
HETATM   17  O2  UNL     1      36.657 162.201  55.679  1.00  0.00    -0.206 OA
HETATM   18  O3  UNL     1      34.562 162.269  56.964  1.00  0.00    -0.206 OA
BRANCH  16  19
HETATM   19  C6  UNL     1      36.355 160.464  57.716  1.00  0.00     0.164 C 
BRANCH  19  20
HETATM   20  C7  UNL     1      35.365 160.247  58.842  1.00  0.00     0.033 C 
BRANCH  20  21
HETATM   21  C8  UNL     1      34.293 159.264  58.437  1.00  0.00     0.060 C 
HETATM   22  C9  UNL     1      33.051 159.613  59.217  1.00  0.00     0.027 C 
HETATM   23  C10 UNL     1      32.020 158.532  58.997  1.00  0.00     0.087 C 
HETATM   24  S2  UNL     1      32.815 156.986  59.611  1.00  0.00    -0.097 SA
HETATM   25  S3  UNL     1      34.819 157.628  59.097  1.00  0.00    -0.093 SA
ENDBRANCH  20  21
ENDBRANCH  19  20
ENDBRANCH  16  19
ENDBRANCH  14  16
ENDBRANCH   1  14
TORSDOF 8
ENDMDL
MODEL 5
REMARK VINA RESULT: -6.883559350      1.902      2.318
REMARK  8 active torsions:
REMARK  status: ('A' for Active; 'I' for Inactive)
REMARK    1  A    between atoms: C2_2  and  C11_21 
REMARK       I    between atoms: N1_3  and  C3_5 
REMARK    2  A    between atoms: C3_5  and  C4_7 
REMARK    3  A    between atoms: C4_7  and  N2_9 
REMARK    4  A    between atoms: N2_9  and  S1_11 
REMARK    5  A    between atoms: S1_11  and  C6_14 
REMARK    6  A    between atoms: C6_14  and  C7_15 
REMARK    7  A    between atoms: C7_15  and  C8_16 
REMARK    8  A    between atoms: C11_21  and  C13_23 
ROOT
HETATM    1  C4  UNL     1      37.007 162.132  57.069  1.00  0.00     0.180 C 
HETATM    2  C5  UNL     1      35.648 162.625  56.591  1.00  0.00     0.043 C 
ENDROOT
BRANCH   1   3
HETATM    3  C3  UNL     1      37.946 163.256  57.276  1.00  0.00     0.244 C 
HETATM    4  N1  UNL     1      39.287 163.080  57.044  1.00  0.00    -0.332 N 
HETATM    5  C2  UNL     1      40.336 163.008  57.683  1.00  0.00    -0.000 C 
ATOM      6  H1  UNL     1      39.467 162.977  56.045  1.00  0.00     0.168 HD
HETATM    7  C1  UNL     1      41.601 162.793  56.860  1.00  0.00     0.064 C 
HETATM    8  O1  UNL     1      37.490 164.356  57.662  1.00  0.00    -0.271 OA
BRANCH   5   9
HETATM    9  C11 UNL     1      40.582 163.099  59.137  1.00  0.00     0.128 C 
HETATM   10  C12 UNL     1      42.011 163.256  59.527  1.00  0.00     0.027 C 
BRANCH   9  11
HETATM   11  C13 UNL     1      40.028 161.895  59.788  1.00  0.00     0.182 C 
HETATM   12  O4  UNL     1      38.995 161.975  60.479  1.00  0.00    -0.647 OA
HETATM   13  O5  UNL     1      40.655 160.680  59.632  1.00  0.00    -0.647 OA
ENDBRANCH   9  11
ENDBRANCH   5   9
ENDBRANCH   1   3
BRANCH   1  14
HETATM   14  N2  UNL     1      36.811 161.436  58.306  1.00  0.00    -0.306 N 
ATOM     15  H2  UNL     1      36.632 161.894  59.200  1.00  0.00     0.173 HD
BRANCH  14  16
HETATM   16  S1  UNL     1      36.915 159.746  58.100  1.00  0.00     0.227 S 
HETATM   17  O2  UNL     1      37.799 159.128  59.170  1.00  0.00    -0.206 OA
HETATM   18  O3  UNL     1      37.448 159.377  56.749  1.00  0.00    -0.206 OA
BRANCH  16  19
HETATM   19  C6  UNL     1      35.276 159.028  58.232  1.00  0.00     0.164 C 
BRANCH  19  20
HETATM   20  C7  UNL     1      34.761 159.369  59.615  1.00  0.00     0.033 C 
BRANCH  20  21
HETATM   21  C8  UNL     1      33.258 159.518  59.611  1.00  0.00     0.060 C 
HETATM   22  C9  UNL     1      32.683 158.221  59.099  1.00  0.00     0.027 C 
HETATM   23  C10 UNL     1      31.200 158.400  58.884  1.00  0.00     0.087 C 
HETATM   24  S2  UNL     1      31.059 159.759  57.646  1.00  0.00    -0.097 SA
HETATM   25  S3  UNL     1      32.867 160.755  58.304  1.00  0.00    -0.093 SA
ENDBRANCH  20  21
ENDBRANCH  19  20
ENDBRANCH  16  19
ENDBRANCH  14  16
ENDBRANCH   1  14
TORSDOF 8
ENDMDL
