MODEL 1
REMARK VINA RESULT: -6.759765085      0.000      0.000
REMARK  9 active torsions:
REMARK  status: ('A' for Active; 'I' for Inactive)
REMARK       I    between atoms: C2_2  and  N1_4 
REMARK    1  A    between atoms: N1_4  and  C3_6 
REMARK    2  A    between atoms: C3_6  and  C4_7 
REMARK    3  A    between atoms: C3_6  and  C8_11 
REMARK    4  A    between atoms: C4_7  and  C5_8 
REMARK    5  A    between atoms: C8_11  and  C9_12 
REMARK    6  A    between atoms: C8_11  and  N5_25 
REMARK    7  A    between atoms: C9_12  and  S1_13 
REMARK    8  A    between atoms: S1_13  and  C10_14 
REMARK    9  A    between atoms: C11_19  and  C12_20 
ROOT
HETATM    1  C8  UNL     1      35.721 158.826  58.850  1.00  0.00     0.255 C 
ENDROOT
BRANCH   1   2
HETATM    2  C3  UNL     1      34.408 158.194  58.608  1.00  0.00     0.118 C 
BRANCH   2   3
HETATM    3  N1  UNL     1      33.923 157.194  59.485  1.00  0.00    -0.355 N 
HETATM    4  C2  UNL     1      33.600 155.890  58.932  1.00  0.00     0.213 C 
HETATM    5  C1  UNL     1      33.085 154.773  59.759  1.00  0.00     0.117 C 
HETATM    6  O1  UNL     1      33.753 155.667  57.696  1.00  0.00    -0.274 OA
ATOM      7  H1  UNL     1      33.804 157.384  60.480  1.00  0.00     0.162 HD
ENDBRANCH   2   3
BRANCH   2   8
HETATM    8  C4  UNL     1      33.289 159.160  58.367  1.00  0.00     0.031 C 
BRANCH   8   9
HETATM    9  C5  UNL     1      32.130 159.171  59.254  1.00  0.00    -0.021 C 
HETATM   10  C6  UNL     1      31.991 160.639  59.729  1.00  0.00     0.009 C 
HETATM   11  C7  UNL     1      30.804 158.791  58.736  1.00  0.00     0.009 C 
ENDBRANCH   8   9
ENDBRANCH   2   8
ENDBRANCH   1   2
BRANCH   1  12
HETATM   12  C9  UNL     1      35.606 160.309  58.945  1.00  0.00     0.120 C 
BRANCH  12  13
HETATM   13  S1  UNL     1      36.173 161.312  57.620  1.00  0.00    -0.090 SA
BRANCH  13  14
HETATM   14  C10 UNL     1      37.801 161.913  57.606  1.00  0.00     0.160 A 
HETATM   15  N2  UNL     1      38.337 162.926  56.917  1.00  0.00    -0.278 N 
HETATM   16  N3  UNL     1      39.612 163.079  57.168  1.00  0.00    -0.287 N 
ATOM     17  H2  UNL     1      37.811 163.512  56.268  1.00  0.00     0.189 HD
HETATM   18  C11 UNL     1      39.936 162.132  58.060  1.00  0.00     0.101 A 
ATOM     19  H3  UNL     1      40.235 163.780  56.766  1.00  0.00     0.188 HD
HETATM   20  N4  UNL     1      38.856 161.425  58.330  1.00  0.00    -0.324 N 
ATOM     21  H4  UNL     1      38.814 160.638  58.978  1.00  0.00     0.169 HD
BRANCH  18  22
HETATM   22  C12 UNL     1      41.306 161.944  58.616  1.00  0.00     0.047 C 
HETATM   23  C13 UNL     1      42.314 161.817  57.470  1.00  0.00     0.017 C 
HETATM   24  C14 UNL     1      41.707 163.079  59.540  1.00  0.00     0.017 C 
ENDBRANCH  18  22
ENDBRANCH  13  14
ENDBRANCH  12  13
ENDBRANCH   1  12
BRANCH   1  25
HETATM   25  N5  UNL     1      36.890 158.331  58.281  1.00  0.00     0.100 N 
HETATM   26  C15 UNL     1      37.707 157.518  59.172  1.00  0.00     0.299 C 
HETATM   27  C16 UNL     1      38.153 156.278  58.472  1.00  0.00     0.198 C 
HETATM   28  O2  UNL     1      38.765 156.480  57.249  1.00  0.00    -0.388 OA
HETATM   29  C17 UNL     1      38.088 157.373  56.443  1.00  0.00     0.198 C 
HETATM   30  C18 UNL     1      36.693 157.599  57.033  1.00  0.00     0.299 C 
ENDBRANCH   1  25
TORSDOF 9
ENDMDL
MODEL 2
REMARK VINA RESULT: -6.756058982      2.509      3.595
REMARK  9 active torsions:
REMARK  status: ('A' for Active; 'I' for Inactive)
REMARK       I    between atoms: C2_2  and  N1_4 
REMARK    1  A    between atoms: N1_4  and  C3_6 
REMARK    2  A    between atoms: C3_6  and  C4_7 
REMARK    3  A    between atoms: C3_6  and  C8_11 
REMARK    4  A    between atoms: C4_7  and  C5_8 
REMARK    5  A    between atoms: C8_11  and  C9_12 
REMARK    6  A    between atoms: C8_11  and  N5_25 
REMARK    7  A    between atoms: C9_12  and  S1_13 
REMARK    8  A    between atoms: S1_13  and  C10_14 
REMARK    9  A    between atoms: C11_19  and  C12_20 
ROOT
HETATM    1  C8  UNL     1      34.195 161.263  58.109  1.00  0.00     0.255 C 
ENDROOT
BRANCH   1   2
HETATM    2  C3  UNL     1      32.765 160.930  57.942  1.00  0.00     0.118 C 
BRANCH   2   3
HETATM    3  N1  UNL     1      31.771 161.912  58.164  1.00  0.00    -0.355 N 
HETATM    4  C2  UNL     1      30.628 161.563  58.989  1.00  0.00     0.213 C 
HETATM    5  C1  UNL     1      29.530 162.514  59.283  1.00  0.00     0.117 C 
HETATM    6  O1  UNL     1      30.536 160.405  59.491  1.00  0.00    -0.274 OA
ATOM      7  H1  UNL     1      31.855 162.843  57.754  1.00  0.00     0.162 HD
ENDBRANCH   2   3
BRANCH   2   8
HETATM    8  C4  UNL     1      32.435 160.238  56.655  1.00  0.00     0.031 C 
BRANCH   8   9
HETATM    9  C5  UNL     1      31.887 158.886  56.672  1.00  0.00    -0.021 C 
HETATM   10  C6  UNL     1      31.214 158.700  55.289  1.00  0.00     0.009 C 
HETATM   11  C7  UNL     1      32.785 157.731  56.840  1.00  0.00     0.009 C 
ENDBRANCH   8   9
ENDBRANCH   2   8
ENDBRANCH   1   2
BRANCH   1  12
HETATM   12  C9  UNL     1      34.740 161.954  56.906  1.00  0.00     0.120 C 
BRANCH  12  13
HETATM   13  S1  UNL     1      35.848 163.302  57.104  1.00  0.00    -0.090 SA
BRANCH  13  14
HETATM   14  C10 UNL     1      37.532 163.018  57.414  1.00  0.00     0.160 A 
HETATM   15  N2  UNL     1      38.606 163.362  56.696  1.00  0.00    -0.278 N 
HETATM   16  N3  UNL     1      39.723 162.968  57.253  1.00  0.00    -0.287 N 
ATOM     17  H2  UNL     1      38.561 163.874  55.815  1.00  0.00     0.189 HD
HETATM   18  C11 UNL     1      39.377 162.338  58.385  1.00  0.00     0.101 A 
ATOM     19  H3  UNL     1      40.669 163.112  56.897  1.00  0.00     0.188 HD
HETATM   20  N4  UNL     1      38.063 162.361  58.492  1.00  0.00    -0.324 N 
ATOM     21  H4  UNL     1      37.527 161.954  59.257  1.00  0.00     0.169 HD
BRANCH  18  22
HETATM   22  C12 UNL     1      40.353 161.721  59.328  1.00  0.00     0.047 C 
HETATM   23  C13 UNL     1      41.772 162.173  58.969  1.00  0.00     0.017 C 
HETATM   24  C14 UNL     1      40.046 162.066  60.773  1.00  0.00     0.017 C 
ENDBRANCH  18  22
ENDBRANCH  13  14
ENDBRANCH  12  13
ENDBRANCH   1  12
BRANCH   1  25
HETATM   25  N5  UNL     1      35.070 160.423  58.790  1.00  0.00     0.100 N 
HETATM   26  C15 UNL     1      34.461 159.644  59.859  1.00  0.00     0.299 C 
HETATM   27  C16 UNL     1      34.911 158.223  59.780  1.00  0.00     0.198 C 
HETATM   28  O2  UNL     1      36.281 158.042  59.722  1.00  0.00    -0.388 OA
HETATM   29  C17 UNL     1      36.904 158.885  58.824  1.00  0.00     0.198 C 
HETATM   30  C18 UNL     1      35.834 159.521  57.932  1.00  0.00     0.299 C 
ENDBRANCH   1  25
TORSDOF 9
ENDMDL
MODEL 3
REMARK VINA RESULT: -6.697962553      1.220      1.493
REMARK  9 active torsions:
REMARK  status: ('A' for Active; 'I' for Inactive)
REMARK       I    between atoms: C2_2  and  N1_4 
REMARK    1  A    between atoms: N1_4  and  C3_6 
REMARK    2  A    between atoms: C3_6  and  C4_7 
REMARK    3  A    between atoms: C3_6  and  C8_11 
REMARK    4  A    between atoms: C4_7  and  C5_8 
REMARK    5  A    between atoms: C8_11  and  C9_12 
REMARK    6  A    between atoms: C8_11  and  N5_25 
REMARK    7  A    between atoms: C9_12  and  S1_13 
REMARK    8  A    between atoms: S1_13  and  C10_14 
REMARK    9  A    between atoms: C11_19  and  C12_20 
ROOT
HETATM    1  C8  UNL     1      35.286 160.178  58.271  1.00  0.00     0.255 C 
ENDROOT
BRANCH   1   2
HETATM    2  C3  UNL     1      33.963 159.524  58.337  1.00  0.00     0.118 C 
BRANCH   2   3
HETATM    3  N1  UNL     1      33.691 158.560  59.337  1.00  0.00    -0.355 N 
HETATM    4  C2  UNL     1      33.084 157.303  58.936  1.00  0.00     0.213 C 
HETATM    5  C1  UNL     1      32.755 156.227  59.900  1.00  0.00     0.117 C 
HETATM    6  O1  UNL     1      32.810 157.088  57.719  1.00  0.00    -0.274 OA
ATOM      7  H1  UNL     1      33.917 158.743  60.315  1.00  0.00     0.162 HD
ENDBRANCH   2   3
BRANCH   2   8
HETATM    8  C4  UNL     1      32.802 160.468  58.295  1.00  0.00     0.031 C 
BRANCH   8   9
HETATM    9  C5  UNL     1      31.665 160.266  59.187  1.00  0.00    -0.021 C 
HETATM   10  C6  UNL     1      31.447 161.631  59.889  1.00  0.00     0.009 C 
HETATM   11  C7  UNL     1      30.353 159.887  58.634  1.00  0.00     0.009 C 
ENDBRANCH   8   9
ENDBRANCH   2   8
ENDBRANCH   1   2
BRANCH   1  12
HETATM   12  C9  UNL     1      35.175 161.598  57.832  1.00  0.00     0.120 C 
BRANCH  12  13
HETATM   13  S1  UNL     1      36.251 162.212  56.588  1.00  0.00    -0.090 SA
BRANCH  13  14
HETATM   14  C10 UNL     1      37.734 163.002  57.021  1.00  0.00     0.160 A 
HETATM   15  N2  UNL     1      38.122 164.266  56.824  1.00  0.00    -0.278 N 
HETATM   16  N3  UNL     1      39.323 164.497  57.291  1.00  0.00    -0.287 N 
ATOM     17  H2  UNL     1      37.548 164.972  56.363  1.00  0.00     0.189 HD
HETATM   18  C11 UNL     1      39.749 163.340  57.819  1.00  0.00     0.101 A 
ATOM     19  H3  UNL     1      39.833 165.380  57.260  1.00  0.00     0.188 HD
HETATM   20  N4  UNL     1      38.803 162.435  57.662  1.00  0.00    -0.324 N 
ATOM     21  H4  UNL     1      38.859 161.464  57.971  1.00  0.00     0.169 HD
BRANCH  18  22
HETATM   22  C12 UNL     1      41.084 163.157  58.458  1.00  0.00     0.047 C 
HETATM   23  C13 UNL     1      40.904 162.617  59.880  1.00  0.00     0.017 C 
HETATM   24  C14 UNL     1      41.977 162.228  57.657  1.00  0.00     0.017 C 
ENDBRANCH  18  22
ENDBRANCH  13  14
ENDBRANCH  12  13
ENDBRANCH   1  12
BRANCH   1  25
HETATM   25  N5  UNL     1      36.425 159.491  57.860  1.00  0.00     0.100 N 
HETATM   26  C15 UNL     1      37.430 159.300  58.898  1.00  0.00     0.299 C 
HETATM   27  C16 UNL     1      37.923 157.892  58.883  1.00  0.00     0.198 C 
HETATM   28  O2  UNL     1      38.354 157.432  57.652  1.00  0.00    -0.388 OA
HETATM   29  C17 UNL     1      37.489 157.741  56.622  1.00  0.00     0.198 C 
HETATM   30  C18 UNL     1      36.160 158.203  57.226  1.00  0.00     0.299 C 
ENDBRANCH   1  25
TORSDOF 9
ENDMDL
MODEL 4
REMARK VINA RESULT: -6.589720368      2.570      3.097
REMARK  9 active torsions:
REMARK  status: ('A' for Active; 'I' for Inactive)
REMARK       I    between atoms: C2_2  and  N1_4 
REMARK    1  A    between atoms: N1_4  and  C3_6 
REMARK    2  A    between atoms: C3_6  and  C4_7 
REMARK    3  A    between atoms: C3_6  and  C8_11 
REMARK    4  A    between atoms: C4_7  and  C5_8 
REMARK    5  A    between atoms: C8_11  and  C9_12 
REMARK    6  A    between atoms: C8_11  and  N5_25 
REMARK    7  A    between atoms: C9_12  and  S1_13 
REMARK    8  A    between atoms: S1_13  and  C10_14 
REMARK    9  A    between atoms: C11_19  and  C12_20 
ROOT
HETATM    1  C8  UNL     1      34.234 161.114  58.180  1.00  0.00     0.255 C 
ENDROOT
BRANCH   1   2
HETATM    2  C3  UNL     1      32.961 160.364  58.165  1.00  0.00     0.118 C 
BRANCH   2   3
HETATM    3  N1  UNL     1      32.939 159.002  57.778  1.00  0.00    -0.355 N 
HETATM    4  C2  UNL     1      32.226 158.642  56.565  1.00  0.00     0.213 C 
HETATM    5  C1  UNL     1      32.137 157.248  56.071  1.00  0.00     0.117 C 
HETATM    6  O1  UNL     1      31.644 159.533  55.880  1.00  0.00    -0.274 OA
ATOM      7  H1  UNL     1      33.412 158.292  58.338  1.00  0.00     0.162 HD
ENDBRANCH   2   3
BRANCH   2   8
HETATM    8  C4  UNL     1      32.152 160.489  59.419  1.00  0.00     0.031 C 
BRANCH   8   9
HETATM    9  C5  UNL     1      30.773 160.961  59.354  1.00  0.00    -0.021 C 
HETATM   10  C6  UNL     1      30.797 162.161  58.374  1.00  0.00     0.009 C 
HETATM   11  C7  UNL     1      29.711 160.065  58.864  1.00  0.00     0.009 C 
ENDBRANCH   8   9
ENDBRANCH   2   8
ENDBRANCH   1   2
BRANCH   1  12
HETATM   12  C9  UNL     1      34.376 161.978  56.974  1.00  0.00     0.120 C 
BRANCH  12  13
HETATM   13  S1  UNL     1      34.517 163.718  57.161  1.00  0.00    -0.090 SA
BRANCH  13  14
HETATM   14  C10 UNL     1      36.047 164.438  57.553  1.00  0.00     0.160 A 
HETATM   15  N2  UNL     1      36.413 165.724  57.564  1.00  0.00    -0.278 N 
HETATM   16  N3  UNL     1      37.664 165.883  57.914  1.00  0.00    -0.287 N 
ATOM     17  H2  UNL     1      35.787 166.495  57.327  1.00  0.00     0.189 HD
HETATM   18  C11 UNL     1      38.149 164.654  58.145  1.00  0.00     0.101 A 
ATOM     19  H3  UNL     1      38.170 166.766  57.995  1.00  0.00     0.188 HD
HETATM   20  N4  UNL     1      37.186 163.778  57.931  1.00  0.00    -0.324 N 
ATOM     21  H4  UNL     1      37.276 162.768  58.032  1.00  0.00     0.169 HD
BRANCH  18  22
HETATM   22  C12 UNL     1      39.552 164.377  58.562  1.00  0.00     0.047 C 
HETATM   23  C13 UNL     1      39.606 163.061  59.345  1.00  0.00     0.017 C 
HETATM   24  C14 UNL     1      40.498 164.318  57.378  1.00  0.00     0.017 C 
ENDBRANCH  18  22
ENDBRANCH  13  14
ENDBRANCH  12  13
ENDBRANCH   1  12
BRANCH   1  25
HETATM   25  N5  UNL     1      35.407 160.561  58.686  1.00  0.00     0.100 N 
HETATM   26  C15 UNL     1      35.214 159.392  59.534  1.00  0.00     0.299 C 
HETATM   27  C16 UNL     1      36.179 158.318  59.156  1.00  0.00     0.198 C 
HETATM   28  O2  UNL     1      37.504 158.708  59.104  1.00  0.00    -0.388 OA
HETATM   29  C17 UNL     1      37.694 159.901  58.438  1.00  0.00     0.198 C 
HETATM   30  C18 UNL     1      36.411 160.242  57.675  1.00  0.00     0.299 C 
ENDBRANCH   1  25
TORSDOF 9
ENDMDL
MODEL 5
REMARK VINA RESULT: -6.589546106      1.257      1.670
REMARK  9 active torsions:
REMARK  status: ('A' for Active; 'I' for Inactive)
REMARK       I    between atoms: C2_2  and  N1_4 
REMARK    1  A    between atoms: N1_4  and  C3_6 
REMARK    2  A    between atoms: C3_6  and  C4_7 
REMARK    3  A    between atoms: C3_6  and  C8_11 
REMARK    4  A    between atoms: C4_7  and  C5_8 
REMARK    5  A    between atoms: C8_11  and  C9_12 
REMARK    6  A    between atoms: C8_11  and  N5_25 
REMARK    7  A    between atoms: C9_12  and  S1_13 
REMARK    8  A    between atoms: S1_13  and  C10_14 
REMARK    9  A    between atoms: C11_19  and  C12_20 
ROOT
HETATM    1  C8  UNL     1      35.290 158.409  59.062  1.00  0.00     0.255 C 
ENDROOT
BRANCH   1   2
HETATM    2  C3  UNL     1      33.856 158.368  58.711  1.00  0.00     0.118 C 
BRANCH   2   3
HETATM    3  N1  UNL     1      33.184 157.127  58.592  1.00  0.00    -0.355 N 
HETATM    4  C2  UNL     1      32.702 156.727  57.281  1.00  0.00     0.213 C 
HETATM    5  C1  UNL     1      31.985 155.452  57.045  1.00  0.00     0.117 C 
HETATM    6  O1  UNL     1      32.885 157.479  56.279  1.00  0.00    -0.274 OA
ATOM      7  H1  UNL     1      33.043 156.529  59.406  1.00  0.00     0.162 HD
ENDBRANCH   2   3
BRANCH   2   8
HETATM    8  C4  UNL     1      32.990 159.271  59.534  1.00  0.00     0.031 C 
BRANCH   8   9
HETATM    9  C5  UNL     1      31.901 160.012  58.904  1.00  0.00    -0.021 C 
HETATM   10  C6  UNL     1      31.589 161.182  59.871  1.00  0.00     0.009 C 
HETATM   11  C7  UNL     1      32.100 160.628  57.581  1.00  0.00     0.009 C 
ENDBRANCH   8   9
ENDBRANCH   2   8
ENDBRANCH   1   2
BRANCH   1  12
HETATM   12  C9  UNL     1      35.767 159.807  59.259  1.00  0.00     0.120 C 
BRANCH  12  13
HETATM   13  S1  UNL     1      35.903 160.884  57.878  1.00  0.00    -0.090 SA
BRANCH  13  14
HETATM   14  C10 UNL     1      37.284 161.921  57.706  1.00  0.00     0.160 A 
HETATM   15  N2  UNL     1      37.665 162.678  56.672  1.00  0.00    -0.278 N 
HETATM   16  N3  UNL     1      38.775 163.328  56.913  1.00  0.00    -0.287 N 
ATOM     17  H2  UNL     1      37.148 162.743  55.794  1.00  0.00     0.189 HD
HETATM   18  C11 UNL     1      39.146 162.990  58.157  1.00  0.00     0.101 A 
ATOM     19  H3  UNL     1      39.261 163.965  56.281  1.00  0.00     0.188 HD
HETATM   20  N4  UNL     1      38.258 162.145  58.643  1.00  0.00    -0.324 N 
ATOM     21  H4  UNL     1      38.291 161.724  59.571  1.00  0.00     0.169 HD
BRANCH  18  22
HETATM   22  C12 UNL     1      40.373 163.503  58.829  1.00  0.00     0.047 C 
HETATM   23  C13 UNL     1      41.035 162.374  59.625  1.00  0.00     0.017 C 
HETATM   24  C14 UNL     1      41.361 164.093  57.841  1.00  0.00     0.017 C 
ENDBRANCH  18  22
ENDBRANCH  13  14
ENDBRANCH  12  13
ENDBRANCH   1  12
BRANCH   1  25
HETATM   25  N5  UNL     1      36.206 157.515  58.515  1.00  0.00     0.100 N 
HETATM   26  C15 UNL     1      36.371 157.617  57.071  1.00  0.00     0.299 C 
HETATM   27  C16 UNL     1      37.821 157.603  56.717  1.00  0.00     0.198 C 
HETATM   28  O2  UNL     1      38.546 156.553  57.249  1.00  0.00    -0.388 OA
HETATM   29  C17 UNL     1      38.287 156.335  58.586  1.00  0.00     0.198 C 
HETATM   30  C18 UNL     1      37.527 157.544  59.138  1.00  0.00     0.299 C 
ENDBRANCH   1  25
TORSDOF 9
ENDMDL
