MODEL 1
REMARK VINA RESULT: -4.081631057      0.000      0.000
REMARK  2 active torsions:
REMARK  status: ('A' for Active; 'I' for Inactive)
REMARK    1  A    between atoms: C2_2  and  N1_4 
REMARK    2  A    between atoms: N1_4  and  C4_7 
ROOT
HETATM    1  C4  UNL     1       6.769  29.617  20.985  1.00  0.00     0.296 C 
HETATM    2  C5  UNL     1       7.529  29.478  22.273  1.00  0.00     0.137 C 
HETATM    3  S1  UNL     1       8.014  31.210  22.569  1.00  0.00    -0.091 SA
HETATM    4  C6  UNL     1       6.977  31.943  21.292  1.00  0.00     0.135 C 
HETATM    5  N2  UNL     1       7.033  33.117  20.800  1.00  0.00    -0.380 N 
ATOM      6  H21 UNL     1       6.445  33.532  20.077  1.00  0.00     0.158 HD
ATOM      7  H22 UNL     1       7.673  33.877  21.032  1.00  0.00     0.158 HD
HETATM    8  N3  UNL     1       6.079  30.876  20.968  1.00  0.00    -0.343 N 
ATOM      9  H3  UNL     1       5.089  30.994  20.755  1.00  0.00     0.163 HD
ENDROOT
BRANCH   1  10
HETATM   10  N1  UNL     1       7.727  29.525  19.913  1.00  0.00    -0.050 N 
ATOM     11  H12 UNL     1       8.449  28.840  20.136  1.00  0.00     0.280 HD
ATOM     12  H11 UNL     1       8.297  30.369  19.870  1.00  0.00     0.280 HD
BRANCH  10  13
HETATM   13  C2  UNL     1       7.147  29.244  18.630  1.00  0.00     0.180 C 
HETATM   14  C1  UNL     1       6.925  30.448  17.787  1.00  0.00     0.039 C 
HETATM   15  C3  UNL     1       7.888  28.141  17.884  1.00  0.00     0.039 C 
ENDBRANCH  10  13
ENDBRANCH   1  10
TORSDOF 2
ENDMDL
MODEL 2
REMARK VINA RESULT: -3.729567510      2.102      4.099
REMARK  2 active torsions:
REMARK  status: ('A' for Active; 'I' for Inactive)
REMARK    1  A    between atoms: C2_2  and  N1_4 
REMARK    2  A    between atoms: N1_4  and  C4_7 
ROOT
HETATM    1  C4  UNL     1       6.662  30.575  20.451  1.00  0.00     0.296 C 
HETATM    2  C5  UNL     1       6.328  31.444  19.273  1.00  0.00     0.137 C 
HETATM    3  S1  UNL     1       7.063  30.475  17.916  1.00  0.00    -0.091 SA
HETATM    4  C6  UNL     1       7.399  28.988  18.875  1.00  0.00     0.135 C 
HETATM    5  N2  UNL     1       8.146  28.001  18.574  1.00  0.00    -0.380 N 
ATOM      6  H21 UNL     1       8.337  27.158  19.116  1.00  0.00     0.158 HD
ATOM      7  H22 UNL     1       8.702  27.854  17.731  1.00  0.00     0.158 HD
HETATM    8  N3  UNL     1       6.618  29.195  20.056  1.00  0.00    -0.343 N 
ATOM      9  H3  UNL     1       6.104  28.465  20.549  1.00  0.00     0.163 HD
ENDROOT
BRANCH   1  10
HETATM   10  N1  UNL     1       7.976  30.954  20.902  1.00  0.00    -0.050 N 
ATOM     11  H12 UNL     1       8.258  31.837  20.477  1.00  0.00     0.280 HD
ATOM     12  H11 UNL     1       8.683  30.336  20.503  1.00  0.00     0.280 HD
BRANCH  10  13
HETATM   13  C2  UNL     1       8.112  31.017  22.330  1.00  0.00     0.180 C 
HETATM   14  C1  UNL     1       7.107  31.885  22.998  1.00  0.00     0.039 C 
HETATM   15  C3  UNL     1       8.205  29.637  22.968  1.00  0.00     0.039 C 
ENDBRANCH  10  13
ENDBRANCH   1  10
TORSDOF 2
ENDMDL
MODEL 3
REMARK VINA RESULT: -3.460477893      1.752      3.079
REMARK  2 active torsions:
REMARK  status: ('A' for Active; 'I' for Inactive)
REMARK    1  A    between atoms: C2_2  and  N1_4 
REMARK    2  A    between atoms: N1_4  and  C4_7 
ROOT
HETATM    1  C4  UNL     1       7.408  31.918  21.601  1.00  0.00     0.296 C 
HETATM    2  C5  UNL     1       7.444  31.767  23.094  1.00  0.00     0.137 C 
HETATM    3  S1  UNL     1       7.673  29.965  23.247  1.00  0.00    -0.091 SA
HETATM    4  C6  UNL     1       8.023  29.647  21.510  1.00  0.00     0.135 C 
HETATM    5  N2  UNL     1       8.030  28.532  20.892  1.00  0.00    -0.380 N 
ATOM      6  H21 UNL     1       8.229  28.352  19.908  1.00  0.00     0.158 HD
ATOM      7  H22 UNL     1       7.841  27.598  21.256  1.00  0.00     0.158 HD
HETATM    8  N3  UNL     1       8.289  30.957  20.999  1.00  0.00    -0.343 N 
ATOM      9  H3  UNL     1       9.004  31.178  20.306  1.00  0.00     0.163 HD
ENDROOT
BRANCH   1  10
HETATM   10  N1  UNL     1       6.044  31.717  21.184  1.00  0.00    -0.050 N 
ATOM     11  H12 UNL     1       5.400  32.140  21.853  1.00  0.00     0.280 HD
ATOM     12  H11 UNL     1       5.780  30.737  21.287  1.00  0.00     0.280 HD
BRANCH  10  13
HETATM   13  C2  UNL     1       5.761  32.177  19.854  1.00  0.00     0.180 C 
HETATM   14  C1  UNL     1       6.266  33.544  19.564  1.00  0.00     0.039 C 
HETATM   15  C3  UNL     1       6.171  31.167  18.789  1.00  0.00     0.039 C 
ENDBRANCH  10  13
ENDBRANCH   1  10
TORSDOF 2
ENDMDL
MODEL 4
REMARK VINA RESULT: -3.331231475      1.007      1.476
REMARK  2 active torsions:
REMARK  status: ('A' for Active; 'I' for Inactive)
REMARK    1  A    between atoms: C2_2  and  N1_4 
REMARK    2  A    between atoms: N1_4  and  C4_7 
ROOT
HETATM    1  C4  UNL     1       6.413  30.361  19.834  1.00  0.00     0.296 C 
HETATM    2  C5  UNL     1       7.119  29.707  20.986  1.00  0.00     0.137 C 
HETATM    3  S1  UNL     1       7.762  31.169  21.865  1.00  0.00    -0.091 SA
HETATM    4  C6  UNL     1       6.839  32.401  20.931  1.00  0.00     0.135 C 
HETATM    5  N2  UNL     1       7.023  33.661  20.880  1.00  0.00    -0.380 N 
ATOM      6  H21 UNL     1       6.500  34.359  20.352  1.00  0.00     0.158 HD
ATOM      7  H22 UNL     1       7.728  34.224  21.357  1.00  0.00     0.158 HD
HETATM    8  N3  UNL     1       5.850  31.611  20.263  1.00  0.00    -0.343 N 
ATOM      9  H3  UNL     1       4.883  31.895  20.112  1.00  0.00     0.163 HD
ENDROOT
BRANCH   1  10
HETATM   10  N1  UNL     1       7.387  30.551  18.789  1.00  0.00    -0.050 N 
ATOM     11  H12 UNL     1       8.330  30.558  19.178  1.00  0.00     0.280 HD
ATOM     12  H11 UNL     1       7.341  31.504  18.428  1.00  0.00     0.280 HD
BRANCH  10  13
HETATM   13  C2  UNL     1       7.291  29.602  17.717  1.00  0.00     0.180 C 
HETATM   14  C1  UNL     1       7.851  28.263  18.039  1.00  0.00     0.039 C 
HETATM   15  C3  UNL     1       5.886  29.520  17.134  1.00  0.00     0.039 C 
ENDBRANCH  10  13
ENDBRANCH   1  10
TORSDOF 2
ENDMDL
MODEL 5
REMARK VINA RESULT: -3.199135566      1.035      1.097
REMARK  2 active torsions:
REMARK  status: ('A' for Active; 'I' for Inactive)
REMARK    1  A    between atoms: C2_2  and  N1_4 
REMARK    2  A    between atoms: N1_4  and  C4_7 
ROOT
HETATM    1  C4  UNL     1       6.401  30.359  19.992  1.00  0.00     0.296 C 
HETATM    2  C5  UNL     1       7.189  29.750  21.116  1.00  0.00     0.137 C 
HETATM    3  S1  UNL     1       7.892  31.245  21.887  1.00  0.00    -0.091 SA
HETATM    4  C6  UNL     1       6.902  32.440  20.974  1.00  0.00     0.135 C 
HETATM    5  N2  UNL     1       7.080  33.697  20.860  1.00  0.00    -0.380 N 
ATOM      6  H21 UNL     1       6.519  34.374  20.344  1.00  0.00     0.158 HD
ATOM      7  H22 UNL     1       7.816  34.277  21.263  1.00  0.00     0.158 HD
HETATM    8  N3  UNL     1       5.869  31.626  20.410  1.00  0.00    -0.343 N 
ATOM      9  H3  UNL     1       4.893  31.905  20.318  1.00  0.00     0.163 HD
ENDROOT
BRANCH   1  10
HETATM   10  N1  UNL     1       7.297  30.506  18.873  1.00  0.00    -0.050 N 
ATOM     11  H12 UNL     1       8.254  30.649  19.199  1.00  0.00     0.280 HD
ATOM     12  H11 UNL     1       7.139  31.398  18.404  1.00  0.00     0.280 HD
BRANCH  10  13
HETATM   13  C2  UNL     1       7.243  29.425  17.930  1.00  0.00     0.180 C 
HETATM   14  C1  UNL     1       8.133  29.600  16.753  1.00  0.00     0.039 C 
HETATM   15  C3  UNL     1       7.415  28.065  18.593  1.00  0.00     0.039 C 
ENDBRANCH  10  13
ENDBRANCH   1  10
TORSDOF 2
ENDMDL
