MODEL 1
REMARK VINA RESULT: -5.548048920      0.000      0.000
REMARK  3 active torsions:
REMARK  status: ('A' for Active; 'I' for Inactive)
REMARK    1  A    between atoms: C7_7  and  N1_9 
REMARK    2  A    between atoms: N1_9  and  N2_10 
REMARK    3  A    between atoms: N2_10  and  N3_11 
ROOT
HETATM    1  C1  UNL     1       6.784  33.397  20.532  1.00  0.00     0.012 C 
HETATM    2  C2  UNL     1       7.403  32.005  20.619  1.00  0.00     0.007 C 
HETATM    3  C3  UNL     1       7.398  31.662  22.084  1.00  0.00     0.006 C 
HETATM    4  C4  UNL     1       7.831  30.292  22.414  1.00  0.00     0.001 C 
HETATM    5  C5  UNL     1       7.721  29.346  21.270  1.00  0.00     0.002 C 
HETATM    6  C6  UNL     1       6.565  29.660  20.359  1.00  0.00     0.028 C 
HETATM    7  C7  UNL     1       6.659  31.045  19.758  1.00  0.00     0.048 C 
HETATM    8  C8  UNL     1       5.261  31.552  19.563  1.00  0.00     0.036 C 
ENDROOT
BRANCH   7   9
HETATM    9  N1  UNL     1       7.348  30.893  18.477  1.00  0.00    -0.116 NA
BRANCH   9  10
HETATM   10  N2  UNL     1       7.115  29.662  17.888  1.00  0.00    -0.038 NA
BRANCH  10  11
HETATM   11  N3  UNL     1       8.225  29.195  17.150  1.00  0.00    -0.332 N 
ATOM     12  H32 UNL     1       9.047  28.780  17.589  1.00  0.00     0.173 HD
ATOM     13  H31 UNL     1       8.107  29.320  16.145  1.00  0.00     0.173 HD
ENDBRANCH  10  11
ENDBRANCH   9  10
ENDBRANCH   7   9
TORSDOF 3
ENDMDL
MODEL 2
REMARK VINA RESULT: -4.043997618      2.816      3.638
REMARK  3 active torsions:
REMARK  status: ('A' for Active; 'I' for Inactive)
REMARK    1  A    between atoms: C7_7  and  N1_9 
REMARK    2  A    between atoms: N1_9  and  N2_10 
REMARK    3  A    between atoms: N2_10  and  N3_11 
ROOT
HETATM    1  C1  UNL     1       5.884  33.298  19.607  1.00  0.00     0.012 C 
HETATM    2  C2  UNL     1       6.051  31.832  20.000  1.00  0.00     0.007 C 
HETATM    3  C3  UNL     1       6.446  31.127  18.731  1.00  0.00     0.006 C 
HETATM    4  C4  UNL     1       6.798  29.703  18.883  1.00  0.00     0.001 C 
HETATM    5  C5  UNL     1       7.184  29.336  20.272  1.00  0.00     0.002 C 
HETATM    6  C6  UNL     1       7.883  30.451  21.002  1.00  0.00     0.028 C 
HETATM    7  C7  UNL     1       7.030  31.696  21.112  1.00  0.00     0.048 C 
HETATM    8  C8  UNL     1       7.950  32.881  21.096  1.00  0.00     0.036 C 
ENDROOT
BRANCH   7   9
HETATM    9  N1  UNL     1       6.320  31.597  22.387  1.00  0.00    -0.116 NA
BRANCH   9  10
HETATM   10  N2  UNL     1       7.161  31.734  23.478  1.00  0.00    -0.038 NA
BRANCH  10  11
HETATM   11  N3  UNL     1       7.927  30.572  23.722  1.00  0.00    -0.332 N 
ATOM     12  H32 UNL     1       7.565  29.767  24.234  1.00  0.00     0.173 HD
ATOM     13  H31 UNL     1       8.867  30.634  23.333  1.00  0.00     0.173 HD
ENDBRANCH  10  11
ENDBRANCH   9  10
ENDBRANCH   7   9
TORSDOF 3
ENDMDL
MODEL 3
REMARK VINA RESULT: -3.582288444      0.923      1.023
REMARK  3 active torsions:
REMARK  status: ('A' for Active; 'I' for Inactive)
REMARK    1  A    between atoms: C7_7  and  N1_9 
REMARK    2  A    between atoms: N1_9  and  N2_10 
REMARK    3  A    between atoms: N2_10  and  N3_11 
ROOT
HETATM    1  C1  UNL     1       6.751  32.597  19.256  1.00  0.00     0.012 C 
HETATM    2  C2  UNL     1       7.419  31.589  20.187  1.00  0.00     0.007 C 
HETATM    3  C3  UNL     1       7.294  32.183  21.564  1.00  0.00     0.006 C 
HETATM    4  C4  UNL     1       7.754  31.320  22.668  1.00  0.00     0.001 C 
HETATM    5  C5  UNL     1       7.790  29.876  22.313  1.00  0.00     0.002 C 
HETATM    6  C6  UNL     1       6.710  29.484  21.341  1.00  0.00     0.028 C 
HETATM    7  C7  UNL     1       6.798  30.245  20.037  1.00  0.00     0.048 C 
HETATM    8  C8  UNL     1       5.403  30.411  19.511  1.00  0.00     0.036 C 
ENDROOT
BRANCH   7   9
HETATM    9  N1  UNL     1       7.607  29.426  19.136  1.00  0.00    -0.116 NA
BRANCH   9  10
HETATM   10  N2  UNL     1       7.211  29.535  17.814  1.00  0.00    -0.038 NA
BRANCH  10  11
HETATM   11  N3  UNL     1       8.225  29.149  16.909  1.00  0.00    -0.332 N 
ATOM     12  H32 UNL     1       8.626  29.788  16.222  1.00  0.00     0.173 HD
ATOM     13  H31 UNL     1       8.502  28.175  17.024  1.00  0.00     0.173 HD
ENDBRANCH  10  11
ENDBRANCH   9  10
ENDBRANCH   7   9
TORSDOF 3
ENDMDL
MODEL 4
REMARK VINA RESULT: -2.940879927      2.140      3.430
REMARK  3 active torsions:
REMARK  status: ('A' for Active; 'I' for Inactive)
REMARK    1  A    between atoms: C7_7  and  N1_9 
REMARK    2  A    between atoms: N1_9  and  N2_10 
REMARK    3  A    between atoms: N2_10  and  N3_11 
ROOT
HETATM    1  C1  UNL     1       7.209  30.287  21.971  1.00  0.00     0.012 C 
HETATM    2  C2  UNL     1       7.477  30.315  20.469  1.00  0.00     0.007 C 
HETATM    3  C3  UNL     1       7.467  28.873  20.040  1.00  0.00     0.006 C 
HETATM    4  C4  UNL     1       7.573  28.646  18.587  1.00  0.00     0.001 C 
HETATM    5  C5  UNL     1       7.178  29.827  17.774  1.00  0.00     0.002 C 
HETATM    6  C6  UNL     1       6.085  30.641  18.414  1.00  0.00     0.028 C 
HETATM    7  C7  UNL     1       6.478  31.173  19.774  1.00  0.00     0.048 C 
HETATM    8  C8  UNL     1       5.236  31.245  20.611  1.00  0.00     0.036 C 
ENDROOT
BRANCH   7   9
HETATM    9  N1  UNL     1       7.041  32.503  19.549  1.00  0.00    -0.116 NA
BRANCH   9  10
HETATM   10  N2  UNL     1       6.420  33.481  20.306  1.00  0.00    -0.038 NA
BRANCH  10  11
HETATM   11  N3  UNL     1       7.311  34.133  21.187  1.00  0.00    -0.332 N 
ATOM     12  H32 UNL     1       8.323  34.015  21.139  1.00  0.00     0.173 HD
ATOM     13  H31 UNL     1       6.830  34.725  21.864  1.00  0.00     0.173 HD
ENDBRANCH  10  11
ENDBRANCH   9  10
ENDBRANCH   7   9
TORSDOF 3
ENDMDL
MODEL 5
REMARK VINA RESULT: -2.692963144      2.096      3.207
REMARK  3 active torsions:
REMARK  status: ('A' for Active; 'I' for Inactive)
REMARK    1  A    between atoms: C7_7  and  N1_9 
REMARK    2  A    between atoms: N1_9  and  N2_10 
REMARK    3  A    between atoms: N2_10  and  N3_11 
ROOT
HETATM    1  C1  UNL     1       7.045  28.872  19.267  1.00  0.00     0.012 C 
HETATM    2  C2  UNL     1       6.845  29.694  20.538  1.00  0.00     0.007 C 
HETATM    3  C3  UNL     1       7.919  29.226  21.482  1.00  0.00     0.006 C 
HETATM    4  C4  UNL     1       8.018  29.976  22.748  1.00  0.00     0.001 C 
HETATM    5  C5  UNL     1       7.411  31.332  22.679  1.00  0.00     0.002 C 
HETATM    6  C6  UNL     1       7.544  31.967  21.321  1.00  0.00     0.028 C 
HETATM    7  C7  UNL     1       6.884  31.150  20.232  1.00  0.00     0.048 C 
HETATM    8  C8  UNL     1       7.665  31.359  18.969  1.00  0.00     0.036 C 
ENDROOT
BRANCH   7   9
HETATM    9  N1  UNL     1       5.521  31.663  20.100  1.00  0.00    -0.116 NA
BRANCH   9  10
HETATM   10  N2  UNL     1       5.428  33.012  20.396  1.00  0.00    -0.038 NA
BRANCH  10  11
HETATM   11  N3  UNL     1       5.849  33.833  19.325  1.00  0.00    -0.332 N 
ATOM     12  H32 UNL     1       6.798  33.812  18.952  1.00  0.00     0.173 HD
ATOM     13  H31 UNL     1       5.103  34.435  18.978  1.00  0.00     0.173 HD
ENDBRANCH  10  11
ENDBRANCH   9  10
ENDBRANCH   7   9
TORSDOF 3
ENDMDL
