MODEL 1
REMARK VINA RESULT: -7.584055273      0.000      0.000
REMARK  14 active torsions:
REMARK  status: ('A' for Active; 'I' for Inactive)
REMARK    1  A    between atoms: C3_4  and  O2_5 
REMARK    2  A    between atoms: C3_4  and  C4_7 
REMARK    3  A    between atoms: C4_7  and  O3_8 
REMARK    4  A    between atoms: C4_7  and  C5_10 
REMARK    5  A    between atoms: C5_10  and  O4_11 
REMARK    6  A    between atoms: C5_10  and  C6_13 
REMARK    7  A    between atoms: C6_13  and  O5_14 
REMARK    8  A    between atoms: C7_16  and  O6_17 
REMARK    9  A    between atoms: O6_17  and  C8_18 
REMARK   10  A    between atoms: C9_22  and  N2_23 
REMARK   11  A    between atoms: C9_22  and  C10_27 
REMARK   12  A    between atoms: C11_30  and  C12_31 
REMARK   13  A    between atoms: C16_38  and  O12_39 
REMARK   14  A    between atoms: C16_38  and  C17_41 
ROOT
HETATM    1  C8  UNL     1      10.461  17.312  40.563  1.00  0.00     0.338 C 
HETATM    2  N1  UNL     1      10.595  17.712  41.955  1.00  0.00     0.000 N 
ATOM      3  H11 UNL     1       9.929  17.253  42.576  1.00  0.00     0.284 HD
ATOM      4  H12 UNL     1      10.292  18.669  42.136  1.00  0.00     0.284 HD
HETATM    5  C9  UNL     1      11.975  17.466  42.303  1.00  0.00     0.414 C 
HETATM    6  C11 UNL     1      12.342  16.211  41.561  1.00  0.00     0.231 C 
HETATM    7  O11 UNL     1      13.590  16.283  40.997  1.00  0.00    -0.350 OA
HETATM    8  C13 UNL     1      13.564  15.797  39.715  1.00  0.00     0.097 C 
HETATM    9  C14 UNL     1      13.919  14.330  39.595  1.00  0.00     0.049 C 
HETATM   10  C15 UNL     1      14.567  16.533  38.837  1.00  0.00     0.049 C 
HETATM   11  C16 UNL     1      12.148  16.000  39.192  1.00  0.00     0.187 C 
HETATM   12  C18 UNL     1      11.349  16.132  40.437  1.00  0.00     0.141 C 
ENDROOT
BRANCH   1  13
HETATM   13  O6  UNL     1       9.124  16.902  40.337  1.00  0.00    -0.328 OA
BRANCH  13  14
HETATM   14  C7  UNL     1       9.022  15.557  40.065  1.00  0.00     0.290 C 
HETATM   15  C3  UNL     1       8.132  15.237  38.877  1.00  0.00     0.237 C 
HETATM   16  O1  UNL     1       6.839  15.647  39.083  1.00  0.00    -0.337 OA
HETATM   17  C2  UNL     1       6.260  15.212  40.245  1.00  0.00     0.185 C 
HETATM   18  C1  UNL     1       5.190  14.190  39.863  1.00  0.00     0.047 C 
HETATM   19  C19 UNL     1       7.167  14.700  41.271  1.00  0.00     0.120 C 
HETATM   20  N3  UNL     1       8.429  14.847  41.205  1.00  0.00    -0.349 N 
HETATM   21  N4  UNL     1       6.598  13.998  42.398  1.00  0.00    -0.085 NA
ATOM     22  H3  UNL     1       9.027  14.474  41.942  1.00  0.00     0.163 HD
BRANCH  15  23
HETATM   23  O2  UNL     1       8.171  13.827  38.757  1.00  0.00    -0.360 OA
ATOM     24  H2  UNL     1       8.934  13.570  38.253  1.00  0.00     0.213 HD
ENDBRANCH  15  23
BRANCH  15  25
HETATM   25  C4  UNL     1       8.661  15.789  37.595  1.00  0.00     0.215 C 
BRANCH  25  26
HETATM   26  O3  UNL     1       9.450  14.857  36.916  1.00  0.00    -0.387 OA
ATOM     27  H3  UNL     1       9.985  15.268  36.247  1.00  0.00     0.210 HD
ENDBRANCH  25  26
BRANCH  25  28
HETATM   28  C5  UNL     1       7.517  16.141  36.665  1.00  0.00     0.176 C 
BRANCH  28  29
HETATM   29  O4  UNL     1       6.942  14.976  36.145  1.00  0.00    -0.391 OA
ATOM     30  H4  UNL     1       5.997  15.012  36.227  1.00  0.00     0.210 HD
ENDBRANCH  28  29
BRANCH  28  31
HETATM   31  C6  UNL     1       8.020  16.947  35.487  1.00  0.00     0.198 C 
BRANCH  31  32
HETATM   32  O5  UNL     1       9.114  17.693  35.916  1.00  0.00    -0.398 OA
ATOM     33  H5  UNL     1       9.772  17.666  35.231  1.00  0.00     0.209 HD
ENDBRANCH  31  32
ENDBRANCH  28  31
ENDBRANCH  25  28
ENDBRANCH  15  25
ENDBRANCH  13  14
ENDBRANCH   1  13
BRANCH   5  34
HETATM   34  N2  UNL     1      11.986  17.207  43.734  1.00  0.00    -0.031 N 
ATOM     35  H23 UNL     1      11.622  17.981  44.291  1.00  0.00     0.278 HD
ATOM     36  H22 UNL     1      11.300  16.511  44.027  1.00  0.00     0.278 HD
ATOM     37  H21 UNL     1      12.947  16.955  43.966  1.00  0.00     0.278 HD
ENDBRANCH   5  34
BRANCH   5  38
HETATM   38  C10 UNL     1      12.814  18.633  41.964  1.00  0.00     0.244 C 
HETATM   39  O7  UNL     1      12.625  19.728  42.531  1.00  0.00    -0.645 OA
HETATM   40  O8  UNL     1      13.812  18.523  41.021  1.00  0.00    -0.645 OA
ENDBRANCH   5  38
BRANCH   6  41
HETATM   41  C12 UNL     1      12.283  15.042  42.474  1.00  0.00     0.215 C 
HETATM   42  O9  UNL     1      11.181  14.491  42.690  1.00  0.00    -0.646 OA
HETATM   43  O10 UNL     1      13.400  14.524  43.106  1.00  0.00    -0.646 OA
ENDBRANCH   6  41
BRANCH  11  44
HETATM   44  O12 UNL     1      11.709  14.797  38.575  1.00  0.00    -0.376 OA
ATOM     45  H12 UNL     1      10.760  14.783  38.570  1.00  0.00     0.211 HD
ENDBRANCH  11  44
BRANCH  11  46
HETATM   46  C17 UNL     1      12.064  17.078  38.217  1.00  0.00     0.212 C 
HETATM   47  O13 UNL     1      12.190  18.312  38.438  1.00  0.00    -0.646 OA
HETATM   48  O14 UNL     1      11.817  16.770  36.860  1.00  0.00    -0.646 OA
ENDBRANCH  11  46
TORSDOF 14
ENDMDL
MODEL 2
REMARK VINA RESULT: -7.372620077      1.919      3.782
REMARK  14 active torsions:
REMARK  status: ('A' for Active; 'I' for Inactive)
REMARK    1  A    between atoms: C3_4  and  O2_5 
REMARK    2  A    between atoms: C3_4  and  C4_7 
REMARK    3  A    between atoms: C4_7  and  O3_8 
REMARK    4  A    between atoms: C4_7  and  C5_10 
REMARK    5  A    between atoms: C5_10  and  O4_11 
REMARK    6  A    between atoms: C5_10  and  C6_13 
REMARK    7  A    between atoms: C6_13  and  O5_14 
REMARK    8  A    between atoms: C7_16  and  O6_17 
REMARK    9  A    between atoms: O6_17  and  C8_18 
REMARK   10  A    between atoms: C9_22  and  N2_23 
REMARK   11  A    between atoms: C9_22  and  C10_27 
REMARK   12  A    between atoms: C11_30  and  C12_31 
REMARK   13  A    between atoms: C16_38  and  O12_39 
REMARK   14  A    between atoms: C16_38  and  C17_41 
ROOT
HETATM    1  C8  UNL     1       9.733  15.269  40.285  1.00  0.00     0.338 C 
HETATM    2  N1  UNL     1      10.357  14.983  39.002  1.00  0.00     0.000 N 
ATOM      3  H11 UNL     1       9.874  15.407  38.210  1.00  0.00     0.284 HD
ATOM      4  H12 UNL     1      10.252  14.012  38.705  1.00  0.00     0.284 HD
HETATM    5  C9  UNL     1      11.733  15.403  39.132  1.00  0.00     0.414 C 
HETATM    6  C11 UNL     1      11.679  16.638  39.989  1.00  0.00     0.231 C 
HETATM    7  O11 UNL     1      12.678  16.667  40.928  1.00  0.00    -0.350 OA
HETATM    8  C13 UNL     1      12.180  17.057  42.144  1.00  0.00     0.097 C 
HETATM    9  C14 UNL     1      12.287  18.543  42.416  1.00  0.00     0.049 C 
HETATM   10  C15 UNL     1      12.932  16.379  43.281  1.00  0.00     0.049 C 
HETATM   11  C16 UNL     1      10.709  16.663  42.169  1.00  0.00     0.187 C 
HETATM   12  C18 UNL     1      10.376  16.529  40.728  1.00  0.00     0.141 C 
ENDROOT
BRANCH   1  13
HETATM   13  O6  UNL     1       8.354  15.512  40.071  1.00  0.00    -0.328 OA
BRANCH  13  14
HETATM   14  C7  UNL     1       7.617  14.351  39.999  1.00  0.00     0.290 C 
HETATM   15  C3  UNL     1       6.411  14.446  39.081  1.00  0.00     0.237 C 
HETATM   16  O1  UNL     1       5.518  15.396  39.507  1.00  0.00    -0.337 OA
HETATM   17  C2  UNL     1       5.119  15.287  40.813  1.00  0.00     0.185 C 
HETATM   18  C1  UNL     1       3.655  14.848  40.803  1.00  0.00     0.047 C 
HETATM   19  C19 UNL     1       5.940  14.438  41.675  1.00  0.00     0.120 C 
HETATM   20  N3  UNL     1       7.081  14.002  41.320  1.00  0.00    -0.349 N 
HETATM   21  N4  UNL     1       5.425  14.085  42.977  1.00  0.00    -0.085 NA
ATOM     22  H3  UNL     1       7.623  13.412  41.951  1.00  0.00     0.163 HD
BRANCH  15  23
HETATM   23  O2  UNL     1       5.807  13.167  39.134  1.00  0.00    -0.360 OA
ATOM     24  H2  UNL     1       6.468  12.509  39.314  1.00  0.00     0.213 HD
ENDBRANCH  15  23
BRANCH  15  25
HETATM   25  C4  UNL     1       6.789  14.681  37.656  1.00  0.00     0.215 C 
BRANCH  25  26
HETATM   26  O3  UNL     1       5.724  14.423  36.788  1.00  0.00    -0.387 OA
ATOM     27  H3  UNL     1       5.541  13.494  36.721  1.00  0.00     0.210 HD
ENDBRANCH  25  26
BRANCH  25  28
HETATM   28  C5  UNL     1       7.168  16.134  37.448  1.00  0.00     0.176 C 
BRANCH  28  29
HETATM   29  O4  UNL     1       6.047  16.874  37.055  1.00  0.00    -0.391 OA
ATOM     30  H4  UNL     1       5.402  16.888  37.753  1.00  0.00     0.210 HD
ENDBRANCH  28  29
BRANCH  28  31
HETATM   31  C6  UNL     1       8.189  16.262  36.338  1.00  0.00     0.198 C 
BRANCH  31  32
HETATM   32  O5  UNL     1       9.315  16.888  36.865  1.00  0.00    -0.398 OA
ATOM     33  H5  UNL     1       9.666  17.465  36.197  1.00  0.00     0.209 HD
ENDBRANCH  31  32
ENDBRANCH  28  31
ENDBRANCH  25  28
ENDBRANCH  15  25
ENDBRANCH  13  14
ENDBRANCH   1  13
BRANCH   5  34
HETATM   34  N2  UNL     1      12.170  15.759  37.791  1.00  0.00    -0.031 N 
ATOM     35  H23 UNL     1      11.400  15.917  37.140  1.00  0.00     0.278 HD
ATOM     36  H22 UNL     1      12.576  16.693  37.730  1.00  0.00     0.278 HD
ATOM     37  H21 UNL     1      12.807  15.018  37.498  1.00  0.00     0.278 HD
ENDBRANCH   5  34
BRANCH   5  38
HETATM   38  C10 UNL     1      12.560  14.316  39.693  1.00  0.00     0.244 C 
HETATM   39  O7  UNL     1      12.070  13.514  40.514  1.00  0.00    -0.645 OA
HETATM   40  O8  UNL     1      13.877  14.178  39.317  1.00  0.00    -0.645 OA
ENDBRANCH   5  38
BRANCH   6  41
HETATM   41  C12 UNL     1      11.768  17.852  39.141  1.00  0.00     0.215 C 
HETATM   42  O9  UNL     1      10.727  18.495  38.881  1.00  0.00    -0.646 OA
HETATM   43  O10 UNL     1      12.962  18.318  38.616  1.00  0.00    -0.646 OA
ENDBRANCH   6  41
BRANCH  11  44
HETATM   44  O12 UNL     1       9.945  17.765  42.642  1.00  0.00    -0.376 OA
ATOM     45  H12 UNL     1      10.247  17.997  43.512  1.00  0.00     0.211 HD
ENDBRANCH  11  44
BRANCH  11  46
HETATM   46  C17 UNL     1      10.453  15.519  43.032  1.00  0.00     0.212 C 
HETATM   47  O13 UNL     1      11.285  14.648  43.401  1.00  0.00    -0.646 OA
HETATM   48  O14 UNL     1       9.152  15.308  43.540  1.00  0.00    -0.646 OA
ENDBRANCH  11  46
TORSDOF 14
ENDMDL
MODEL 3
REMARK VINA RESULT: -7.353755992      1.686      3.192
REMARK  14 active torsions:
REMARK  status: ('A' for Active; 'I' for Inactive)
REMARK    1  A    between atoms: C3_4  and  O2_5 
REMARK    2  A    between atoms: C3_4  and  C4_7 
REMARK    3  A    between atoms: C4_7  and  O3_8 
REMARK    4  A    between atoms: C4_7  and  C5_10 
REMARK    5  A    between atoms: C5_10  and  O4_11 
REMARK    6  A    between atoms: C5_10  and  C6_13 
REMARK    7  A    between atoms: C6_13  and  O5_14 
REMARK    8  A    between atoms: C7_16  and  O6_17 
REMARK    9  A    between atoms: O6_17  and  C8_18 
REMARK   10  A    between atoms: C9_22  and  N2_23 
REMARK   11  A    between atoms: C9_22  and  C10_27 
REMARK   12  A    between atoms: C11_30  and  C12_31 
REMARK   13  A    between atoms: C16_38  and  O12_39 
REMARK   14  A    between atoms: C16_38  and  C17_41 
ROOT
HETATM    1  C8  UNL     1      10.721  16.342  40.504  1.00  0.00     0.338 C 
HETATM    2  N1  UNL     1      10.471  16.933  41.808  1.00  0.00     0.000 N 
ATOM      3  H11 UNL     1       9.875  16.362  42.407  1.00  0.00     0.284 HD
ATOM      4  H12 UNL     1       9.864  17.753  41.776  1.00  0.00     0.284 HD
HETATM    5  C9  UNL     1      11.773  17.200  42.375  1.00  0.00     0.414 C 
HETATM    6  C11 UNL     1      12.633  16.052  41.920  1.00  0.00     0.231 C 
HETATM    7  O11 UNL     1      13.881  16.458  41.524  1.00  0.00    -0.350 OA
HETATM    8  C13 UNL     1      14.237  15.835  40.356  1.00  0.00     0.097 C 
HETATM    9  C14 UNL     1      15.036  14.562  40.544  1.00  0.00     0.049 C 
HETATM   10  C15 UNL     1      15.112  16.743  39.502  1.00  0.00     0.049 C 
HETATM   11  C16 UNL     1      12.946  15.495  39.622  1.00  0.00     0.187 C 
HETATM   12  C18 UNL     1      11.933  15.512  40.706  1.00  0.00     0.141 C 
ENDROOT
BRANCH   1  13
HETATM   13  O6  UNL     1       9.635  15.491  40.179  1.00  0.00    -0.328 OA
BRANCH  13  14
HETATM   14  C7  UNL     1       8.696  16.110  39.386  1.00  0.00     0.290 C 
HETATM   15  C3  UNL     1       7.313  15.490  39.475  1.00  0.00     0.237 C 
HETATM   16  O1  UNL     1       7.311  14.184  39.056  1.00  0.00    -0.337 OA
HETATM   17  C2  UNL     1       7.858  13.960  37.821  1.00  0.00     0.185 C 
HETATM   18  C1  UNL     1       6.713  13.584  36.880  1.00  0.00     0.047 C 
HETATM   19  C19 UNL     1       8.689  15.032  37.274  1.00  0.00     0.120 C 
HETATM   20  N3  UNL     1       9.079  16.020  37.972  1.00  0.00    -0.349 N 
HETATM   21  N4  UNL     1       9.072  14.956  35.883  1.00  0.00    -0.085 NA
ATOM     22  H3  UNL     1       9.658  16.747  37.552  1.00  0.00     0.163 HD
BRANCH  15  23
HETATM   23  O2  UNL     1       6.504  16.268  38.612  1.00  0.00    -0.360 OA
ATOM     24  H2  UNL     1       6.680  16.029  37.709  1.00  0.00     0.213 HD
ENDBRANCH  15  23
BRANCH  15  25
HETATM   25  C4  UNL     1       6.716  15.606  40.838  1.00  0.00     0.215 C 
BRANCH  25  26
HETATM   26  O3  UNL     1       5.322  15.505  40.804  1.00  0.00    -0.387 OA
ATOM     27  H3  UNL     1       4.994  14.927  41.483  1.00  0.00     0.210 HD
ENDBRANCH  25  26
BRANCH  25  28
HETATM   28  C5  UNL     1       7.205  14.475  41.721  1.00  0.00     0.176 C 
BRANCH  28  29
HETATM   29  O4  UNL     1       6.207  13.504  41.861  1.00  0.00    -0.391 OA
ATOM     30  H4  UNL     1       6.457  12.709  41.406  1.00  0.00     0.210 HD
ENDBRANCH  28  29
BRANCH  28  31
HETATM   31  C6  UNL     1       7.518  14.985  43.112  1.00  0.00     0.198 C 
BRANCH  31  32
HETATM   32  O5  UNL     1       8.900  15.100  43.222  1.00  0.00    -0.398 OA
ATOM     33  H5  UNL     1       9.174  15.837  42.689  1.00  0.00     0.209 HD
ENDBRANCH  31  32
ENDBRANCH  28  31
ENDBRANCH  25  28
ENDBRANCH  15  25
ENDBRANCH  13  14
ENDBRANCH   1  13
BRANCH   5  34
HETATM   34  N2  UNL     1      11.602  17.139  43.817  1.00  0.00    -0.031 N 
ATOM     35  H23 UNL     1      10.690  16.783  44.105  1.00  0.00     0.278 HD
ATOM     36  H22 UNL     1      12.163  16.414  44.264  1.00  0.00     0.278 HD
ATOM     37  H21 UNL     1      11.799  18.078  44.163  1.00  0.00     0.278 HD
ENDBRANCH   5  34
BRANCH   5  38
HETATM   38  C10 UNL     1      12.266  18.525  41.950  1.00  0.00     0.244 C 
HETATM   39  O7  UNL     1      12.375  18.795  40.737  1.00  0.00    -0.645 OA
HETATM   40  O8  UNL     1      12.608  19.475  42.887  1.00  0.00    -0.645 OA
ENDBRANCH   5  38
BRANCH   6  41
HETATM   41  C12 UNL     1      12.766  15.052  43.009  1.00  0.00     0.215 C 
HETATM   42  O9  UNL     1      11.837  14.238  43.209  1.00  0.00    -0.646 OA
HETATM   43  O10 UNL     1      13.881  14.973  43.827  1.00  0.00    -0.646 OA
ENDBRANCH   6  41
BRANCH  11  44
HETATM   44  O12 UNL     1      13.013  14.148  39.174  1.00  0.00    -0.376 OA
ATOM     45  H12 UNL     1      12.231  13.690  39.459  1.00  0.00     0.211 HD
ENDBRANCH  11  44
BRANCH  11  46
HETATM   46  C17 UNL     1      12.718  16.355  38.469  1.00  0.00     0.212 C 
HETATM   47  O13 UNL     1      12.977  17.585  38.378  1.00  0.00    -0.646 OA
HETATM   48  O14 UNL     1      12.147  15.810  37.298  1.00  0.00    -0.646 OA
ENDBRANCH  11  46
TORSDOF 14
ENDMDL
MODEL 4
REMARK VINA RESULT: -7.162026179      2.310      7.013
REMARK  14 active torsions:
REMARK  status: ('A' for Active; 'I' for Inactive)
REMARK    1  A    between atoms: C3_4  and  O2_5 
REMARK    2  A    between atoms: C3_4  and  C4_7 
REMARK    3  A    between atoms: C4_7  and  O3_8 
REMARK    4  A    between atoms: C4_7  and  C5_10 
REMARK    5  A    between atoms: C5_10  and  O4_11 
REMARK    6  A    between atoms: C5_10  and  C6_13 
REMARK    7  A    between atoms: C6_13  and  O5_14 
REMARK    8  A    between atoms: C7_16  and  O6_17 
REMARK    9  A    between atoms: O6_17  and  C8_18 
REMARK   10  A    between atoms: C9_22  and  N2_23 
REMARK   11  A    between atoms: C9_22  and  C10_27 
REMARK   12  A    between atoms: C11_30  and  C12_31 
REMARK   13  A    between atoms: C16_38  and  O12_39 
REMARK   14  A    between atoms: C16_38  and  C17_41 
ROOT
HETATM    1  C8  UNL     1       8.536  14.786  38.152  1.00  0.00     0.338 C 
HETATM    2  N1  UNL     1       7.987  14.017  39.258  1.00  0.00     0.000 N 
ATOM      3  H11 UNL     1       8.078  14.480  40.162  1.00  0.00     0.284 HD
ATOM      4  H12 UNL     1       8.533  13.186  39.489  1.00  0.00     0.284 HD
HETATM    5  C9  UNL     1       6.620  13.725  38.893  1.00  0.00     0.414 C 
HETATM    6  C11 UNL     1       6.144  14.954  38.167  1.00  0.00     0.231 C 
HETATM    7  O11 UNL     1       5.403  14.651  37.055  1.00  0.00    -0.350 OA
HETATM    8  C13 UNL     1       5.783  15.437  35.998  1.00  0.00     0.097 C 
HETATM    9  C14 UNL     1       4.966  16.702  35.834  1.00  0.00     0.049 C 
HETATM   10  C15 UNL     1       5.638  14.684  34.683  1.00  0.00     0.049 C 
HETATM   11  C16 UNL     1       7.237  15.824  36.234  1.00  0.00     0.187 C 
HETATM   12  C18 UNL     1       7.402  15.625  37.695  1.00  0.00     0.141 C 
ENDROOT
BRANCH   1  13
HETATM   13  O6  UNL     1       9.556  15.632  38.654  1.00  0.00    -0.328 OA
BRANCH  13  14
HETATM   14  C7  UNL     1      10.279  15.044  39.667  1.00  0.00     0.290 C 
HETATM   15  C3  UNL     1      10.798  16.028  40.701  1.00  0.00     0.237 C 
HETATM   16  O1  UNL     1      11.657  16.943  40.149  1.00  0.00    -0.337 OA
HETATM   17  C2  UNL     1      12.694  16.418  39.425  1.00  0.00     0.185 C 
HETATM   18  C1  UNL     1      13.974  16.667  40.223  1.00  0.00     0.047 C 
HETATM   19  C19 UNL     1      12.562  15.019  39.022  1.00  0.00     0.120 C 
HETATM   20  N3  UNL     1      11.469  14.377  39.125  1.00  0.00    -0.349 N 
HETATM   21  N4  UNL     1      13.725  14.349  38.488  1.00  0.00    -0.085 NA
ATOM     22  H3  UNL     1      11.419  13.401  38.832  1.00  0.00     0.163 HD
BRANCH  15  23
HETATM   23  O2  UNL     1      11.491  15.235  41.648  1.00  0.00    -0.360 OA
ATOM     24  H2  UNL     1      12.186  14.754  41.214  1.00  0.00     0.213 HD
ENDBRANCH  15  23
BRANCH  15  25
HETATM   25  C4  UNL     1       9.701  16.716  41.443  1.00  0.00     0.215 C 
BRANCH  25  26
HETATM   26  O3  UNL     1       8.794  17.330  40.575  1.00  0.00    -0.387 OA
ATOM     27  H3  UNL     1       8.496  18.167  40.910  1.00  0.00     0.210 HD
ENDBRANCH  25  26
BRANCH  25  28
HETATM   28  C5  UNL     1       8.906  15.711  42.252  1.00  0.00     0.176 C 
BRANCH  28  29
HETATM   29  O4  UNL     1       7.604  15.606  41.749  1.00  0.00    -0.391 OA
ATOM     30  H4  UNL     1       7.287  14.716  41.841  1.00  0.00     0.210 HD
ENDBRANCH  28  29
BRANCH  28  31
HETATM   31  C6  UNL     1       8.784  16.165  43.691  1.00  0.00     0.198 C 
BRANCH  31  32
HETATM   32  O5  UNL     1       9.138  17.510  43.745  1.00  0.00    -0.398 OA
ATOM     33  H5  UNL     1       8.571  17.935  44.377  1.00  0.00     0.209 HD
ENDBRANCH  31  32
ENDBRANCH  28  31
ENDBRANCH  25  28
ENDBRANCH  15  25
ENDBRANCH  13  14
ENDBRANCH   1  13
BRANCH   5  34
HETATM   34  N2  UNL     1       5.893  13.586  40.145  1.00  0.00    -0.031 N 
ATOM     35  H23 UNL     1       5.341  12.730  40.203  1.00  0.00     0.278 HD
ATOM     36  H22 UNL     1       6.495  13.399  40.946  1.00  0.00     0.278 HD
ATOM     37  H21 UNL     1       5.337  14.437  40.242  1.00  0.00     0.278 HD
ENDBRANCH   5  34
BRANCH   5  38
HETATM   38  C10 UNL     1       6.546  12.487  38.091  1.00  0.00     0.244 C 
HETATM   39  O7  UNL     1       7.589  11.881  37.775  1.00  0.00    -0.645 OA
HETATM   40  O8  UNL     1       5.327  11.992  37.685  1.00  0.00    -0.645 OA
ENDBRANCH   5  38
BRANCH   6  41
HETATM   41  C12 UNL     1       5.337  15.804  39.078  1.00  0.00     0.215 C 
HETATM   42  O9  UNL     1       5.918  16.624  39.824  1.00  0.00    -0.646 OA
HETATM   43  O10 UNL     1       3.956  15.735  39.146  1.00  0.00    -0.646 OA
ENDBRANCH   6  41
BRANCH  11  44
HETATM   44  O12 UNL     1       7.383  17.221  36.013  1.00  0.00    -0.376 OA
ATOM     45  H12 UNL     1       6.532  17.635  36.091  1.00  0.00     0.211 HD
ENDBRANCH  11  44
BRANCH  11  46
HETATM   46  C17 UNL     1       8.151  15.118  35.347  1.00  0.00     0.212 C 
HETATM   47  O13 UNL     1       8.313  13.871  35.262  1.00  0.00    -0.646 OA
HETATM   48  O14 UNL     1       8.972  15.855  34.464  1.00  0.00    -0.646 OA
ENDBRANCH  11  46
TORSDOF 14
ENDMDL
MODEL 5
REMARK VINA RESULT: -7.094299421      1.992      3.887
REMARK  14 active torsions:
REMARK  status: ('A' for Active; 'I' for Inactive)
REMARK    1  A    between atoms: C3_4  and  O2_5 
REMARK    2  A    between atoms: C3_4  and  C4_7 
REMARK    3  A    between atoms: C4_7  and  O3_8 
REMARK    4  A    between atoms: C4_7  and  C5_10 
REMARK    5  A    between atoms: C5_10  and  O4_11 
REMARK    6  A    between atoms: C5_10  and  C6_13 
REMARK    7  A    between atoms: C6_13  and  O5_14 
REMARK    8  A    between atoms: C7_16  and  O6_17 
REMARK    9  A    between atoms: O6_17  and  C8_18 
REMARK   10  A    between atoms: C9_22  and  N2_23 
REMARK   11  A    between atoms: C9_22  and  C10_27 
REMARK   12  A    between atoms: C11_30  and  C12_31 
REMARK   13  A    between atoms: C16_38  and  O12_39 
REMARK   14  A    between atoms: C16_38  and  C17_41 
ROOT
HETATM    1  C8  UNL     1       9.744  15.413  40.153  1.00  0.00     0.338 C 
HETATM    2  N1  UNL     1      10.385  15.134  38.878  1.00  0.00     0.000 N 
ATOM      3  H11 UNL     1       9.941  15.600  38.087  1.00  0.00     0.284 HD
ATOM      4  H12 UNL     1      10.246  14.178  38.550  1.00  0.00     0.284 HD
HETATM    5  C9  UNL     1      11.775  15.489  39.050  1.00  0.00     0.414 C 
HETATM    6  C11 UNL     1      11.755  16.700  39.941  1.00  0.00     0.231 C 
HETATM    7  O11 UNL     1      12.731  16.659  40.903  1.00  0.00    -0.350 OA
HETATM    8  C13 UNL     1      12.222  17.039  42.117  1.00  0.00     0.097 C 
HETATM    9  C14 UNL     1      12.389  18.511  42.433  1.00  0.00     0.049 C 
HETATM   10  C15 UNL     1      12.916  16.297  43.252  1.00  0.00     0.049 C 
HETATM   11  C16 UNL     1      10.735  16.711  42.097  1.00  0.00     0.187 C 
HETATM   12  C18 UNL     1      10.431  16.630  40.646  1.00  0.00     0.141 C 
ENDROOT
BRANCH   1  13
HETATM   13  O6  UNL     1       8.382  15.723  39.915  1.00  0.00    -0.328 OA
BRANCH  13  14
HETATM   14  C7  UNL     1       7.617  14.603  39.684  1.00  0.00     0.290 C 
HETATM   15  C3  UNL     1       6.437  14.845  38.760  1.00  0.00     0.237 C 
HETATM   16  O1  UNL     1       5.560  15.761  39.282  1.00  0.00    -0.337 OA
HETATM   17  C2  UNL     1       5.126  15.503  40.555  1.00  0.00     0.185 C 
HETATM   18  C1  UNL     1       3.651  15.113  40.461  1.00  0.00     0.047 C 
HETATM   19  C19 UNL     1       5.903  14.531  41.322  1.00  0.00     0.120 C 
HETATM   20  N3  UNL     1       7.040  14.109  40.940  1.00  0.00    -0.349 N 
HETATM   21  N4  UNL     1       5.347  14.036  42.560  1.00  0.00    -0.085 NA
ATOM     22  H3  UNL     1       7.550  13.430  41.504  1.00  0.00     0.163 HD
BRANCH  15  23
HETATM   23  O2  UNL     1       5.798  13.588  38.641  1.00  0.00    -0.360 OA
ATOM     24  H2  UNL     1       5.777  13.159  39.488  1.00  0.00     0.213 HD
ENDBRANCH  15  23
BRANCH  15  25
HETATM   25  C4  UNL     1       6.855  15.243  37.383  1.00  0.00     0.215 C 
BRANCH  25  26
HETATM   26  O3  UNL     1       7.664  16.383  37.395  1.00  0.00    -0.387 OA
ATOM     27  H3  UNL     1       7.666  16.823  36.554  1.00  0.00     0.210 HD
ENDBRANCH  25  26
BRANCH  25  28
HETATM   28  C5  UNL     1       7.679  14.141  36.748  1.00  0.00     0.176 C 
BRANCH  28  29
HETATM   29  O4  UNL     1       8.938  14.629  36.380  1.00  0.00    -0.391 OA
ATOM     30  H4  UNL     1       9.519  14.635  37.131  1.00  0.00     0.210 HD
ENDBRANCH  28  29
BRANCH  28  31
HETATM   31  C6  UNL     1       7.014  13.644  35.482  1.00  0.00     0.198 C 
BRANCH  31  32
HETATM   32  O5  UNL     1       6.166  12.597  35.829  1.00  0.00    -0.398 OA
ATOM     33  H5  UNL     1       6.223  12.476  36.769  1.00  0.00     0.209 HD
ENDBRANCH  31  32
ENDBRANCH  28  31
ENDBRANCH  25  28
ENDBRANCH  15  25
ENDBRANCH  13  14
ENDBRANCH   1  13
BRANCH   5  34
HETATM   34  N2  UNL     1      12.260  15.861  37.731  1.00  0.00    -0.031 N 
ATOM     35  H23 UNL     1      12.130  15.133  37.028  1.00  0.00     0.278 HD
ATOM     36  H22 UNL     1      11.691  16.575  37.275  1.00  0.00     0.278 HD
ATOM     37  H21 UNL     1      13.234  16.136  37.857  1.00  0.00     0.278 HD
ENDBRANCH   5  34
BRANCH   5  38
HETATM   38  C10 UNL     1      12.539  14.351  39.600  1.00  0.00     0.244 C 
HETATM   39  O7  UNL     1      12.010  13.579  40.424  1.00  0.00    -0.645 OA
HETATM   40  O8  UNL     1      13.842  14.132  39.208  1.00  0.00    -0.645 OA
ENDBRANCH   5  38
BRANCH   6  41
HETATM   41  C12 UNL     1      11.919  17.933  39.129  1.00  0.00     0.215 C 
HETATM   42  O9  UNL     1      10.913  18.629  38.865  1.00  0.00    -0.646 OA
HETATM   43  O10 UNL     1      13.144  18.357  38.643  1.00  0.00    -0.646 OA
ENDBRANCH   6  41
BRANCH  11  44
HETATM   44  O12 UNL     1      10.010  17.832  42.584  1.00  0.00    -0.376 OA
ATOM     45  H12 UNL     1      10.015  17.813  43.533  1.00  0.00     0.211 HD
ENDBRANCH  11  44
BRANCH  11  46
HETATM   46  C17 UNL     1      10.409  15.556  42.922  1.00  0.00     0.212 C 
HETATM   47  O13 UNL     1      11.211  14.693  43.369  1.00  0.00    -0.646 OA
HETATM   48  O14 UNL     1       9.065  15.323  43.292  1.00  0.00    -0.646 OA
ENDBRANCH  11  46
TORSDOF 14
ENDMDL
