MODEL 1
REMARK VINA RESULT: -6.826423546      0.000      0.000
REMARK  16 active torsions:
REMARK  status: ('A' for Active; 'I' for Inactive)
REMARK    1  A    between atoms: N1_1  and  C1_4 
REMARK    2  A    between atoms: C2_7  and  N3_8 
REMARK    3  A    between atoms: C3_11  and  C4_12 
REMARK       I    between atoms: C4_12  and  N4_14 
REMARK    4  A    between atoms: N4_14  and  S1_16 
REMARK    5  A    between atoms: S1_16  and  C5_19 
REMARK    6  A    between atoms: C6_21  and  C7_22 
REMARK    7  A    between atoms: C7_22  and  O7_23 
REMARK    8  A    between atoms: C8_25  and  O8_26 
REMARK    9  A    between atoms: C8_25  and  C10_36 
REMARK   10  A    between atoms: O8_26  and  C9_27 
REMARK   11  A    between atoms: C9_27  and  N5_28 
REMARK   12  A    between atoms: C9_27  and  N6_32 
REMARK   13  A    between atoms: C10_36  and  O9_37 
REMARK   14  A    between atoms: C10_36  and  O10_39 
REMARK   15  A    between atoms: C11_41  and  N7_42 
REMARK       I    between atoms: N7_42  and  C12_44 
REMARK   16  A    between atoms: C13_47  and  O12_48 
ROOT
HETATM    1  C5  UNL     1      15.391  15.269  37.568  1.00  0.00     0.295 C 
HETATM    2  O6  UNL     1      14.313  16.075  37.405  1.00  0.00    -0.355 OA
HETATM    3  C6  UNL     1      13.614  15.986  36.227  1.00  0.00     0.189 C 
HETATM    4  C8  UNL     1      13.297  14.586  35.793  1.00  0.00     0.165 C 
HETATM    5  C11 UNL     1      14.361  13.562  36.051  1.00  0.00     0.160 C 
HETATM    6  C13 UNL     1      15.080  13.802  37.356  1.00  0.00     0.189 C 
ENDROOT
BRANCH   1   7
HETATM    7  S1  UNL     1      15.970  15.417  39.234  1.00  0.00     0.263 S 
HETATM    8  O4  UNL     1      16.006  14.057  39.917  1.00  0.00    -0.203 OA
HETATM    9  O5  UNL     1      17.363  15.971  39.303  1.00  0.00    -0.203 OA
BRANCH   7  10
HETATM   10  N4  UNL     1      14.948  16.412  40.213  1.00  0.00    -0.248 N 
HETATM   11  C4  UNL     1      13.734  15.845  40.658  1.00  0.00     0.270 C 
HETATM   12  O3  UNL     1      13.429  14.635  40.341  1.00  0.00    -0.266 OA
ATOM     13  H4  UNL     1      15.211  17.367  40.458  1.00  0.00     0.182 HD
BRANCH  11  14
HETATM   14  C3  UNL     1      12.740  16.503  41.488  1.00  0.00     0.099 A 
HETATM   15  C2  UNL     1      11.872  17.448  41.062  1.00  0.00     0.205 A 
HETATM   16  N2  UNL     1      11.098  18.077  42.006  1.00  0.00    -0.170 N 
HETATM   17  C1  UNL     1      11.206  17.753  43.299  1.00  0.00     0.677 A 
ATOM     18  H2  UNL     1      10.436  18.798  41.718  1.00  0.00     0.186 HD
HETATM   19  N9  UNL     1      12.064  16.810  43.723  1.00  0.00    -0.201 N 
HETATM   20  C14 UNL     1      12.828  16.181  42.857  1.00  0.00     0.127 A 
ATOM     21  H9  UNL     1      12.123  16.583  44.715  1.00  0.00     0.183 HD
BRANCH  15  22
HETATM   22  N3  UNL     1      11.686  17.781  39.706  1.00  0.00    -0.096 N 
HETATM   23  O1  UNL     1      10.553  17.606  39.143  1.00  0.00    -0.530 OA
HETATM   24  O2  UNL     1      12.650  18.298  38.902  1.00  0.00    -0.530 OA
ENDBRANCH  15  22
BRANCH  17  25
HETATM   25  N1  UNL     1      10.483  18.335  44.218  1.00  0.00    -0.234 N 
ATOM     26  H12 UNL     1      10.464  19.355  44.203  1.00  0.00     0.174 HD
ATOM     27  H11 UNL     1       9.964  17.799  44.915  1.00  0.00     0.174 HD
ENDBRANCH  17  25
ENDBRANCH  11  14
ENDBRANCH   7  10
ENDBRANCH   1   7
BRANCH   6  28
HETATM   28  O12 UNL     1      16.288  13.110  37.315  1.00  0.00    -0.390 OA
ATOM     29  H12 UNL     1      16.273  12.543  36.552  1.00  0.00     0.210 HD
ENDBRANCH   6  28
BRANCH   3  30
HETATM   30  C7  UNL     1      14.118  16.966  35.226  1.00  0.00     0.199 C 
BRANCH  30  31
HETATM   31  O7  UNL     1      15.009  16.525  34.293  1.00  0.00    -0.398 OA
ATOM     32  H7  UNL     1      15.935  16.613  34.486  1.00  0.00     0.209 HD
ENDBRANCH  30  31
ENDBRANCH   3  30
BRANCH   5  33
HETATM   33  N7  UNL     1      15.270  13.314  34.963  1.00  0.00    -0.335 N 
HETATM   34  C12 UNL     1      15.291  12.164  34.147  1.00  0.00     0.329 C 
HETATM   35  N8  UNL     1      16.224  12.010  33.099  1.00  0.00    -0.040 NA
HETATM   36  O11 UNL     1      14.463  11.251  34.354  1.00  0.00    -0.251 OA
ATOM     37  H7  UNL     1      15.961  14.037  34.763  1.00  0.00     0.164 HD
ENDBRANCH   5  33
BRANCH   4  38
HETATM   38  O8  UNL     1      12.227  14.258  36.591  1.00  0.00    -0.318 OA
BRANCH  38  39
HETATM   39  C9  UNL     1      11.423  15.104  37.182  1.00  0.00     0.520 C 
BRANCH  39  40
HETATM   40  N5  UNL     1      11.097  14.565  38.528  1.00  0.00    -0.027 N 
ATOM     41  H53 UNL     1      10.147  14.200  38.586  1.00  0.00     0.279 HD
ATOM     42  H52 UNL     1      11.590  13.696  38.735  1.00  0.00     0.279 HD
ATOM     43  H51 UNL     1      11.282  15.297  39.214  1.00  0.00     0.279 HD
ENDBRANCH  39  40
BRANCH  39  44
HETATM   44  N6  UNL     1      10.119  15.067  36.506  1.00  0.00    -0.027 N 
ATOM     45  H63 UNL     1      10.128  15.563  35.614  1.00  0.00     0.279 HD
ATOM     46  H62 UNL     1       9.892  14.139  36.149  1.00  0.00     0.279 HD
ATOM     47  H61 UNL     1       9.409  15.426  37.144  1.00  0.00     0.279 HD
ENDBRANCH  39  44
ENDBRANCH  38  39
ENDBRANCH   4  38
BRANCH   4  48
HETATM   48  C10 UNL     1      12.879  14.633  34.349  1.00  0.00     0.293 C 
BRANCH  48  49
HETATM   49  O9  UNL     1      12.381  13.461  33.846  1.00  0.00    -0.368 OA
ATOM     50  H9  UNL     1      11.559  13.537  33.376  1.00  0.00     0.212 HD
ENDBRANCH  48  49
BRANCH  48  51
HETATM   51  O10 UNL     1      11.970  15.615  34.024  1.00  0.00    -0.368 OA
ATOM     52  H10 UNL     1      11.212  15.325  33.530  1.00  0.00     0.212 HD
ENDBRANCH  48  51
ENDBRANCH   4  48
TORSDOF 16
ENDMDL
MODEL 2
REMARK VINA RESULT: -6.550740256      2.088      4.104
REMARK  16 active torsions:
REMARK  status: ('A' for Active; 'I' for Inactive)
REMARK    1  A    between atoms: N1_1  and  C1_4 
REMARK    2  A    between atoms: C2_7  and  N3_8 
REMARK    3  A    between atoms: C3_11  and  C4_12 
REMARK       I    between atoms: C4_12  and  N4_14 
REMARK    4  A    between atoms: N4_14  and  S1_16 
REMARK    5  A    between atoms: S1_16  and  C5_19 
REMARK    6  A    between atoms: C6_21  and  C7_22 
REMARK    7  A    between atoms: C7_22  and  O7_23 
REMARK    8  A    between atoms: C8_25  and  O8_26 
REMARK    9  A    between atoms: C8_25  and  C10_36 
REMARK   10  A    between atoms: O8_26  and  C9_27 
REMARK   11  A    between atoms: C9_27  and  N5_28 
REMARK   12  A    between atoms: C9_27  and  N6_32 
REMARK   13  A    between atoms: C10_36  and  O9_37 
REMARK   14  A    between atoms: C10_36  and  O10_39 
REMARK   15  A    between atoms: C11_41  and  N7_42 
REMARK       I    between atoms: N7_42  and  C12_44 
REMARK   16  A    between atoms: C13_47  and  O12_48 
ROOT
HETATM    1  C5  UNL     1      12.312  16.070  36.317  1.00  0.00     0.295 C 
HETATM    2  O6  UNL     1      12.404  16.034  34.964  1.00  0.00    -0.355 OA
HETATM    3  C6  UNL     1      13.649  15.890  34.407  1.00  0.00     0.189 C 
HETATM    4  C8  UNL     1      14.487  14.809  35.021  1.00  0.00     0.165 C 
HETATM    5  C11 UNL     1      14.367  14.649  36.507  1.00  0.00     0.160 C 
HETATM    6  C13 UNL     1      12.956  14.878  36.993  1.00  0.00     0.189 C 
ENDROOT
BRANCH   1   7
HETATM    7  S1  UNL     1      10.603  16.037  36.777  1.00  0.00     0.263 S 
HETATM    8  O4  UNL     1       9.902  17.317  36.344  1.00  0.00    -0.203 OA
HETATM    9  O5  UNL     1       9.864  14.902  36.131  1.00  0.00    -0.203 OA
BRANCH   7  10
HETATM   10  N4  UNL     1      10.371  15.925  38.488  1.00  0.00    -0.248 N 
HETATM   11  C4  UNL     1      10.708  17.059  39.257  1.00  0.00     0.270 C 
HETATM   12  O3  UNL     1      11.158  18.121  38.686  1.00  0.00    -0.266 OA
ATOM     13  H4  UNL     1      10.007  15.076  38.921  1.00  0.00     0.182 HD
BRANCH  11  14
HETATM   14  C3  UNL     1      10.586  17.177  40.700  1.00  0.00     0.099 A 
HETATM   15  C2  UNL     1      11.610  17.087  41.577  1.00  0.00     0.205 A 
HETATM   16  N2  UNL     1      11.306  17.069  42.917  1.00  0.00    -0.170 N 
HETATM   17  C1  UNL     1      10.034  17.145  43.326  1.00  0.00     0.677 A 
ATOM     18  H2  UNL     1      12.055  16.998  43.604  1.00  0.00     0.186 HD
HETATM   19  N9  UNL     1       9.016  17.240  42.454  1.00  0.00    -0.201 N 
HETATM   20  C14 UNL     1       9.257  17.258  41.162  1.00  0.00     0.127 A 
ATOM     21  H9  UNL     1       8.057  17.298  42.796  1.00  0.00     0.183 HD
BRANCH  15  22
HETATM   22  N3  UNL     1      12.965  17.061  41.193  1.00  0.00    -0.096 N 
HETATM   23  O1  UNL     1      13.605  15.957  41.139  1.00  0.00    -0.530 OA
HETATM   24  O2  UNL     1      13.691  18.159  40.858  1.00  0.00    -0.530 OA
ENDBRANCH  15  22
BRANCH  17  25
HETATM   25  N1  UNL     1       9.716  17.132  44.592  1.00  0.00    -0.234 N 
ATOM     26  H12 UNL     1       8.913  16.558  44.852  1.00  0.00     0.174 HD
ATOM     27  H11 UNL     1      10.241  17.665  45.285  1.00  0.00     0.174 HD
ENDBRANCH  17  25
ENDBRANCH  11  14
ENDBRANCH   7  10
ENDBRANCH   1   7
BRANCH   6  28
HETATM   28  O12 UNL     1      13.010  15.138  38.360  1.00  0.00    -0.390 OA
ATOM     29  H12 UNL     1      12.435  14.520  38.797  1.00  0.00     0.210 HD
ENDBRANCH   6  28
BRANCH   3  30
HETATM   30  C7  UNL     1      14.263  17.213  34.109  1.00  0.00     0.199 C 
BRANCH  30  31
HETATM   31  O7  UNL     1      14.516  17.521  32.805  1.00  0.00    -0.398 OA
ATOM     32  H7  UNL     1      14.990  18.323  32.621  1.00  0.00     0.209 HD
ENDBRANCH  30  31
ENDBRANCH   3  30
BRANCH   5  33
HETATM   33  N7  UNL     1      15.339  15.360  37.294  1.00  0.00    -0.335 N 
HETATM   34  C12 UNL     1      15.911  14.914  38.504  1.00  0.00     0.329 C 
HETATM   35  N8  UNL     1      16.862  15.684  39.208  1.00  0.00    -0.040 NA
HETATM   36  O11 UNL     1      15.570  13.806  38.970  1.00  0.00    -0.251 OA
ATOM     37  H7  UNL     1      15.642  16.269  36.946  1.00  0.00     0.164 HD
ENDBRANCH   5  33
BRANCH   4  38
HETATM   38  O8  UNL     1      13.970  13.668  34.455  1.00  0.00    -0.318 OA
BRANCH  38  39
HETATM   39  C9  UNL     1      14.216  12.442  34.838  1.00  0.00     0.520 C 
BRANCH  39  40
HETATM   40  N5  UNL     1      15.359  11.931  34.038  1.00  0.00    -0.027 N 
ATOM     41  H53 UNL     1      15.241  10.956  33.761  1.00  0.00     0.279 HD
ATOM     42  H52 UNL     1      15.397  12.335  33.102  1.00  0.00     0.279 HD
ATOM     43  H51 UNL     1      16.213  12.089  34.572  1.00  0.00     0.279 HD
ENDBRANCH  39  40
BRANCH  39  44
HETATM   44  N6  UNL     1      13.112  11.579  34.395  1.00  0.00    -0.027 N 
ATOM     45  H63 UNL     1      12.440  12.075  33.810  1.00  0.00     0.279 HD
ATOM     46  H62 UNL     1      13.412  10.885  33.710  1.00  0.00     0.279 HD
ATOM     47  H61 UNL     1      12.678  11.156  35.216  1.00  0.00     0.279 HD
ENDBRANCH  39  44
ENDBRANCH  38  39
ENDBRANCH   4  38
BRANCH   4  48
HETATM   48  C10 UNL     1      15.909  15.017  34.576  1.00  0.00     0.293 C 
BRANCH  48  49
HETATM   49  O9  UNL     1      16.841  14.246  35.217  1.00  0.00    -0.368 OA
ATOM     50  H9  UNL     1      17.660  14.126  34.750  1.00  0.00     0.212 HD
ENDBRANCH  48  49
BRANCH  48  51
HETATM   51  O10 UNL     1      16.139  14.867  33.227  1.00  0.00    -0.368 OA
ATOM     52  H10 UNL     1      16.969  15.203  32.912  1.00  0.00     0.212 HD
ENDBRANCH  48  51
ENDBRANCH   4  48
TORSDOF 16
ENDMDL
MODEL 3
REMARK VINA RESULT: -6.527094869      3.298      8.088
REMARK  16 active torsions:
REMARK  status: ('A' for Active; 'I' for Inactive)
REMARK    1  A    between atoms: N1_1  and  C1_4 
REMARK    2  A    between atoms: C2_7  and  N3_8 
REMARK    3  A    between atoms: C3_11  and  C4_12 
REMARK       I    between atoms: C4_12  and  N4_14 
REMARK    4  A    between atoms: N4_14  and  S1_16 
REMARK    5  A    between atoms: S1_16  and  C5_19 
REMARK    6  A    between atoms: C6_21  and  C7_22 
REMARK    7  A    between atoms: C7_22  and  O7_23 
REMARK    8  A    between atoms: C8_25  and  O8_26 
REMARK    9  A    between atoms: C8_25  and  C10_36 
REMARK   10  A    between atoms: O8_26  and  C9_27 
REMARK   11  A    between atoms: C9_27  and  N5_28 
REMARK   12  A    between atoms: C9_27  and  N6_32 
REMARK   13  A    between atoms: C10_36  and  O9_37 
REMARK   14  A    between atoms: C10_36  and  O10_39 
REMARK   15  A    between atoms: C11_41  and  N7_42 
REMARK       I    between atoms: N7_42  and  C12_44 
REMARK   16  A    between atoms: C13_47  and  O12_48 
ROOT
HETATM    1  C5  UNL     1      10.245  17.272  40.340  1.00  0.00     0.295 C 
HETATM    2  O6  UNL     1      10.991  17.474  41.455  1.00  0.00    -0.355 OA
HETATM    3  C6  UNL     1      10.452  17.116  42.665  1.00  0.00     0.189 C 
HETATM    4  C8  UNL     1       9.822  15.756  42.691  1.00  0.00     0.165 C 
HETATM    5  C11 UNL     1       9.082  15.351  41.451  1.00  0.00     0.160 C 
HETATM    6  C13 UNL     1       9.758  15.845  40.196  1.00  0.00     0.189 C 
ENDROOT
BRANCH   1   7
HETATM    7  S1  UNL     1      11.242  17.602  38.915  1.00  0.00     0.263 S 
HETATM    8  O4  UNL     1      10.373  17.795  37.681  1.00  0.00    -0.203 OA
HETATM    9  O5  UNL     1      12.055  18.854  39.070  1.00  0.00    -0.203 OA
BRANCH   7  10
HETATM   10  N4  UNL     1      12.322  16.304  38.537  1.00  0.00    -0.248 N 
HETATM   11  C4  UNL     1      13.371  16.582  37.636  1.00  0.00     0.270 C 
HETATM   12  O3  UNL     1      13.503  17.762  37.137  1.00  0.00    -0.266 OA
ATOM     13  H4  UNL     1      12.204  15.378  38.948  1.00  0.00     0.182 HD
BRANCH  11  14
HETATM   14  C3  UNL     1      14.384  15.642  37.191  1.00  0.00     0.099 A 
HETATM   15  C2  UNL     1      14.995  14.726  37.976  1.00  0.00     0.205 A 
HETATM   16  N2  UNL     1      16.038  14.014  37.436  1.00  0.00    -0.170 N 
HETATM   17  C1  UNL     1      16.423  14.225  36.172  1.00  0.00     0.677 A 
ATOM     18  H2  UNL     1      16.522  13.318  38.003  1.00  0.00     0.186 HD
HETATM   19  N9  UNL     1      15.814  15.131  35.390  1.00  0.00    -0.201 N 
HETATM   20  C14 UNL     1      14.812  15.839  35.862  1.00  0.00     0.127 A 
ATOM     21  H9  UNL     1      16.128  15.270  34.429  1.00  0.00     0.183 HD
BRANCH  15  22
HETATM   22  N3  UNL     1      14.587  14.431  39.292  1.00  0.00    -0.096 N 
HETATM   23  O1  UNL     1      15.353  14.683  40.282  1.00  0.00    -0.530 OA
HETATM   24  O2  UNL     1      13.392  13.877  39.621  1.00  0.00    -0.530 OA
ENDBRANCH  15  22
BRANCH  17  25
HETATM   25  N1  UNL     1      17.411  13.563  35.633  1.00  0.00    -0.234 N 
ATOM     26  H12 UNL     1      17.157  12.801  35.004  1.00  0.00     0.174 HD
ATOM     27  H11 UNL     1      18.385  13.794  35.830  1.00  0.00     0.174 HD
ENDBRANCH  17  25
ENDBRANCH  11  14
ENDBRANCH   7  10
ENDBRANCH   1   7
BRANCH   6  28
HETATM   28  O12 UNL     1       8.823  15.814  39.164  1.00  0.00    -0.390 OA
ATOM     29  H12 UNL     1       8.634  14.904  38.969  1.00  0.00     0.210 HD
ENDBRANCH   6  28
BRANCH   3  30
HETATM   30  C7  UNL     1       9.745  18.263  43.299  1.00  0.00     0.199 C 
BRANCH  30  31
HETATM   31  O7  UNL     1      10.206  18.710  44.503  1.00  0.00    -0.398 OA
ATOM     32  H7  UNL     1       9.880  19.543  44.822  1.00  0.00     0.209 HD
ENDBRANCH  30  31
ENDBRANCH   3  30
BRANCH   5  33
HETATM   33  N7  UNL     1       7.668  15.616  41.452  1.00  0.00    -0.335 N 
HETATM   34  C12 UNL     1       6.643  14.646  41.476  1.00  0.00     0.329 C 
HETATM   35  N8  UNL     1       5.278  15.004  41.474  1.00  0.00    -0.040 NA
HETATM   36  O11 UNL     1       6.949  13.434  41.500  1.00  0.00    -0.251 OA
ATOM     37  H7  UNL     1       7.379  16.594  41.433  1.00  0.00     0.164 HD
ENDBRANCH   5  33
BRANCH   4  38
HETATM   38  O8  UNL     1      10.910  14.923  42.795  1.00  0.00    -0.318 OA
BRANCH  38  39
HETATM   39  C9  UNL     1      12.067  15.232  43.320  1.00  0.00     0.520 C 
BRANCH  39  40
HETATM   40  N5  UNL     1      13.127  14.871  42.344  1.00  0.00    -0.027 N 
ATOM     41  H53 UNL     1      14.005  15.360  42.517  1.00  0.00     0.279 HD
ATOM     42  H52 UNL     1      13.474  13.920  42.473  1.00  0.00     0.279 HD
ATOM     43  H51 UNL     1      12.762  15.034  41.406  1.00  0.00     0.279 HD
ENDBRANCH  39  40
BRANCH  39  44
HETATM   44  N6  UNL     1      12.341  14.315  44.435  1.00  0.00    -0.027 N 
ATOM     45  H63 UNL     1      11.592  14.309  45.128  1.00  0.00     0.279 HD
ATOM     46  H62 UNL     1      12.282  13.335  44.156  1.00  0.00     0.279 HD
ATOM     47  H61 UNL     1      13.246  14.552  44.840  1.00  0.00     0.279 HD
ENDBRANCH  39  44
ENDBRANCH  38  39
ENDBRANCH   4  38
BRANCH   4  48
HETATM   48  C10 UNL     1       8.972  15.663  43.928  1.00  0.00     0.293 C 
BRANCH  48  49
HETATM   49  O9  UNL     1       8.303  14.480  44.091  1.00  0.00    -0.368 OA
ATOM     50  H9  UNL     1       8.818  13.769  44.454  1.00  0.00     0.212 HD
ENDBRANCH  48  49
BRANCH  48  51
HETATM   51  O10 UNL     1       9.619  15.913  45.117  1.00  0.00    -0.368 OA
ATOM     52  H10 UNL     1      10.565  15.830  45.094  1.00  0.00     0.212 HD
ENDBRANCH  48  51
ENDBRANCH   4  48
TORSDOF 16
ENDMDL
MODEL 4
REMARK VINA RESULT: -6.517365522      2.437      7.414
REMARK  16 active torsions:
REMARK  status: ('A' for Active; 'I' for Inactive)
REMARK    1  A    between atoms: N1_1  and  C1_4 
REMARK    2  A    between atoms: C2_7  and  N3_8 
REMARK    3  A    between atoms: C3_11  and  C4_12 
REMARK       I    between atoms: C4_12  and  N4_14 
REMARK    4  A    between atoms: N4_14  and  S1_16 
REMARK    5  A    between atoms: S1_16  and  C5_19 
REMARK    6  A    between atoms: C6_21  and  C7_22 
REMARK    7  A    between atoms: C7_22  and  O7_23 
REMARK    8  A    between atoms: C8_25  and  O8_26 
REMARK    9  A    between atoms: C8_25  and  C10_36 
REMARK   10  A    between atoms: O8_26  and  C9_27 
REMARK   11  A    between atoms: C9_27  and  N5_28 
REMARK   12  A    between atoms: C9_27  and  N6_32 
REMARK   13  A    between atoms: C10_36  and  O9_37 
REMARK   14  A    between atoms: C10_36  and  O10_39 
REMARK   15  A    between atoms: C11_41  and  N7_42 
REMARK       I    between atoms: N7_42  and  C12_44 
REMARK   16  A    between atoms: C13_47  and  O12_48 
ROOT
HETATM    1  C5  UNL     1      12.617  16.024  39.678  1.00  0.00     0.295 C 
HETATM    2  O6  UNL     1      12.586  17.310  40.110  1.00  0.00    -0.355 OA
HETATM    3  C6  UNL     1      11.364  17.864  40.395  1.00  0.00     0.189 C 
HETATM    4  C8  UNL     1      10.468  17.005  41.234  1.00  0.00     0.165 C 
HETATM    5  C11 UNL     1      10.516  15.533  40.951  1.00  0.00     0.160 C 
HETATM    6  C13 UNL     1      11.908  15.063  40.609  1.00  0.00     0.189 C 
ENDROOT
BRANCH   1   7
HETATM    7  S1  UNL     1      14.302  15.487  39.598  1.00  0.00     0.263 S 
HETATM    8  O4  UNL     1      15.246  16.606  40.016  1.00  0.00    -0.203 OA
HETATM    9  O5  UNL     1      14.572  14.330  40.513  1.00  0.00    -0.203 OA
BRANCH   7  10
HETATM   10  N4  UNL     1      14.785  15.032  38.000  1.00  0.00    -0.248 N 
HETATM   11  C4  UNL     1      14.559  15.969  36.969  1.00  0.00     0.270 C 
HETATM   12  O3  UNL     1      14.023  17.109  37.234  1.00  0.00    -0.266 OA
ATOM     13  H4  UNL     1      15.214  14.126  37.811  1.00  0.00     0.182 HD
BRANCH  11  14
HETATM   14  C3  UNL     1      14.892  15.790  35.566  1.00  0.00     0.099 A 
HETATM   15  C2  UNL     1      15.708  14.830  35.077  1.00  0.00     0.205 A 
HETATM   16  N2  UNL     1      16.039  14.890  33.745  1.00  0.00    -0.170 N 
HETATM   17  C1  UNL     1      15.559  15.868  32.969  1.00  0.00     0.677 A 
ATOM     18  H2  UNL     1      16.656  14.183  33.345  1.00  0.00     0.186 HD
HETATM   19  N9  UNL     1      14.744  16.819  33.453  1.00  0.00    -0.201 N 
HETATM   20  C14 UNL     1      14.400  16.805  34.722  1.00  0.00     0.127 A 
ATOM     21  H9  UNL     1      14.392  17.552  32.837  1.00  0.00     0.183 HD
BRANCH  15  22
HETATM   22  N3  UNL     1      16.191  13.752  35.844  1.00  0.00    -0.096 N 
HETATM   23  O1  UNL     1      17.342  13.809  36.394  1.00  0.00    -0.530 OA
HETATM   24  O2  UNL     1      15.510  12.598  36.064  1.00  0.00    -0.530 OA
ENDBRANCH  15  22
BRANCH  17  25
HETATM   25  N1  UNL     1      15.857  15.949  31.700  1.00  0.00    -0.234 N 
ATOM     26  H12 UNL     1      16.434  15.199  31.320  1.00  0.00     0.174 HD
ATOM     27  H11 UNL     1      15.530  16.722  31.118  1.00  0.00     0.174 HD
ENDBRANCH  17  25
ENDBRANCH  11  14
ENDBRANCH   7  10
ENDBRANCH   1   7
BRANCH   6  28
HETATM   28  O12 UNL     1      11.800  13.837  39.957  1.00  0.00    -0.390 OA
ATOM     29  H12 UNL     1      11.472  14.001  39.080  1.00  0.00     0.210 HD
ENDBRANCH   6  28
BRANCH   3  30
HETATM   30  C7  UNL     1      10.802  18.569  39.210  1.00  0.00     0.199 C 
BRANCH  30  31
HETATM   31  O7  UNL     1      10.417  17.813  38.141  1.00  0.00    -0.398 OA
ATOM     32  H7  UNL     1       9.895  18.231  37.467  1.00  0.00     0.209 HD
ENDBRANCH  30  31
ENDBRANCH   3  30
BRANCH   5  33
HETATM   33  N7  UNL     1       9.530  15.041  40.026  1.00  0.00    -0.335 N 
HETATM   34  C12 UNL     1       8.275  14.493  40.367  1.00  0.00     0.329 C 
HETATM   35  N8  UNL     1       7.370  14.035  39.385  1.00  0.00    -0.040 NA
HETATM   36  O11 UNL     1       7.951  14.409  41.571  1.00  0.00    -0.251 OA
ATOM     37  H7  UNL     1       9.758  15.093  39.034  1.00  0.00     0.164 HD
ENDBRANCH   5  33
BRANCH   4  38
HETATM   38  O8  UNL     1      10.978  17.183  42.499  1.00  0.00    -0.318 OA
BRANCH  38  39
HETATM   39  C9  UNL     1      10.958  16.302  43.465  1.00  0.00     0.520 C 
BRANCH  39  40
HETATM   40  N5  UNL     1      10.168  16.870  44.589  1.00  0.00    -0.027 N 
ATOM     41  H53 UNL     1       9.504  17.582  44.283  1.00  0.00     0.279 HD
ATOM     42  H52 UNL     1       9.491  16.208  44.969  1.00  0.00     0.279 HD
ATOM     43  H51 UNL     1      10.821  17.214  45.292  1.00  0.00     0.279 HD
ENDBRANCH  39  40
BRANCH  39  44
HETATM   44  N6  UNL     1      12.304  16.207  44.046  1.00  0.00    -0.027 N 
ATOM     45  H63 UNL     1      13.037  16.220  43.336  1.00  0.00     0.279 HD
ATOM     46  H62 UNL     1      12.575  17.055  44.543  1.00  0.00     0.279 HD
ATOM     47  H61 UNL     1      12.348  15.377  44.637  1.00  0.00     0.279 HD
ENDBRANCH  39  44
ENDBRANCH  38  39
ENDBRANCH   4  38
BRANCH   4  48
HETATM   48  C10 UNL     1       9.075  17.564  41.148  1.00  0.00     0.293 C 
BRANCH  48  49
HETATM   49  O9  UNL     1       8.356  17.178  40.049  1.00  0.00    -0.368 OA
ATOM     50  H9  UNL     1       8.204  17.857  39.403  1.00  0.00     0.212 HD
ENDBRANCH  48  49
BRANCH  48  51
HETATM   51  O10 UNL     1       8.271  17.334  42.242  1.00  0.00    -0.368 OA
ATOM     52  H10 UNL     1       8.177  18.063  42.844  1.00  0.00     0.212 HD
ENDBRANCH  48  51
ENDBRANCH   4  48
TORSDOF 16
ENDMDL
MODEL 5
REMARK VINA RESULT: -6.487870395      2.248      7.357
REMARK  16 active torsions:
REMARK  status: ('A' for Active; 'I' for Inactive)
REMARK    1  A    between atoms: N1_1  and  C1_4 
REMARK    2  A    between atoms: C2_7  and  N3_8 
REMARK    3  A    between atoms: C3_11  and  C4_12 
REMARK       I    between atoms: C4_12  and  N4_14 
REMARK    4  A    between atoms: N4_14  and  S1_16 
REMARK    5  A    between atoms: S1_16  and  C5_19 
REMARK    6  A    between atoms: C6_21  and  C7_22 
REMARK    7  A    between atoms: C7_22  and  O7_23 
REMARK    8  A    between atoms: C8_25  and  O8_26 
REMARK    9  A    between atoms: C8_25  and  C10_36 
REMARK   10  A    between atoms: O8_26  and  C9_27 
REMARK   11  A    between atoms: C9_27  and  N5_28 
REMARK   12  A    between atoms: C9_27  and  N6_32 
REMARK   13  A    between atoms: C10_36  and  O9_37 
REMARK   14  A    between atoms: C10_36  and  O10_39 
REMARK   15  A    between atoms: C11_41  and  N7_42 
REMARK       I    between atoms: N7_42  and  C12_44 
REMARK   16  A    between atoms: C13_47  and  O12_48 
ROOT
HETATM    1  C5  UNL     1      14.077  15.659  39.380  1.00  0.00     0.295 C 
HETATM    2  O6  UNL     1      14.252  16.963  39.711  1.00  0.00    -0.355 OA
HETATM    3  C6  UNL     1      13.134  17.739  39.886  1.00  0.00     0.189 C 
HETATM    4  C8  UNL     1      12.069  17.117  40.739  1.00  0.00     0.165 C 
HETATM    5  C11 UNL     1      11.873  15.640  40.571  1.00  0.00     0.160 C 
HETATM    6  C13 UNL     1      13.176  14.914  40.342  1.00  0.00     0.189 C 
ENDROOT
BRANCH   1   7
HETATM    7  S1  UNL     1      15.646  14.840  39.433  1.00  0.00     0.263 S 
HETATM    8  O4  UNL     1      16.768  15.797  39.057  1.00  0.00    -0.203 OA
HETATM    9  O5  UNL     1      15.966  14.316  40.802  1.00  0.00    -0.203 OA
BRANCH   7  10
HETATM   10  N4  UNL     1      15.751  13.523  38.316  1.00  0.00    -0.248 N 
HETATM   11  C4  UNL     1      15.396  13.787  36.976  1.00  0.00     0.270 C 
HETATM   12  O3  UNL     1      15.022  14.967  36.624  1.00  0.00    -0.266 OA
ATOM     13  H4  UNL     1      16.057  12.596  38.614  1.00  0.00     0.182 HD
BRANCH  11  14
HETATM   14  C3  UNL     1      15.419  12.829  35.884  1.00  0.00     0.099 A 
HETATM   15  C2  UNL     1      16.525  12.209  35.415  1.00  0.00     0.205 A 
HETATM   16  N2  UNL     1      16.397  11.446  34.280  1.00  0.00    -0.170 N 
HETATM   17  C1  UNL     1      15.212  11.325  33.672  1.00  0.00     0.677 A 
ATOM     18  H2  UNL     1      17.213  10.968  33.898  1.00  0.00     0.186 HD
HETATM   19  N9  UNL     1      14.111  11.937  34.140  1.00  0.00    -0.201 N 
HETATM   20  C14 UNL     1      14.183  12.679  35.223  1.00  0.00     0.127 A 
ATOM     21  H9  UNL     1      13.220  11.825  33.656  1.00  0.00     0.183 HD
BRANCH  15  22
HETATM   22  N3  UNL     1      17.779  12.263  36.054  1.00  0.00    -0.096 N 
HETATM   23  O1  UNL     1      18.002  11.577  37.108  1.00  0.00    -0.530 OA
HETATM   24  O2  UNL     1      18.826  13.015  35.630  1.00  0.00    -0.530 OA
ENDBRANCH  15  22
BRANCH  17  25
HETATM   25  N1  UNL     1      15.062  10.606  32.592  1.00  0.00    -0.234 N 
ATOM     26  H12 UNL     1      15.428   9.655  32.625  1.00  0.00     0.174 HD
ATOM     27  H11 UNL     1      14.602  10.976  31.758  1.00  0.00     0.174 HD
ENDBRANCH  17  25
ENDBRANCH  11  14
ENDBRANCH   7  10
ENDBRANCH   1   7
BRANCH   6  28
HETATM   28  O12 UNL     1      12.883  13.673  39.780  1.00  0.00    -0.390 OA
ATOM     29  H12 UNL     1      13.463  13.031  40.173  1.00  0.00     0.210 HD
ENDBRANCH   6  28
BRANCH   3  30
HETATM   30  C7  UNL     1      12.751  18.426  38.622  1.00  0.00     0.199 C 
BRANCH  30  31
HETATM   31  O7  UNL     1      12.556  17.657  37.512  1.00  0.00    -0.398 OA
ATOM     32  H7  UNL     1      11.665  17.404  37.298  1.00  0.00     0.209 HD
ENDBRANCH  30  31
ENDBRANCH   3  30
BRANCH   5  33
HETATM   33  N7  UNL     1      10.855  15.246  39.634  1.00  0.00    -0.335 N 
HETATM   34  C12 UNL     1       9.578  14.743  39.961  1.00  0.00     0.329 C 
HETATM   35  N8  UNL     1       8.642  14.381  38.968  1.00  0.00    -0.040 NA
HETATM   36  O11 UNL     1       9.262  14.611  41.163  1.00  0.00    -0.251 OA
ATOM     37  H7  UNL     1      11.076  15.339  38.643  1.00  0.00     0.164 HD
ENDBRANCH   5  33
BRANCH   4  38
HETATM   38  O8  UNL     1      12.551  17.312  42.012  1.00  0.00    -0.318 OA
BRANCH  38  39
HETATM   39  C9  UNL     1      11.935  16.998  43.121  1.00  0.00     0.520 C 
BRANCH  39  40
HETATM   40  N5  UNL     1      11.807  18.230  43.942  1.00  0.00    -0.027 N 
ATOM     41  H53 UNL     1      12.705  18.681  44.118  1.00  0.00     0.279 HD
ATOM     42  H52 UNL     1      11.366  18.997  43.435  1.00  0.00     0.279 HD
ATOM     43  H51 UNL     1      11.312  17.988  44.800  1.00  0.00     0.279 HD
ENDBRANCH  39  40
BRANCH  39  44
HETATM   44  N6  UNL     1      12.830  16.168  43.939  1.00  0.00    -0.027 N 
ATOM     45  H63 UNL     1      13.260  15.413  43.404  1.00  0.00     0.279 HD
ATOM     46  H62 UNL     1      13.684  16.659  44.203  1.00  0.00     0.279 HD
ATOM     47  H61 UNL     1      12.311  15.825  44.748  1.00  0.00     0.279 HD
ENDBRANCH  39  44
ENDBRANCH  38  39
ENDBRANCH   4  38
BRANCH   4  48
HETATM   48  C10 UNL     1      10.799  17.895  40.534  1.00  0.00     0.293 C 
BRANCH  48  49
HETATM   49  O9  UNL     1      10.285  17.856  39.266  1.00  0.00    -0.368 OA
ATOM     50  H9  UNL     1       9.572  17.242  39.135  1.00  0.00     0.212 HD
ENDBRANCH  48  49
BRANCH  48  51
HETATM   51  O10 UNL     1       9.763  17.580  41.385  1.00  0.00    -0.368 OA
ATOM     52  H10 UNL     1       9.896  16.811  41.927  1.00  0.00     0.212 HD
ENDBRANCH  48  51
ENDBRANCH   4  48
TORSDOF 16
ENDMDL
