MODEL 1
REMARK VINA RESULT: -7.729936249      0.000      0.000
REMARK  15 active torsions:
REMARK  status: ('A' for Active; 'I' for Inactive)
REMARK    1  A    between atoms: N1_1  and  C1_4 
REMARK    2  A    between atoms: C2_7  and  N3_8 
REMARK    3  A    between atoms: N3_8  and  C3_10 
REMARK    4  A    between atoms: C4_12  and  C5_13 
REMARK    5  A    between atoms: C4_12  and  C6_16 
REMARK    6  A    between atoms: C5_13  and  O2_14 
REMARK    7  A    between atoms: C7_19  and  O5_20 
REMARK    8  A    between atoms: C8_22  and  O6_23 
REMARK    9  A    between atoms: N4_28  and  C11_29 
REMARK   10  A    between atoms: C11_29  and  O8_30 
REMARK   11  A    between atoms: N5_32  and  C12_33 
REMARK   12  A    between atoms: C14_36  and  N6_37 
REMARK       I    between atoms: N6_37  and  C15_39 
REMARK   13  A    between atoms: C15_39  and  C16_41 
REMARK   14  A    between atoms: C16_41  and  N7_42 
REMARK   15  A    between atoms: C17_46  and  O11_47 
ROOT
HETATM    1  C1  UNL     1       9.875  15.148  37.885  1.00  0.00     0.679 A 
HETATM    2  N2  UNL     1       8.703  14.542  38.142  1.00  0.00    -0.176 N 
ATOM      3  H2  UNL     1       8.163  14.171  37.361  1.00  0.00     0.186 HD
HETATM    4  C2  UNL     1       8.207  14.404  39.405  1.00  0.00     0.138 A 
HETATM    5  C9  UNL     1       8.967  14.920  40.431  1.00  0.00     0.124 A 
HETATM    6  C10 UNL     1       8.802  14.969  41.780  1.00  0.00     0.282 A 
HETATM    7  O7  UNL     1       7.833  14.515  42.448  1.00  0.00    -0.265 OA
HETATM    8  N4  UNL     1       9.887  15.607  42.284  1.00  0.00    -0.226 N 
HETATM    9  N5  UNL     1      10.715  15.958  41.354  1.00  0.00    -0.236 N 
HETATM   10  C18 UNL     1      10.176  15.548  40.190  1.00  0.00     0.160 A 
HETATM   11  N8  UNL     1      10.593  15.642  38.918  1.00  0.00    -0.174 N 
ATOM     12  H8  UNL     1      11.483  16.103  38.723  1.00  0.00     0.186 HD
ENDROOT
BRANCH   4  13
HETATM   13  N3  UNL     1       6.985  13.768  39.640  1.00  0.00    -0.346 N 
ATOM     14  H3  UNL     1       6.971  12.910  40.192  1.00  0.00     0.163 HD
BRANCH  13  15
HETATM   15  C3  UNL     1       5.727  14.295  39.120  1.00  0.00     0.255 C 
HETATM   16  O1  UNL     1       4.637  13.607  39.617  1.00  0.00    -0.337 OA
HETATM   17  C4  UNL     1       4.042  14.370  40.586  1.00  0.00     0.200 C 
HETATM   18  C7  UNL     1       4.154  15.779  40.056  1.00  0.00     0.199 C 
HETATM   19  C8  UNL     1       5.527  15.745  39.400  1.00  0.00     0.199 C 
BRANCH  17  20
HETATM   20  C5  UNL     1       4.726  14.197  41.914  1.00  0.00     0.216 C 
BRANCH  20  21
HETATM   21  O2  UNL     1       4.245  13.087  42.599  1.00  0.00    -0.397 OA
ATOM     22  H2  UNL     1       4.823  12.836  43.310  1.00  0.00     0.209 HD
ENDBRANCH  20  21
ENDBRANCH  17  20
BRANCH  17  23
HETATM   23  C6  UNL     1       2.592  14.060  40.729  1.00  0.00     0.214 C 
HETATM   24  O3  UNL     1       1.869  14.592  41.606  1.00  0.00    -0.646 OA
HETATM   25  O4  UNL     1       2.002  13.148  39.868  1.00  0.00    -0.646 OA
ENDBRANCH  17  23
BRANCH  18  26
HETATM   26  O5  UNL     1       3.175  15.926  39.046  1.00  0.00    -0.389 OA
ATOM     27  H5  UNL     1       2.526  15.245  39.184  1.00  0.00     0.210 HD
ENDBRANCH  18  26
BRANCH  19  28
HETATM   28  O6  UNL     1       5.531  16.501  38.227  1.00  0.00    -0.388 OA
ATOM     29  H6  UNL     1       5.761  17.406  38.394  1.00  0.00     0.210 HD
ENDBRANCH  19  28
ENDBRANCH  13  15
ENDBRANCH   4  13
BRANCH   1  30
HETATM   30  N1  UNL     1      10.308  15.256  36.663  1.00  0.00    -0.234 N 
ATOM     31  H12 UNL     1      10.733  14.459  36.188  1.00  0.00     0.174 HD
ATOM     32  H11 UNL     1      10.230  16.142  36.163  1.00  0.00     0.174 HD
ENDBRANCH   1  30
BRANCH   8  33
HETATM   33  C11 UNL     1      10.059  15.846  43.701  1.00  0.00     0.317 C 
BRANCH  33  34
HETATM   34  O8  UNL     1       8.908  16.449  44.240  1.00  0.00    -0.380 OA
ATOM     35  H8  UNL     1       8.968  16.488  45.187  1.00  0.00     0.211 HD
ENDBRANCH  33  34
ENDBRANCH   8  33
BRANCH   9  36
HETATM   36  C12 UNL     1      11.973  16.648  41.458  1.00  0.00     0.277 C 
HETATM   37  O9  UNL     1      12.170  17.637  40.527  1.00  0.00    -0.360 OA
HETATM   38  C13 UNL     1      13.492  18.036  40.828  1.00  0.00     0.198 C 
HETATM   39  C14 UNL     1      14.216  16.711  40.784  1.00  0.00     0.141 C 
HETATM   40  C17 UNL     1      13.164  15.750  41.284  1.00  0.00     0.193 C 
BRANCH  39  41
HETATM   41  N6  UNL     1      14.702  16.374  39.476  1.00  0.00    -0.350 N 
HETATM   42  C15 UNL     1      15.640  15.350  39.218  1.00  0.00     0.243 C 
HETATM   43  O10 UNL     1      16.079  14.690  40.183  1.00  0.00    -0.272 OA
ATOM     44  H6  UNL     1      14.348  16.908  38.682  1.00  0.00     0.163 HD
BRANCH  42  45
HETATM   45  C16 UNL     1      16.117  15.033  37.859  1.00  0.00     0.332 C 
BRANCH  45  46
HETATM   46  N7  UNL     1      15.769  13.688  37.491  1.00  0.00    -0.071 N 
ATOM     47  H73 UNL     1      16.390  13.323  36.769  1.00  0.00     0.274 HD
ATOM     48  H72 UNL     1      15.990  13.026  38.234  1.00  0.00     0.274 HD
ATOM     49  H71 UNL     1      14.790  13.627  37.212  1.00  0.00     0.274 HD
ENDBRANCH  45  46
ENDBRANCH  42  45
ENDBRANCH  39  41
BRANCH  40  50
HETATM   50  O11 UNL     1      13.586  15.287  42.529  1.00  0.00    -0.389 OA
ATOM     51  H11 UNL     1      14.522  15.128  42.509  1.00  0.00     0.210 HD
ENDBRANCH  40  50
ENDBRANCH   9  36
TORSDOF 15
ENDMDL
MODEL 2
REMARK VINA RESULT: -7.721261702      1.227      2.046
REMARK  15 active torsions:
REMARK  status: ('A' for Active; 'I' for Inactive)
REMARK    1  A    between atoms: N1_1  and  C1_4 
REMARK    2  A    between atoms: C2_7  and  N3_8 
REMARK    3  A    between atoms: N3_8  and  C3_10 
REMARK    4  A    between atoms: C4_12  and  C5_13 
REMARK    5  A    between atoms: C4_12  and  C6_16 
REMARK    6  A    between atoms: C5_13  and  O2_14 
REMARK    7  A    between atoms: C7_19  and  O5_20 
REMARK    8  A    between atoms: C8_22  and  O6_23 
REMARK    9  A    between atoms: N4_28  and  C11_29 
REMARK   10  A    between atoms: C11_29  and  O8_30 
REMARK   11  A    between atoms: N5_32  and  C12_33 
REMARK   12  A    between atoms: C14_36  and  N6_37 
REMARK       I    between atoms: N6_37  and  C15_39 
REMARK   13  A    between atoms: C15_39  and  C16_41 
REMARK   14  A    between atoms: C16_41  and  N7_42 
REMARK   15  A    between atoms: C17_46  and  O11_47 
ROOT
HETATM    1  C1  UNL     1       8.657  15.334  38.564  1.00  0.00     0.679 A 
HETATM    2  N2  UNL     1       7.549  14.716  39.008  1.00  0.00    -0.176 N 
ATOM      3  H2  UNL     1       6.868  14.383  38.326  1.00  0.00     0.186 HD
HETATM    4  C2  UNL     1       7.298  14.517  40.334  1.00  0.00     0.138 A 
HETATM    5  C9  UNL     1       8.242  14.984  41.222  1.00  0.00     0.124 A 
HETATM    6  C10 UNL     1       8.334  14.968  42.578  1.00  0.00     0.282 A 
HETATM    7  O7  UNL     1       7.504  14.482  43.395  1.00  0.00    -0.265 OA
HETATM    8  N4  UNL     1       9.500  15.582  42.899  1.00  0.00    -0.226 N 
HETATM    9  N5  UNL     1      10.141  15.977  41.847  1.00  0.00    -0.236 N 
HETATM   10  C18 UNL     1       9.390  15.623  40.787  1.00  0.00     0.160 A 
HETATM   11  N8  UNL     1       9.561  15.778  39.465  1.00  0.00    -0.174 N 
ATOM     12  H8  UNL     1      10.402  16.249  39.129  1.00  0.00     0.186 HD
ENDROOT
BRANCH   4  13
HETATM   13  N3  UNL     1       6.136  13.871  40.764  1.00  0.00    -0.346 N 
ATOM     14  H3  UNL     1       6.178  12.877  40.991  1.00  0.00     0.163 HD
BRANCH  13  15
HETATM   15  C3  UNL     1       4.865  14.575  40.899  1.00  0.00     0.255 C 
HETATM   16  O1  UNL     1       4.447  15.117  39.700  1.00  0.00    -0.337 OA
HETATM   17  C4  UNL     1       3.450  14.332  39.187  1.00  0.00     0.200 C 
HETATM   18  C7  UNL     1       2.659  13.914  40.402  1.00  0.00     0.199 C 
HETATM   19  C8  UNL     1       3.764  13.721  41.430  1.00  0.00     0.199 C 
BRANCH  17  20
HETATM   20  C5  UNL     1       4.013  13.159  38.433  1.00  0.00     0.216 C 
BRANCH  20  21
HETATM   21  O2  UNL     1       5.073  13.534  37.616  1.00  0.00    -0.397 OA
ATOM     22  H2  UNL     1       5.868  13.061  37.833  1.00  0.00     0.209 HD
ENDBRANCH  20  21
ENDBRANCH  17  20
BRANCH  17  23
HETATM   23  C6  UNL     1       2.534  15.101  38.300  1.00  0.00     0.214 C 
HETATM   24  O3  UNL     1       2.294  16.322  38.468  1.00  0.00    -0.646 OA
HETATM   25  O4  UNL     1       1.911  14.458  37.241  1.00  0.00    -0.646 OA
ENDBRANCH  17  23
BRANCH  18  26
HETATM   26  O5  UNL     1       1.870  15.022  40.791  1.00  0.00    -0.389 OA
ATOM     27  H5  UNL     1       1.969  15.121  41.731  1.00  0.00     0.210 HD
ENDBRANCH  18  26
BRANCH  19  28
HETATM   28  O6  UNL     1       3.345  14.146  42.691  1.00  0.00    -0.388 OA
ATOM     29  H6  UNL     1       3.439  15.085  42.793  1.00  0.00     0.210 HD
ENDBRANCH  19  28
ENDBRANCH  13  15
ENDBRANCH   4  13
BRANCH   1  30
HETATM   30  N1  UNL     1       8.854  15.502  37.288  1.00  0.00    -0.234 N 
ATOM     31  H12 UNL     1       8.395  14.896  36.607  1.00  0.00     0.174 HD
ATOM     32  H11 UNL     1       9.471  16.241  36.953  1.00  0.00     0.174 HD
ENDBRANCH   1  30
BRANCH   8  33
HETATM   33  C11 UNL     1       9.938  15.752  44.268  1.00  0.00     0.317 C 
BRANCH  33  34
HETATM   34  O8  UNL     1       9.726  17.077  44.688  1.00  0.00    -0.380 OA
ATOM     35  H8  UNL     1      10.478  17.394  45.174  1.00  0.00     0.211 HD
ENDBRANCH  33  34
ENDBRANCH   8  33
BRANCH   9  36
HETATM   36  C12 UNL     1      11.402  16.662  41.745  1.00  0.00     0.277 C 
HETATM   37  O9  UNL     1      11.540  17.460  40.637  1.00  0.00    -0.360 OA
HETATM   38  C13 UNL     1      12.878  17.894  40.779  1.00  0.00     0.198 C 
HETATM   39  C14 UNL     1      13.600  16.576  40.936  1.00  0.00     0.141 C 
HETATM   40  C17 UNL     1      12.581  15.734  41.667  1.00  0.00     0.193 C 
BRANCH  39  41
HETATM   41  N6  UNL     1      14.004  16.000  39.684  1.00  0.00    -0.350 N 
HETATM   42  C15 UNL     1      15.090  15.107  39.537  1.00  0.00     0.243 C 
HETATM   43  O10 UNL     1      15.743  14.795  40.554  1.00  0.00    -0.272 OA
ATOM     44  H6  UNL     1      13.474  16.249  38.849  1.00  0.00     0.163 HD
BRANCH  42  45
HETATM   45  C16 UNL     1      15.476  14.536  38.234  1.00  0.00     0.332 C 
BRANCH  45  46
HETATM   46  N7  UNL     1      14.383  13.809  37.646  1.00  0.00    -0.071 N 
ATOM     47  H73 UNL     1      14.676  12.888  37.321  1.00  0.00     0.274 HD
ATOM     48  H72 UNL     1      13.704  13.517  38.349  1.00  0.00     0.274 HD
ATOM     49  H71 UNL     1      13.944  14.350  36.900  1.00  0.00     0.274 HD
ENDBRANCH  45  46
ENDBRANCH  42  45
ENDBRANCH  39  41
BRANCH  40  50
HETATM   50  O11 UNL     1      13.080  15.504  42.948  1.00  0.00    -0.389 OA
ATOM     51  H11 UNL     1      13.946  15.118  42.888  1.00  0.00     0.210 HD
ENDBRANCH  40  50
ENDBRANCH   9  36
TORSDOF 15
ENDMDL
MODEL 3
REMARK VINA RESULT: -7.688677031      2.028      8.560
REMARK  15 active torsions:
REMARK  status: ('A' for Active; 'I' for Inactive)
REMARK    1  A    between atoms: N1_1  and  C1_4 
REMARK    2  A    between atoms: C2_7  and  N3_8 
REMARK    3  A    between atoms: N3_8  and  C3_10 
REMARK    4  A    between atoms: C4_12  and  C5_13 
REMARK    5  A    between atoms: C4_12  and  C6_16 
REMARK    6  A    between atoms: C5_13  and  O2_14 
REMARK    7  A    between atoms: C7_19  and  O5_20 
REMARK    8  A    between atoms: C8_22  and  O6_23 
REMARK    9  A    between atoms: N4_28  and  C11_29 
REMARK   10  A    between atoms: C11_29  and  O8_30 
REMARK   11  A    between atoms: N5_32  and  C12_33 
REMARK   12  A    between atoms: C14_36  and  N6_37 
REMARK       I    between atoms: N6_37  and  C15_39 
REMARK   13  A    between atoms: C15_39  and  C16_41 
REMARK   14  A    between atoms: C16_41  and  N7_42 
REMARK   15  A    between atoms: C17_46  and  O11_47 
ROOT
HETATM    1  C1  UNL     1       9.850  15.329  38.301  1.00  0.00     0.679 A 
HETATM    2  N2  UNL     1      11.139  15.504  38.641  1.00  0.00    -0.176 N 
ATOM      3  H2  UNL     1      11.837  15.560  37.900  1.00  0.00     0.186 HD
HETATM    4  C2  UNL     1      11.551  15.608  39.937  1.00  0.00     0.138 A 
HETATM    5  C9  UNL     1      10.576  15.526  40.907  1.00  0.00     0.124 A 
HETATM    6  C10 UNL     1      10.605  15.585  42.266  1.00  0.00     0.282 A 
HETATM    7  O7  UNL     1      11.618  15.742  43.002  1.00  0.00    -0.265 OA
HETATM    8  N4  UNL     1       9.326  15.442  42.692  1.00  0.00    -0.226 N 
HETATM    9  N5  UNL     1       8.503  15.299  41.703  1.00  0.00    -0.236 N 
HETATM   10  C18 UNL     1       9.244  15.346  40.580  1.00  0.00     0.160 A 
HETATM   11  N8  UNL     1       8.923  15.252  39.281  1.00  0.00    -0.174 N 
ATOM     12  H8  UNL     1       7.944  15.118  39.023  1.00  0.00     0.186 HD
ENDROOT
BRANCH   4  13
HETATM   13  N3  UNL     1      12.898  15.790  40.260  1.00  0.00    -0.346 N 
ATOM     14  H3  UNL     1      13.169  16.600  40.818  1.00  0.00     0.163 HD
BRANCH  13  15
HETATM   15  C3  UNL     1      13.931  14.857  39.821  1.00  0.00     0.255 C 
HETATM   16  O1  UNL     1      13.780  14.509  38.493  1.00  0.00    -0.337 OA
HETATM   17  C4  UNL     1      14.707  15.191  37.752  1.00  0.00     0.200 C 
HETATM   18  C7  UNL     1      15.935  15.199  38.630  1.00  0.00     0.199 C 
HETATM   19  C8  UNL     1      15.318  15.369  40.010  1.00  0.00     0.199 C 
BRANCH  17  20
HETATM   20  C5  UNL     1      14.227  16.577  37.419  1.00  0.00     0.216 C 
BRANCH  20  21
HETATM   21  O2  UNL     1      13.152  16.551  36.539  1.00  0.00    -0.397 OA
ATOM     22  H2  UNL     1      13.208  17.248  35.896  1.00  0.00     0.209 HD
ENDBRANCH  20  21
ENDBRANCH  17  20
BRANCH  17  23
HETATM   23  C6  UNL     1      15.059  14.471  36.497  1.00  0.00     0.214 C 
HETATM   24  O3  UNL     1      15.759  14.989  35.593  1.00  0.00    -0.646 OA
HETATM   25  O4  UNL     1      14.601  13.177  36.302  1.00  0.00    -0.646 OA
ENDBRANCH  17  23
BRANCH  18  26
HETATM   26  O5  UNL     1      16.514  13.911  38.551  1.00  0.00    -0.389 OA
ATOM     27  H5  UNL     1      15.823  13.281  38.726  1.00  0.00     0.210 HD
ENDBRANCH  18  26
BRANCH  19  28
HETATM   28  O6  UNL     1      16.017  14.623  40.959  1.00  0.00    -0.388 OA
ATOM     29  H6  UNL     1      15.916  14.983  41.832  1.00  0.00     0.210 HD
ENDBRANCH  19  28
ENDBRANCH  13  15
ENDBRANCH   4  13
BRANCH   1  30
HETATM   30  N1  UNL     1       9.505  15.234  37.050  1.00  0.00    -0.234 N 
ATOM     31  H12 UNL     1       8.872  14.496  36.739  1.00  0.00     0.174 HD
ATOM     32  H11 UNL     1       9.864  15.896  36.362  1.00  0.00     0.174 HD
ENDBRANCH   1  30
BRANCH   8  33
HETATM   33  C11 UNL     1       8.967  15.455  44.093  1.00  0.00     0.317 C 
BRANCH  33  34
HETATM   34  O8  UNL     1       9.614  16.515  44.754  1.00  0.00    -0.380 OA
ATOM     35  H8  UNL     1       9.161  16.726  45.562  1.00  0.00     0.211 HD
ENDBRANCH  33  34
ENDBRANCH   8  33
BRANCH   9  36
HETATM   36  C12 UNL     1       7.075  15.121  41.718  1.00  0.00     0.277 C 
HETATM   37  O9  UNL     1       6.652  13.876  42.110  1.00  0.00    -0.360 OA
HETATM   38  C13 UNL     1       5.254  13.992  41.925  1.00  0.00     0.198 C 
HETATM   39  C14 UNL     1       5.187  14.469  40.493  1.00  0.00     0.141 C 
HETATM   40  C17 UNL     1       6.436  15.309  40.371  1.00  0.00     0.193 C 
BRANCH  39  41
HETATM   41  N6  UNL     1       5.141  13.396  39.541  1.00  0.00    -0.350 N 
HETATM   42  C15 UNL     1       4.563  13.501  38.256  1.00  0.00     0.243 C 
HETATM   43  O10 UNL     1       4.058  14.592  37.919  1.00  0.00    -0.272 OA
ATOM     44  H6  UNL     1       5.552  12.501  39.808  1.00  0.00     0.163 HD
BRANCH  42  45
HETATM   45  C16 UNL     1       4.535  12.375  37.304  1.00  0.00     0.332 C 
BRANCH  45  46
HETATM   46  N7  UNL     1       5.736  11.591  37.398  1.00  0.00    -0.071 N 
ATOM     47  H73 UNL     1       5.811  11.122  38.301  1.00  0.00     0.274 HD
ATOM     48  H72 UNL     1       5.695  10.766  36.799  1.00  0.00     0.274 HD
ATOM     49  H71 UNL     1       6.560  12.159  37.200  1.00  0.00     0.274 HD
ENDBRANCH  45  46
ENDBRANCH  42  45
ENDBRANCH  39  41
BRANCH  40  50
HETATM   50  O11 UNL     1       6.029  16.635  40.229  1.00  0.00    -0.389 OA
ATOM     51  H11 UNL     1       6.679  17.114  39.728  1.00  0.00     0.210 HD
ENDBRANCH  40  50
ENDBRANCH   9  36
TORSDOF 15
ENDMDL
MODEL 4
REMARK VINA RESULT: -7.684893781      2.885      5.777
REMARK  15 active torsions:
REMARK  status: ('A' for Active; 'I' for Inactive)
REMARK    1  A    between atoms: N1_1  and  C1_4 
REMARK    2  A    between atoms: C2_7  and  N3_8 
REMARK    3  A    between atoms: N3_8  and  C3_10 
REMARK    4  A    between atoms: C4_12  and  C5_13 
REMARK    5  A    between atoms: C4_12  and  C6_16 
REMARK    6  A    between atoms: C5_13  and  O2_14 
REMARK    7  A    between atoms: C7_19  and  O5_20 
REMARK    8  A    between atoms: C8_22  and  O6_23 
REMARK    9  A    between atoms: N4_28  and  C11_29 
REMARK   10  A    between atoms: C11_29  and  O8_30 
REMARK   11  A    between atoms: N5_32  and  C12_33 
REMARK   12  A    between atoms: C14_36  and  N6_37 
REMARK       I    between atoms: N6_37  and  C15_39 
REMARK   13  A    between atoms: C15_39  and  C16_41 
REMARK   14  A    between atoms: C16_41  and  N7_42 
REMARK   15  A    between atoms: C17_46  and  O11_47 
ROOT
HETATM    1  C1  UNL     1      10.526  16.942  37.623  1.00  0.00     0.679 A 
HETATM    2  N2  UNL     1      10.502  17.422  38.878  1.00  0.00    -0.176 N 
ATOM      3  H2  UNL     1       9.701  17.979  39.173  1.00  0.00     0.186 HD
HETATM    4  C2  UNL     1      11.506  17.193  39.773  1.00  0.00     0.138 A 
HETATM    5  C9  UNL     1      12.570  16.437  39.333  1.00  0.00     0.124 A 
HETATM    6  C10 UNL     1      13.719  16.014  39.923  1.00  0.00     0.282 A 
HETATM    7  O7  UNL     1      14.100  16.240  41.104  1.00  0.00    -0.265 OA
HETATM    8  N4  UNL     1      14.395  15.293  38.994  1.00  0.00    -0.226 N 
HETATM    9  N5  UNL     1      13.753  15.234  37.871  1.00  0.00    -0.236 N 
HETATM   10  C18 UNL     1      12.615  15.933  38.045  1.00  0.00     0.160 A 
HETATM   11  N8  UNL     1      11.587  16.204  37.227  1.00  0.00    -0.174 N 
ATOM     12  H8  UNL     1      11.606  15.841  36.274  1.00  0.00     0.186 HD
ENDROOT
BRANCH   4  13
HETATM   13  N3  UNL     1      11.452  17.705  41.072  1.00  0.00    -0.346 N 
ATOM     14  H3  UNL     1      12.285  18.144  41.466  1.00  0.00     0.163 HD
BRANCH  13  15
HETATM   15  C3  UNL     1      10.241  17.631  41.883  1.00  0.00     0.255 C 
HETATM   16  O1  UNL     1       9.258  16.878  41.271  1.00  0.00    -0.337 OA
HETATM   17  C4  UNL     1       9.204  15.651  41.876  1.00  0.00     0.200 C 
HETATM   18  C7  UNL     1       9.439  15.958  43.335  1.00  0.00     0.199 C 
HETATM   19  C8  UNL     1      10.470  17.074  43.246  1.00  0.00     0.199 C 
BRANCH  17  20
HETATM   20  C5  UNL     1      10.238  14.718  41.308  1.00  0.00     0.216 C 
BRANCH  20  21
HETATM   21  O2  UNL     1       9.911  14.312  40.020  1.00  0.00    -0.397 OA
ATOM     22  H2  UNL     1      10.581  13.749  39.649  1.00  0.00     0.209 HD
ENDBRANCH  20  21
ENDBRANCH  17  20
BRANCH  17  23
HETATM   23  C6  UNL     1       7.856  15.030  41.761  1.00  0.00     0.214 C 
HETATM   24  O3  UNL     1       7.405  14.227  42.614  1.00  0.00    -0.646 OA
HETATM   25  O4  UNL     1       7.053  15.339  40.673  1.00  0.00    -0.646 OA
ENDBRANCH  17  23
BRANCH  18  26
HETATM   26  O5  UNL     1       8.236  16.494  43.849  1.00  0.00    -0.389 OA
ATOM     27  H5  UNL     1       8.433  16.853  44.708  1.00  0.00     0.210 HD
ENDBRANCH  18  26
BRANCH  19  28
HETATM   28  O6  UNL     1      10.247  18.031  44.237  1.00  0.00    -0.388 OA
ATOM     29  H6  UNL     1      10.544  17.731  45.087  1.00  0.00     0.210 HD
ENDBRANCH  19  28
ENDBRANCH  13  15
ENDBRANCH   4  13
BRANCH   1  30
HETATM   30  N1  UNL     1       9.544  17.186  36.803  1.00  0.00    -0.234 N 
ATOM     31  H12 UNL     1       8.731  16.571  36.768  1.00  0.00     0.174 HD
ATOM     32  H11 UNL     1       9.576  17.997  36.185  1.00  0.00     0.174 HD
ENDBRANCH   1  30
BRANCH   8  33
HETATM   33  C11 UNL     1      15.676  14.679  39.266  1.00  0.00     0.317 C 
BRANCH  33  34
HETATM   34  O8  UNL     1      16.667  15.665  39.426  1.00  0.00    -0.380 OA
ATOM     35  H8  UNL     1      17.150  15.520  40.231  1.00  0.00     0.211 HD
ENDBRANCH  33  34
ENDBRANCH   8  33
BRANCH   9  36
HETATM   36  C12 UNL     1      14.113  14.578  36.642  1.00  0.00     0.277 C 
HETATM   37  O9  UNL     1      14.270  13.218  36.737  1.00  0.00    -0.360 OA
HETATM   38  C13 UNL     1      14.706  12.902  35.429  1.00  0.00     0.198 C 
HETATM   39  C14 UNL     1      15.868  13.854  35.269  1.00  0.00     0.141 C 
HETATM   40  C17 UNL     1      15.420  15.051  36.073  1.00  0.00     0.193 C 
BRANCH  39  41
HETATM   41  N6  UNL     1      17.114  13.308  35.729  1.00  0.00    -0.350 N 
HETATM   42  C15 UNL     1      18.269  13.183  34.924  1.00  0.00     0.243 C 
HETATM   43  O10 UNL     1      18.211  13.569  33.738  1.00  0.00    -0.272 OA
ATOM     44  H6  UNL     1      17.170  12.992  36.697  1.00  0.00     0.163 HD
BRANCH  42  45
HETATM   45  C16 UNL     1      19.532  12.616  35.432  1.00  0.00     0.332 C 
BRANCH  45  46
HETATM   46  N7  UNL     1      19.283  11.494  36.295  1.00  0.00    -0.071 N 
ATOM     47  H73 UNL     1      18.798  11.775  37.148  1.00  0.00     0.274 HD
ATOM     48  H72 UNL     1      18.570  10.874  35.910  1.00  0.00     0.274 HD
ATOM     49  H71 UNL     1      20.147  10.993  36.501  1.00  0.00     0.274 HD
ENDBRANCH  45  46
ENDBRANCH  42  45
ENDBRANCH  39  41
BRANCH  40  50
HETATM   50  O11 UNL     1      15.189  16.090  35.172  1.00  0.00    -0.389 OA
ATOM     51  H11 UNL     1      15.503  15.840  34.311  1.00  0.00     0.210 HD
ENDBRANCH  40  50
ENDBRANCH   9  36
TORSDOF 15
ENDMDL
MODEL 5
REMARK VINA RESULT: -7.628230800      4.742      8.119
REMARK  15 active torsions:
REMARK  status: ('A' for Active; 'I' for Inactive)
REMARK    1  A    between atoms: N1_1  and  C1_4 
REMARK    2  A    between atoms: C2_7  and  N3_8 
REMARK    3  A    between atoms: N3_8  and  C3_10 
REMARK    4  A    between atoms: C4_12  and  C5_13 
REMARK    5  A    between atoms: C4_12  and  C6_16 
REMARK    6  A    between atoms: C5_13  and  O2_14 
REMARK    7  A    between atoms: C7_19  and  O5_20 
REMARK    8  A    between atoms: C8_22  and  O6_23 
REMARK    9  A    between atoms: N4_28  and  C11_29 
REMARK   10  A    between atoms: C11_29  and  O8_30 
REMARK   11  A    between atoms: N5_32  and  C12_33 
REMARK   12  A    between atoms: C14_36  and  N6_37 
REMARK       I    between atoms: N6_37  and  C15_39 
REMARK   13  A    between atoms: C15_39  and  C16_41 
REMARK   14  A    between atoms: C16_41  and  N7_42 
REMARK   15  A    between atoms: C17_46  and  O11_47 
ROOT
HETATM    1  C1  UNL     1      15.907  14.746  39.759  1.00  0.00     0.679 A 
HETATM    2  N2  UNL     1      14.936  15.675  39.723  1.00  0.00    -0.176 N 
ATOM      3  H2  UNL     1      14.550  16.013  40.604  1.00  0.00     0.186 HD
HETATM    4  C2  UNL     1      14.446  16.183  38.556  1.00  0.00     0.138 A 
HETATM    5  C9  UNL     1      14.995  15.699  37.389  1.00  0.00     0.124 A 
HETATM    6  C10 UNL     1      14.768  15.961  36.074  1.00  0.00     0.282 A 
HETATM    7  O7  UNL     1      13.934  16.774  35.589  1.00  0.00    -0.265 OA
HETATM    8  N4  UNL     1      15.616  15.174  35.366  1.00  0.00    -0.226 N 
HETATM    9  N5  UNL     1      16.353  14.443  36.139  1.00  0.00    -0.236 N 
HETATM   10  C18 UNL     1      15.995  14.743  37.402  1.00  0.00     0.160 A 
HETATM   11  N8  UNL     1      16.420  14.295  38.593  1.00  0.00    -0.174 N 
ATOM     12  H8  UNL     1      17.157  13.589  38.619  1.00  0.00     0.186 HD
ENDROOT
BRANCH   4  13
HETATM   13  N3  UNL     1      13.436  17.149  38.551  1.00  0.00    -0.346 N 
ATOM     14  H3  UNL     1      13.666  18.104  38.276  1.00  0.00     0.163 HD
BRANCH  13  15
HETATM   15  C3  UNL     1      12.062  16.832  38.928  1.00  0.00     0.255 C 
HETATM   16  O1  UNL     1      11.989  16.278  40.190  1.00  0.00    -0.337 OA
HETATM   17  C4  UNL     1      11.538  17.231  41.063  1.00  0.00     0.200 C 
HETATM   18  C7  UNL     1      10.507  17.992  40.265  1.00  0.00     0.199 C 
HETATM   19  C8  UNL     1      11.146  18.007  38.884  1.00  0.00     0.199 C 
BRANCH  17  20
HETATM   20  C5  UNL     1      12.663  18.110  41.540  1.00  0.00     0.216 C 
BRANCH  20  21
HETATM   21  O2  UNL     1      12.197  19.158  42.324  1.00  0.00    -0.397 OA
ATOM     22  H2  UNL     1      12.563  19.129  43.201  1.00  0.00     0.209 HD
ENDBRANCH  20  21
ENDBRANCH  17  20
BRANCH  17  23
HETATM   23  C6  UNL     1      10.844  16.631  42.236  1.00  0.00     0.214 C 
HETATM   24  O3  UNL     1      10.753  15.391  42.409  1.00  0.00    -0.646 OA
HETATM   25  O4  UNL     1      10.268  17.462  43.185  1.00  0.00    -0.646 OA
ENDBRANCH  17  23
BRANCH  18  26
HETATM   26  O5  UNL     1       9.343  17.191  40.215  1.00  0.00    -0.389 OA
ATOM     27  H5  UNL     1       9.282  16.839  39.334  1.00  0.00     0.210 HD
ENDBRANCH  18  26
BRANCH  19  28
HETATM   28  O6  UNL     1      10.176  17.868  37.891  1.00  0.00    -0.388 OA
ATOM     29  H6  UNL     1      10.112  18.647  37.352  1.00  0.00     0.210 HD
ENDBRANCH  19  28
ENDBRANCH  13  15
ENDBRANCH   4  13
BRANCH   1  30
HETATM   30  N1  UNL     1      16.343  14.290  40.897  1.00  0.00    -0.234 N 
ATOM     31  H12 UNL     1      16.026  14.698  41.777  1.00  0.00     0.174 HD
ATOM     32  H11 UNL     1      17.009  13.518  40.925  1.00  0.00     0.174 HD
ENDBRANCH   1  30
BRANCH   8  33
HETATM   33  C11 UNL     1      15.660  15.182  33.920  1.00  0.00     0.317 C 
BRANCH  33  34
HETATM   34  O8  UNL     1      14.889  14.126  33.401  1.00  0.00    -0.380 OA
ATOM     35  H8  UNL     1      15.450  13.408  33.131  1.00  0.00     0.211 HD
ENDBRANCH  33  34
ENDBRANCH   8  33
BRANCH   9  36
HETATM   36  C12 UNL     1      17.369  13.484  35.798  1.00  0.00     0.277 C 
HETATM   37  O9  UNL     1      17.571  13.308  34.452  1.00  0.00    -0.360 OA
HETATM   38  C13 UNL     1      18.526  12.265  34.453  1.00  0.00     0.198 C 
HETATM   39  C14 UNL     1      17.838  11.238  35.322  1.00  0.00     0.141 C 
HETATM   40  C17 UNL     1      17.076  12.099  36.300  1.00  0.00     0.193 C 
BRANCH  39  41
HETATM   41  N6  UNL     1      16.988  10.349  34.581  1.00  0.00    -0.350 N 
HETATM   42  C15 UNL     1      16.809   8.982  34.892  1.00  0.00     0.243 C 
HETATM   43  O10 UNL     1      17.424   8.510  35.870  1.00  0.00    -0.272 OA
ATOM     44  H6  UNL     1      16.482  10.727  33.780  1.00  0.00     0.163 HD
BRANCH  42  45
HETATM   45  C16 UNL     1      15.927   8.099  34.106  1.00  0.00     0.332 C 
BRANCH  45  46
HETATM   46  N7  UNL     1      16.163   6.718  34.427  1.00  0.00    -0.071 N 
ATOM     47  H73 UNL     1      17.056   6.589  34.904  1.00  0.00     0.274 HD
ATOM     48  H72 UNL     1      15.543   6.393  35.169  1.00  0.00     0.274 HD
ATOM     49  H71 UNL     1      16.093   6.133  33.594  1.00  0.00     0.274 HD
ENDBRANCH  45  46
ENDBRANCH  42  45
ENDBRANCH  39  41
BRANCH  40  50
HETATM   50  O11 UNL     1      17.664  11.921  37.552  1.00  0.00    -0.389 OA
ATOM     51  H11 UNL     1      17.154  12.377  38.211  1.00  0.00     0.210 HD
ENDBRANCH  40  50
ENDBRANCH   9  36
TORSDOF 15
ENDMDL
