MODEL 1
REMARK VINA RESULT: -8.108765934      0.000      0.000
REMARK  12 active torsions:
REMARK  status: ('A' for Active; 'I' for Inactive)
REMARK    1  A    between atoms: S1_2  and  S2_3 
REMARK    2  A    between atoms: S2_3  and  C2_4 
REMARK    3  A    between atoms: C3_7  and  C4_8 
REMARK    4  A    between atoms: C4_8  and  O1_9 
REMARK    5  A    between atoms: C4_8  and  N2_11 
REMARK       I    between atoms: N2_11  and  C5_13 
REMARK    6  A    between atoms: C5_13  and  C6_15 
REMARK    7  A    between atoms: C6_15  and  C7_16 
REMARK       I    between atoms: C7_16  and  N3_18 
REMARK    8  A    between atoms: N3_18  and  C8_20 
REMARK    9  A    between atoms: C11_25  and  N5_26 
REMARK   10  A    between atoms: C14_37  and  C15_38 
REMARK   11  A    between atoms: C15_38  and  O6_39 
REMARK   12  A    between atoms: C15_38  and  O7_41 
ROOT
HETATM    1  C6  UNL     1      61.081   0.398  70.372  1.00  0.00     0.206 C 
ENDROOT
BRANCH   1   2
HETATM    2  C5  UNL     1      60.079   0.659  69.304  1.00  0.00     0.228 C 
HETATM    3  N2  UNL     1      60.433   0.418  67.965  1.00  0.00    -0.329 N 
ATOM      4  H2  UNL     1      61.369   0.077  67.744  1.00  0.00     0.165 HD
HETATM    5  O2  UNL     1      58.932   1.092  69.636  1.00  0.00    -0.273 OA
BRANCH   3   6
HETATM    6  C4  UNL     1      59.489   0.648  66.899  1.00  0.00     0.272 C 
BRANCH   6   7
HETATM    7  C3  UNL     1      60.010  -0.030  65.626  1.00  0.00     0.077 A 
HETATM    8  N1  UNL     1      60.106   0.651  64.510  1.00  0.00    -0.343 N 
HETATM    9  C2  UNL     1      60.534   0.081  63.410  1.00  0.00     0.123 A 
ATOM     10  H1  UNL     1      59.845   1.637  64.497  1.00  0.00     0.167 HD
HETATM   11  S3  UNL     1      60.835  -1.509  63.915  1.00  0.00    -0.062 SA
HETATM   12  C14 UNL     1      60.371  -1.343  65.593  1.00  0.00     0.066 A 
BRANCH   9  13
HETATM   13  S2  UNL     1      60.741   0.828  61.768  1.00  0.00    -0.033 SA
BRANCH  13  14
HETATM   14  S1  UNL     1      61.118   2.922  62.073  1.00  0.00    -0.095 SA
HETATM   15  C1  UNL     1      59.744   3.661  62.994  1.00  0.00     0.103 C 
ENDBRANCH  13  14
ENDBRANCH   9  13
BRANCH  12  16
HETATM   16  C15 UNL     1      60.416  -2.430  66.607  1.00  0.00     0.297 C 
BRANCH  16  17
HETATM   17  O6  UNL     1      59.530  -2.374  67.624  1.00  0.00    -0.367 OA
ATOM     18  H6  UNL     1      58.902  -3.084  67.702  1.00  0.00     0.213 HD
ENDBRANCH  16  17
BRANCH  16  19
HETATM   19  O7  UNL     1      61.708  -2.388  67.186  1.00  0.00    -0.367 OA
ATOM     20  H7  UNL     1      62.158  -3.174  66.900  1.00  0.00     0.213 HD
ENDBRANCH  16  19
ENDBRANCH  12  16
ENDBRANCH   6   7
BRANCH   6  21
HETATM   21  O1  UNL     1      59.191   1.959  66.737  1.00  0.00    -0.371 OA
ATOM     22  H1  UNL     1      58.389   2.113  66.252  1.00  0.00     0.212 HD
ENDBRANCH   6  21
ENDBRANCH   3   6
ENDBRANCH   1   2
BRANCH   1  23
HETATM   23  C7  UNL     1      61.180  -1.056  70.580  1.00  0.00     0.244 C 
HETATM   24  O3  UNL     1      61.926  -1.712  69.818  1.00  0.00    -0.272 OA
HETATM   25  N3  UNL     1      60.431  -1.626  71.628  1.00  0.00    -0.159 N 
ATOM     26  H3  UNL     1      60.917  -1.832  72.501  1.00  0.00     0.187 HD
BRANCH  25  27
HETATM   27  C8  UNL     1      59.195  -1.901  71.564  1.00  0.00     0.687 A 
HETATM   28  N4  UNL     1      58.560  -2.232  70.427  1.00  0.00    -0.185 N 
HETATM   29  C9  UNL     1      57.245  -2.511  70.351  1.00  0.00     0.136 A 
ATOM     30  H4  UNL     1      59.108  -2.275  69.569  1.00  0.00     0.184 HD
HETATM   31  C10 UNL     1      56.477  -2.459  71.518  1.00  0.00     0.109 A 
HETATM   32  C13 UNL     1      56.357  -2.888  69.252  1.00  0.00     0.276 A 
HETATM   33  C11 UNL     1      57.135  -2.120  72.679  1.00  0.00     0.133 A 
HETATM   34  C12 UNL     1      55.104  -2.800  71.175  1.00  0.00     0.264 A 
HETATM   35  N6  UNL     1      58.445  -1.852  72.699  1.00  0.00    -0.176 N 
ATOM     36  H6  UNL     1      58.891  -1.606  73.582  1.00  0.00     0.186 HD
HETATM   37  O4  UNL     1      54.157  -2.848  71.981  1.00  0.00    -0.267 OA
HETATM   38  N7  UNL     1      55.046  -3.060  69.786  1.00  0.00    -0.288 N 
ATOM     39  H7  UNL     1      54.213  -3.322  69.258  1.00  0.00     0.172 HD
HETATM   40  O5  UNL     1      56.747  -3.020  68.071  1.00  0.00    -0.266 OA
BRANCH  33  41
HETATM   41  N5  UNL     1      56.413  -2.072  73.761  1.00  0.00    -0.384 N 
ATOM     42  H52 UNL     1      55.672  -2.749  73.940  1.00  0.00     0.157 HD
ATOM     43  H51 UNL     1      56.630  -1.324  74.419  1.00  0.00     0.157 HD
ENDBRANCH  33  41
ENDBRANCH  25  27
ENDBRANCH   1  23
TORSDOF 12
ENDMDL
MODEL 2
REMARK VINA RESULT: -7.957732715      5.631      8.323
REMARK  12 active torsions:
REMARK  status: ('A' for Active; 'I' for Inactive)
REMARK    1  A    between atoms: S1_2  and  S2_3 
REMARK    2  A    between atoms: S2_3  and  C2_4 
REMARK    3  A    between atoms: C3_7  and  C4_8 
REMARK    4  A    between atoms: C4_8  and  O1_9 
REMARK    5  A    between atoms: C4_8  and  N2_11 
REMARK       I    between atoms: N2_11  and  C5_13 
REMARK    6  A    between atoms: C5_13  and  C6_15 
REMARK    7  A    between atoms: C6_15  and  C7_16 
REMARK       I    between atoms: C7_16  and  N3_18 
REMARK    8  A    between atoms: N3_18  and  C8_20 
REMARK    9  A    between atoms: C11_25  and  N5_26 
REMARK   10  A    between atoms: C14_37  and  C15_38 
REMARK   11  A    between atoms: C15_38  and  O6_39 
REMARK   12  A    between atoms: C15_38  and  O7_41 
ROOT
HETATM    1  C6  UNL     1      64.840  -2.816  66.752  1.00  0.00     0.206 C 
ENDROOT
BRANCH   1   2
HETATM    2  C5  UNL     1      64.967  -4.144  67.411  1.00  0.00     0.228 C 
HETATM    3  N2  UNL     1      65.421  -4.203  68.741  1.00  0.00    -0.329 N 
ATOM      4  H2  UNL     1      65.663  -3.342  69.230  1.00  0.00     0.165 HD
HETATM    5  O2  UNL     1      64.659  -5.185  66.751  1.00  0.00    -0.273 OA
BRANCH   3   6
HETATM    6  C4  UNL     1      65.548  -5.469  69.421  1.00  0.00     0.272 C 
BRANCH   6   7
HETATM    7  C3  UNL     1      66.151  -5.222  70.809  1.00  0.00     0.077 A 
HETATM    8  N1  UNL     1      66.890  -4.161  71.026  1.00  0.00    -0.343 N 
HETATM    9  C2  UNL     1      67.426  -3.945  72.202  1.00  0.00     0.123 A 
ATOM     10  H1  UNL     1      67.050  -3.495  70.270  1.00  0.00     0.167 HD
HETATM   11  S3  UNL     1      66.893  -5.281  73.099  1.00  0.00    -0.062 SA
HETATM   12  C14 UNL     1      65.966  -6.081  71.850  1.00  0.00     0.066 A 
BRANCH   9  13
HETATM   13  S2  UNL     1      68.476  -2.555  72.717  1.00  0.00    -0.033 SA
BRANCH  13  14
HETATM   14  S1  UNL     1      67.187  -0.853  72.970  1.00  0.00    -0.095 SA
HETATM   15  C1  UNL     1      65.463  -1.404  73.074  1.00  0.00     0.103 C 
ENDBRANCH  13  14
ENDBRANCH   9  13
BRANCH  12  16
HETATM   16  C15 UNL     1      65.217  -7.355  72.020  1.00  0.00     0.297 C 
BRANCH  16  17
HETATM   17  O6  UNL     1      64.903  -8.050  70.906  1.00  0.00    -0.367 OA
ATOM     18  H6  UNL     1      65.075  -8.985  70.906  1.00  0.00     0.213 HD
ENDBRANCH  16  17
BRANCH  16  19
HETATM   19  O7  UNL     1      63.996  -7.022  72.654  1.00  0.00    -0.367 OA
ATOM     20  H7  UNL     1      63.443  -6.632  71.986  1.00  0.00     0.213 HD
ENDBRANCH  16  19
ENDBRANCH  12  16
ENDBRANCH   6   7
BRANCH   6  21
HETATM   21  O1  UNL     1      66.218  -6.391  68.690  1.00  0.00    -0.371 OA
ATOM     22  H1  UNL     1      66.202  -6.224  67.755  1.00  0.00     0.212 HD
ENDBRANCH   6  21
ENDBRANCH   3   6
ENDBRANCH   1   2
BRANCH   1  23
HETATM   23  C7  UNL     1      63.701  -2.859  65.820  1.00  0.00     0.244 C 
HETATM   24  O3  UNL     1      63.934  -2.727  64.597  1.00  0.00    -0.272 OA
HETATM   25  N3  UNL     1      62.414  -3.052  66.359  1.00  0.00    -0.159 N 
ATOM     26  H3  UNL     1      62.018  -3.991  66.319  1.00  0.00     0.187 HD
BRANCH  25  27
HETATM   27  C8  UNL     1      61.712  -2.140  66.891  1.00  0.00     0.687 A 
HETATM   28  N4  UNL     1      61.042  -1.208  66.193  1.00  0.00    -0.185 N 
HETATM   29  C9  UNL     1      60.308  -0.229  66.753  1.00  0.00     0.136 A 
ATOM     30  H4  UNL     1      61.094  -1.244  65.176  1.00  0.00     0.184 HD
HETATM   31  C10 UNL     1      60.223  -0.164  68.147  1.00  0.00     0.109 A 
HETATM   32  C13 UNL     1      59.509   0.870  66.210  1.00  0.00     0.276 A 
HETATM   33  C11 UNL     1      60.911  -1.124  68.856  1.00  0.00     0.133 A 
HETATM   34  C12 UNL     1      59.378   0.967  68.501  1.00  0.00     0.264 A 
HETATM   35  N6  UNL     1      61.627  -2.075  68.248  1.00  0.00    -0.176 N 
ATOM     36  H6  UNL     1      62.121  -2.766  68.813  1.00  0.00     0.186 HD
HETATM   37  O4  UNL     1      59.093   1.312  69.662  1.00  0.00    -0.267 OA
HETATM   38  N7  UNL     1      58.949   1.590  67.305  1.00  0.00    -0.288 N 
ATOM     39  H7  UNL     1      58.346   2.410  67.238  1.00  0.00     0.172 HD
HETATM   40  O5  UNL     1      59.384   1.082  64.983  1.00  0.00    -0.266 OA
BRANCH  33  41
HETATM   41  N5  UNL     1      60.829  -1.056  70.153  1.00  0.00    -0.384 N 
ATOM     42  H52 UNL     1      61.202  -0.262  70.672  1.00  0.00     0.157 HD
ATOM     43  H51 UNL     1      60.373  -1.839  70.621  1.00  0.00     0.157 HD
ENDBRANCH  33  41
ENDBRANCH  25  27
ENDBRANCH   1  23
TORSDOF 12
ENDMDL
MODEL 3
REMARK VINA RESULT: -7.861867119      4.574      6.528
REMARK  12 active torsions:
REMARK  status: ('A' for Active; 'I' for Inactive)
REMARK    1  A    between atoms: S1_2  and  S2_3 
REMARK    2  A    between atoms: S2_3  and  C2_4 
REMARK    3  A    between atoms: C3_7  and  C4_8 
REMARK    4  A    between atoms: C4_8  and  O1_9 
REMARK    5  A    between atoms: C4_8  and  N2_11 
REMARK       I    between atoms: N2_11  and  C5_13 
REMARK    6  A    between atoms: C5_13  and  C6_15 
REMARK    7  A    between atoms: C6_15  and  C7_16 
REMARK       I    between atoms: C7_16  and  N3_18 
REMARK    8  A    between atoms: N3_18  and  C8_20 
REMARK    9  A    between atoms: C11_25  and  N5_26 
REMARK   10  A    between atoms: C14_37  and  C15_38 
REMARK   11  A    between atoms: C15_38  and  O6_39 
REMARK   12  A    between atoms: C15_38  and  O7_41 
ROOT
HETATM    1  C6  UNL     1      61.559  -3.546  72.862  1.00  0.00     0.206 C 
ENDROOT
BRANCH   1   2
HETATM    2  C5  UNL     1      62.947  -3.551  72.326  1.00  0.00     0.228 C 
HETATM    3  N2  UNL     1      63.955  -4.206  73.054  1.00  0.00    -0.329 N 
ATOM      4  H2  UNL     1      63.725  -4.659  73.938  1.00  0.00     0.165 HD
HETATM    5  O2  UNL     1      63.177  -2.963  71.224  1.00  0.00    -0.273 OA
BRANCH   3   6
HETATM    6  C4  UNL     1      65.312  -4.244  72.565  1.00  0.00     0.272 C 
BRANCH   6   7
HETATM    7  C3  UNL     1      65.393  -5.260  71.419  1.00  0.00     0.077 A 
HETATM    8  N1  UNL     1      65.585  -4.849  70.189  1.00  0.00    -0.343 N 
HETATM    9  C2  UNL     1      65.639  -5.704  69.197  1.00  0.00     0.123 A 
ATOM     10  H1  UNL     1      65.694  -3.853  70.001  1.00  0.00     0.167 HD
HETATM   11  S3  UNL     1      65.413  -7.190  69.980  1.00  0.00    -0.062 SA
HETATM   12  C14 UNL     1      65.254  -6.600  71.618  1.00  0.00     0.066 A 
BRANCH   9  13
HETATM   13  S2  UNL     1      65.892  -5.357  67.432  1.00  0.00    -0.033 SA
BRANCH  13  14
HETATM   14  S1  UNL     1      64.546  -3.766  66.905  1.00  0.00    -0.095 SA
HETATM   15  C1  UNL     1      63.750  -4.141  65.320  1.00  0.00     0.103 C 
ENDBRANCH  13  14
ENDBRANCH   9  13
BRANCH  12  16
HETATM   16  C15 UNL     1      65.035  -7.451  72.819  1.00  0.00     0.297 C 
BRANCH  16  17
HETATM   17  O6  UNL     1      65.137  -8.788  72.666  1.00  0.00    -0.367 OA
ATOM     18  H6  UNL     1      66.010  -9.159  72.600  1.00  0.00     0.213 HD
ENDBRANCH  16  17
BRANCH  16  19
HETATM   19  O7  UNL     1      63.716  -7.188  73.262  1.00  0.00    -0.367 OA
ATOM     20  H7  UNL     1      63.796  -6.718  74.085  1.00  0.00     0.213 HD
ENDBRANCH  16  19
ENDBRANCH  12  16
ENDBRANCH   6   7
BRANCH   6  21
HETATM   21  O1  UNL     1      66.217  -4.457  73.549  1.00  0.00    -0.371 OA
ATOM     22  H1  UNL     1      67.120  -4.394  73.261  1.00  0.00     0.212 HD
ENDBRANCH   6  21
ENDBRANCH   3   6
ENDBRANCH   1   2
BRANCH   1  23
HETATM   23  C7  UNL     1      61.053  -2.163  72.847  1.00  0.00     0.244 C 
HETATM   24  O3  UNL     1      61.347  -1.416  73.808  1.00  0.00    -0.272 OA
HETATM   25  N3  UNL     1      60.271  -1.758  71.747  1.00  0.00    -0.159 N 
ATOM     26  H3  UNL     1      60.728  -1.217  71.013  1.00  0.00     0.187 HD
BRANCH  25  27
HETATM   27  C8  UNL     1      59.038  -2.020  71.605  1.00  0.00     0.687 A 
HETATM   28  N4  UNL     1      58.463  -2.291  70.421  1.00  0.00    -0.185 N 
HETATM   29  C9  UNL     1      57.152  -2.555  70.262  1.00  0.00     0.136 A 
ATOM     30  H4  UNL     1      59.056  -2.297  69.592  1.00  0.00     0.184 HD
HETATM   31  C10 UNL     1      56.324  -2.552  71.388  1.00  0.00     0.109 A 
HETATM   32  C13 UNL     1      56.321  -2.872  69.102  1.00  0.00     0.276 A 
HETATM   33  C11 UNL     1      56.921  -2.274  72.598  1.00  0.00     0.133 A 
HETATM   34  C12 UNL     1      54.968  -2.865  70.958  1.00  0.00     0.264 A 
HETATM   35  N6  UNL     1      58.229  -2.018  72.699  1.00  0.00    -0.176 N 
ATOM     36  H6  UNL     1      58.629  -1.818  73.616  1.00  0.00     0.186 HD
HETATM   37  O4  UNL     1      53.980  -2.943  71.710  1.00  0.00    -0.267 OA
HETATM   38  N7  UNL     1      54.983  -3.058  69.556  1.00  0.00    -0.288 N 
ATOM     39  H7  UNL     1      54.178  -3.288  68.974  1.00  0.00     0.172 HD
HETATM   40  O5  UNL     1      56.773  -2.951  67.938  1.00  0.00    -0.266 OA
BRANCH  33  41
HETATM   41  N5  UNL     1      56.143  -2.271  73.642  1.00  0.00    -0.384 N 
ATOM     42  H52 UNL     1      56.038  -3.096  74.231  1.00  0.00     0.157 HD
ATOM     43  H51 UNL     1      55.648  -1.402  73.837  1.00  0.00     0.157 HD
ENDBRANCH  33  41
ENDBRANCH  25  27
ENDBRANCH   1  23
TORSDOF 12
ENDMDL
MODEL 4
REMARK VINA RESULT: -7.825571977      4.131      7.740
REMARK  12 active torsions:
REMARK  status: ('A' for Active; 'I' for Inactive)
REMARK    1  A    between atoms: S1_2  and  S2_3 
REMARK    2  A    between atoms: S2_3  and  C2_4 
REMARK    3  A    between atoms: C3_7  and  C4_8 
REMARK    4  A    between atoms: C4_8  and  O1_9 
REMARK    5  A    between atoms: C4_8  and  N2_11 
REMARK       I    between atoms: N2_11  and  C5_13 
REMARK    6  A    between atoms: C5_13  and  C6_15 
REMARK    7  A    between atoms: C6_15  and  C7_16 
REMARK       I    between atoms: C7_16  and  N3_18 
REMARK    8  A    between atoms: N3_18  and  C8_20 
REMARK    9  A    between atoms: C11_25  and  N5_26 
REMARK   10  A    between atoms: C14_37  and  C15_38 
REMARK   11  A    between atoms: C15_38  and  O6_39 
REMARK   12  A    between atoms: C15_38  and  O7_41 
ROOT
HETATM    1  C6  UNL     1      59.534  -2.423  66.699  1.00  0.00     0.206 C 
ENDROOT
BRANCH   1   2
HETATM    2  C5  UNL     1      58.352  -2.259  67.588  1.00  0.00     0.228 C 
HETATM    3  N2  UNL     1      58.120  -3.214  68.594  1.00  0.00    -0.329 N 
ATOM      4  H2  UNL     1      58.756  -4.005  68.694  1.00  0.00     0.165 HD
HETATM    5  O2  UNL     1      57.590  -1.259  67.412  1.00  0.00    -0.273 OA
BRANCH   3   6
HETATM    6  C4  UNL     1      56.992  -3.088  69.485  1.00  0.00     0.272 C 
BRANCH   6   7
HETATM    7  C3  UNL     1      57.512  -2.776  70.893  1.00  0.00     0.077 A 
HETATM    8  N1  UNL     1      58.796  -2.832  71.148  1.00  0.00    -0.343 N 
HETATM    9  C2  UNL     1      59.254  -2.584  72.351  1.00  0.00     0.123 A 
ATOM     10  H1  UNL     1      59.448  -3.072  70.401  1.00  0.00     0.167 HD
HETATM   11  S3  UNL     1      57.838  -2.245  73.219  1.00  0.00    -0.062 SA
HETATM   12  C14 UNL     1      56.682  -2.451  71.923  1.00  0.00     0.066 A 
BRANCH   9  13
HETATM   13  S2  UNL     1      60.978  -2.607  72.921  1.00  0.00    -0.033 SA
BRANCH  13  14
HETATM   14  S1  UNL     1      61.654  -0.567  72.963  1.00  0.00    -0.095 SA
HETATM   15  C1  UNL     1      60.718   0.410  71.758  1.00  0.00     0.103 C 
ENDBRANCH  13  14
ENDBRANCH   9  13
BRANCH  12  16
HETATM   16  C15 UNL     1      55.210  -2.278  72.051  1.00  0.00     0.297 C 
BRANCH  16  17
HETATM   17  O6  UNL     1      54.471  -2.351  70.924  1.00  0.00    -0.367 OA
ATOM     18  H6  UNL     1      53.542  -2.531  71.016  1.00  0.00     0.213 HD
ENDBRANCH  16  17
BRANCH  16  19
HETATM   19  O7  UNL     1      55.002  -0.987  72.595  1.00  0.00    -0.367 OA
ATOM     20  H7  UNL     1      54.177  -1.023  73.067  1.00  0.00     0.213 HD
ENDBRANCH  16  19
ENDBRANCH  12  16
ENDBRANCH   6   7
BRANCH   6  21
HETATM   21  O1  UNL     1      56.162  -4.157  69.432  1.00  0.00    -0.371 OA
ATOM     22  H1  UNL     1      56.434  -4.823  68.813  1.00  0.00     0.212 HD
ENDBRANCH   6  21
ENDBRANCH   3   6
ENDBRANCH   1   2
BRANCH   1  23
HETATM   23  C7  UNL     1      60.461  -1.304  66.937  1.00  0.00     0.244 C 
HETATM   24  O3  UNL     1      60.579  -0.434  66.045  1.00  0.00    -0.272 OA
HETATM   25  N3  UNL     1      61.161  -1.276  68.160  1.00  0.00    -0.159 N 
ATOM     26  H3  UNL     1      60.805  -0.665  68.895  1.00  0.00     0.187 HD
BRANCH  25  27
HETATM   27  C8  UNL     1      62.201  -1.956  68.412  1.00  0.00     0.687 A 
HETATM   28  N4  UNL     1      62.820  -2.737  67.511  1.00  0.00    -0.185 N 
HETATM   29  C9  UNL     1      63.916  -3.473  67.776  1.00  0.00     0.136 A 
ATOM     30  H4  UNL     1      62.436  -2.775  66.567  1.00  0.00     0.184 HD
HETATM   31  C10 UNL     1      64.458  -3.432  69.064  1.00  0.00     0.109 A 
HETATM   32  C13 UNL     1      64.744  -4.374  66.975  1.00  0.00     0.276 A 
HETATM   33  C11 UNL     1      63.818  -2.628  69.981  1.00  0.00     0.133 A 
HETATM   34  C12 UNL     1      65.626  -4.300  69.095  1.00  0.00     0.264 A 
HETATM   35  N6  UNL     1      62.731  -1.918  69.664  1.00  0.00    -0.176 N 
ATOM     36  H6  UNL     1      62.291  -1.335  70.376  1.00  0.00     0.186 HD
HETATM   37  O4  UNL     1      66.346  -4.495  70.091  1.00  0.00    -0.267 OA
HETATM   38  N7  UNL     1      65.788  -4.870  67.809  1.00  0.00    -0.288 N 
ATOM     39  H7  UNL     1      66.521  -5.521  67.529  1.00  0.00     0.172 HD
HETATM   40  O5  UNL     1      64.516  -4.622  65.770  1.00  0.00    -0.266 OA
BRANCH  33  41
HETATM   41  N5  UNL     1      64.328  -2.596  71.179  1.00  0.00    -0.384 N 
ATOM     42  H52 UNL     1      64.229  -3.381  71.823  1.00  0.00     0.157 HD
ATOM     43  H51 UNL     1      64.831  -1.747  71.437  1.00  0.00     0.157 HD
ENDBRANCH  33  41
ENDBRANCH  25  27
ENDBRANCH   1  23
TORSDOF 12
ENDMDL
MODEL 5
REMARK VINA RESULT: -7.768934754      5.689      8.584
REMARK  12 active torsions:
REMARK  status: ('A' for Active; 'I' for Inactive)
REMARK    1  A    between atoms: S1_2  and  S2_3 
REMARK    2  A    between atoms: S2_3  and  C2_4 
REMARK    3  A    between atoms: C3_7  and  C4_8 
REMARK    4  A    between atoms: C4_8  and  O1_9 
REMARK    5  A    between atoms: C4_8  and  N2_11 
REMARK       I    between atoms: N2_11  and  C5_13 
REMARK    6  A    between atoms: C5_13  and  C6_15 
REMARK    7  A    between atoms: C6_15  and  C7_16 
REMARK       I    between atoms: C7_16  and  N3_18 
REMARK    8  A    between atoms: N3_18  and  C8_20 
REMARK    9  A    between atoms: C11_25  and  N5_26 
REMARK   10  A    between atoms: C14_37  and  C15_38 
REMARK   11  A    between atoms: C15_38  and  O6_39 
REMARK   12  A    between atoms: C15_38  and  O7_41 
ROOT
HETATM    1  C6  UNL     1      64.822  -2.889  66.923  1.00  0.00     0.206 C 
ENDROOT
BRANCH   1   2
HETATM    2  C5  UNL     1      64.999  -4.225  67.555  1.00  0.00     0.228 C 
HETATM    3  N2  UNL     1      65.402  -4.293  68.900  1.00  0.00    -0.329 N 
ATOM      4  H2  UNL     1      65.574  -3.433  69.419  1.00  0.00     0.165 HD
HETATM    5  O2  UNL     1      64.778  -5.264  66.858  1.00  0.00    -0.273 OA
BRANCH   3   6
HETATM    6  C4  UNL     1      65.576  -5.567  69.554  1.00  0.00     0.272 C 
BRANCH   6   7
HETATM    7  C3  UNL     1      66.169  -5.327  70.947  1.00  0.00     0.077 A 
HETATM    8  N1  UNL     1      66.927  -4.280  71.168  1.00  0.00    -0.343 N 
HETATM    9  C2  UNL     1      67.455  -4.070  72.349  1.00  0.00     0.123 A 
ATOM     10  H1  UNL     1      67.108  -3.621  70.411  1.00  0.00     0.167 HD
HETATM   11  S3  UNL     1      66.886  -5.392  73.245  1.00  0.00    -0.062 SA
HETATM   12  C14 UNL     1      65.956  -6.178  71.990  1.00  0.00     0.066 A 
BRANCH   9  13
HETATM   13  S2  UNL     1      68.528  -2.700  72.869  1.00  0.00    -0.033 SA
BRANCH  13  14
HETATM   14  S1  UNL     1      67.291  -0.947  72.996  1.00  0.00    -0.095 SA
HETATM   15  C1  UNL     1      65.558  -1.437  73.199  1.00  0.00     0.103 C 
ENDBRANCH  13  14
ENDBRANCH   9  13
BRANCH  12  16
HETATM   16  C15 UNL     1      65.180  -7.435  72.157  1.00  0.00     0.297 C 
BRANCH  16  17
HETATM   17  O6  UNL     1      64.855  -8.123  71.042  1.00  0.00    -0.367 OA
ATOM     18  H6  UNL     1      63.932  -8.270  70.867  1.00  0.00     0.213 HD
ENDBRANCH  16  17
BRANCH  16  19
HETATM   19  O7  UNL     1      63.963  -7.077  72.786  1.00  0.00    -0.367 OA
ATOM     20  H7  UNL     1      63.481  -6.548  72.161  1.00  0.00     0.213 HD
ENDBRANCH  16  19
ENDBRANCH  12  16
ENDBRANCH   6   7
BRANCH   6  21
HETATM   21  O1  UNL     1      66.279  -6.449  68.805  1.00  0.00    -0.371 OA
ATOM     22  H1  UNL     1      65.849  -6.691  67.994  1.00  0.00     0.212 HD
ENDBRANCH   6  21
ENDBRANCH   3   6
ENDBRANCH   1   2
BRANCH   1  23
HETATM   23  C7  UNL     1      63.839  -3.010  65.833  1.00  0.00     0.244 C 
HETATM   24  O3  UNL     1      64.258  -2.979  64.654  1.00  0.00    -0.272 OA
HETATM   25  N3  UNL     1      62.481  -3.159  66.182  1.00  0.00    -0.159 N 
ATOM     26  H3  UNL     1      62.086  -4.099  66.157  1.00  0.00     0.187 HD
BRANCH  25  27
HETATM   27  C8  UNL     1      61.717  -2.208  66.523  1.00  0.00     0.687 A 
HETATM   28  N4  UNL     1      61.439  -1.892  67.799  1.00  0.00    -0.185 N 
HETATM   29  C9  UNL     1      60.617  -0.892  68.168  1.00  0.00     0.136 A 
ATOM     30  H4  UNL     1      61.879  -2.444  68.535  1.00  0.00     0.184 HD
HETATM   31  C10 UNL     1      60.005  -0.123  67.174  1.00  0.00     0.109 A 
HETATM   32  C13 UNL     1      60.176  -0.374  69.463  1.00  0.00     0.276 A 
HETATM   33  C11 UNL     1      60.295  -0.452  65.868  1.00  0.00     0.133 A 
HETATM   34  C12 UNL     1      59.176   0.884  67.821  1.00  0.00     0.264 A 
HETATM   35  N6  UNL     1      61.120  -1.457  65.558  1.00  0.00    -0.176 N 
ATOM     36  H6  UNL     1      61.307  -1.665  64.577  1.00  0.00     0.186 HD
HETATM   37  O4  UNL     1      58.491   1.736  67.227  1.00  0.00    -0.267 OA
HETATM   38  N7  UNL     1      59.291   0.717  69.222  1.00  0.00    -0.288 N 
ATOM     39  H7  UNL     1      58.823   1.278  69.933  1.00  0.00     0.172 HD
HETATM   40  O5  UNL     1      60.551  -0.854  70.555  1.00  0.00    -0.266 OA
BRANCH  33  41
HETATM   41  N5  UNL     1      59.721   0.268  64.948  1.00  0.00    -0.384 N 
ATOM     42  H52 UNL     1      59.156  -0.157  64.213  1.00  0.00     0.157 HD
ATOM     43  H51 UNL     1      59.866   1.275  65.002  1.00  0.00     0.157 HD
ENDBRANCH  33  41
ENDBRANCH  25  27
ENDBRANCH   1  23
TORSDOF 12
ENDMDL
