MODEL 1
REMARK VINA RESULT: -8.770997538      0.000      0.000
REMARK  14 active torsions:
REMARK  status: ('A' for Active; 'I' for Inactive)
REMARK    1  A    between atoms: N1_1  and  C1_4 
REMARK    2  A    between atoms: C2_7  and  N3_8 
REMARK    3  A    between atoms: C3_11  and  C4_12 
REMARK    4  A    between atoms: C7_15  and  O1_16 
REMARK    5  A    between atoms: C8_18  and  N4_19 
REMARK    6  A    between atoms: C14_25  and  O2_26 
REMARK    7  A    between atoms: C15_28  and  C16_29 
REMARK    8  A    between atoms: C16_29  and  O3_30 
REMARK    9  A    between atoms: C17_32  and  C18_33 
REMARK   10  A    between atoms: C18_33  and  N5_34 
REMARK   11  A    between atoms: N8_39  and  C19_40 
REMARK   12  A    between atoms: C19_40  and  C20_41 
REMARK   13  A    between atoms: C20_41  and  O4_42 
REMARK   14  A    between atoms: C20_41  and  C21_44 
ROOT
HETATM    1  C1  UNL     1      61.212  -1.099  67.381  1.00  0.00     0.109 C 
HETATM    2  N2  UNL     1      62.292  -1.917  67.386  1.00  0.00    -0.328 N 
ATOM      3  H2  UNL     1      62.522  -2.346  66.489  1.00  0.00     0.169 HD
HETATM    4  C2  UNL     1      63.112  -2.247  68.417  1.00  0.00     0.114 C 
HETATM    5  C3  UNL     1      63.130  -1.764  69.698  1.00  0.00     0.052 C 
HETATM    6  C14 UNL     1      62.331  -0.771  70.214  1.00  0.00     0.089 C 
HETATM    7  C15 UNL     1      61.349  -0.001  69.565  1.00  0.00     0.011 C 
HETATM    8  C17 UNL     1      60.638  -0.411  68.460  1.00  0.00     0.017 C 
ENDROOT
BRANCH   8   9
HETATM    9  C18 UNL     1      59.217  -0.183  68.321  1.00  0.00     0.199 C 
BRANCH   9  10
HETATM   10  N5  UNL     1      58.439  -1.339  68.801  1.00  0.00    -0.221 N 
HETATM   11  N6  UNL     1      57.893  -2.238  68.035  1.00  0.00    -0.221 N 
HETATM   12  N7  UNL     1      57.277  -3.129  68.827  1.00  0.00    -0.222 N 
ATOM     13  H6  UNL     1      57.928  -2.262  67.015  1.00  0.00     0.210 HD
HETATM   14  N8  UNL     1      57.428  -2.798  70.096  1.00  0.00    -0.223 N 
ATOM     15  H7  UNL     1      56.764  -3.945  68.496  1.00  0.00     0.210 HD
HETATM   16  C22 UNL     1      58.173  -1.652  70.067  1.00  0.00     0.360 A 
HETATM   17  O6  UNL     1      58.513  -1.047  71.112  1.00  0.00    -0.243 OA
BRANCH  14  18
HETATM   18  C19 UNL     1      56.924  -3.489  71.257  1.00  0.00     0.196 C 
BRANCH  18  19
HETATM   19  C20 UNL     1      55.444  -3.785  71.147  1.00  0.00     0.227 C 
BRANCH  19  20
HETATM   20  O4  UNL     1      55.107  -4.420  69.969  1.00  0.00    -0.385 OA
ATOM     21  H4  UNL     1      54.603  -5.214  70.106  1.00  0.00     0.210 HD
ENDBRANCH  19  20
BRANCH  19  22
HETATM   22  C21 UNL     1      54.610  -2.604  71.359  1.00  0.00     0.261 C 
HETATM   23  N9  UNL     1      55.022  -1.621  72.289  1.00  0.00    -0.060 NA
HETATM   24  O5  UNL     1      53.528  -2.426  70.740  1.00  0.00    -0.274 OA
ENDBRANCH  19  22
ENDBRANCH  18  19
ENDBRANCH  14  18
ENDBRANCH   9  10
ENDBRANCH   8   9
BRANCH   1  25
HETATM   25  N1  UNL     1      60.678  -0.971  66.224  1.00  0.00    -0.385 N 
ATOM     26  H12 UNL     1      60.367  -1.812  65.738  1.00  0.00     0.157 HD
ATOM     27  H11 UNL     1      60.627  -0.003  65.908  1.00  0.00     0.157 HD
ENDBRANCH   1  25
BRANCH   7  28
HETATM   28  C16 UNL     1      61.085   1.314  70.124  1.00  0.00     0.206 C 
BRANCH  28  29
HETATM   29  O3  UNL     1      60.222   1.392  71.198  1.00  0.00    -0.396 OA
ATOM     30  H3  UNL     1      60.032   2.254  71.550  1.00  0.00     0.209 HD
ENDBRANCH  28  29
ENDBRANCH   7  28
BRANCH   6  31
HETATM   31  O2  UNL     1      62.514  -0.492  71.543  1.00  0.00    -0.359 OA
ATOM     32  H2  UNL     1      61.771  -0.102  71.988  1.00  0.00     0.217 HD
ENDBRANCH   6  31
BRANCH   4  33
HETATM   33  N3  UNL     1      64.007  -3.141  68.179  1.00  0.00    -0.385 N 
ATOM     34  H32 UNL     1      63.979  -3.517  67.231  1.00  0.00     0.157 HD
ATOM     35  H31 UNL     1      64.637  -3.373  68.947  1.00  0.00     0.157 HD
ENDBRANCH   4  33
BRANCH   5  36
HETATM   36  C4  UNL     1      64.067  -2.350  70.604  1.00  0.00    -0.017 A 
HETATM   37  C5  UNL     1      65.138  -1.553  71.023  1.00  0.00     0.015 A 
HETATM   38  C6  UNL     1      66.051  -2.084  71.894  1.00  0.00     0.040 A 
HETATM   39  C7  UNL     1      65.938  -3.363  72.358  1.00  0.00     0.092 A 
HETATM   40  C8  UNL     1      64.886  -4.156  71.952  1.00  0.00     0.072 A 
HETATM   41  C13 UNL     1      63.968  -3.640  71.083  1.00  0.00     0.045 A 
BRANCH  39  42
HETATM   42  O1  UNL     1      66.869  -3.883  73.238  1.00  0.00    -0.358 OA
ATOM     43  H1  UNL     1      66.597  -4.285  74.054  1.00  0.00     0.217 HD
ENDBRANCH  39  42
BRANCH  40  44
HETATM   44  N4  UNL     1      64.741  -5.498  72.425  1.00  0.00    -0.330 N 
HETATM   45  C9  UNL     1      63.939  -5.844  73.452  1.00  0.00     0.097 A 
HETATM   46  C10 UNL     1      64.047  -7.213  73.633  1.00  0.00     0.019 A 
HETATM   47  C11 UNL     1      64.927  -7.672  72.695  1.00  0.00     0.019 A 
HETATM   48  C12 UNL     1      65.352  -6.578  71.945  1.00  0.00     0.097 A 
ENDBRANCH  40  44
ENDBRANCH   5  36
TORSDOF 14
ENDMDL
MODEL 2
REMARK VINA RESULT: -8.716829500      2.622      8.075
REMARK  14 active torsions:
REMARK  status: ('A' for Active; 'I' for Inactive)
REMARK    1  A    between atoms: N1_1  and  C1_4 
REMARK    2  A    between atoms: C2_7  and  N3_8 
REMARK    3  A    between atoms: C3_11  and  C4_12 
REMARK    4  A    between atoms: C7_15  and  O1_16 
REMARK    5  A    between atoms: C8_18  and  N4_19 
REMARK    6  A    between atoms: C14_25  and  O2_26 
REMARK    7  A    between atoms: C15_28  and  C16_29 
REMARK    8  A    between atoms: C16_29  and  O3_30 
REMARK    9  A    between atoms: C17_32  and  C18_33 
REMARK   10  A    between atoms: C18_33  and  N5_34 
REMARK   11  A    between atoms: N8_39  and  C19_40 
REMARK   12  A    between atoms: C19_40  and  C20_41 
REMARK   13  A    between atoms: C20_41  and  O4_42 
REMARK   14  A    between atoms: C20_41  and  C21_44 
ROOT
HETATM    1  C1  UNL     1      63.191   0.668  72.810  1.00  0.00     0.109 C 
HETATM    2  N2  UNL     1      61.954   1.070  72.431  1.00  0.00    -0.328 N 
ATOM      3  H2  UNL     1      61.592   1.891  72.917  1.00  0.00     0.169 HD
HETATM    4  C2  UNL     1      61.128   0.535  71.495  1.00  0.00     0.114 C 
HETATM    5  C3  UNL     1      61.364  -0.488  70.616  1.00  0.00     0.052 C 
HETATM    6  C14 UNL     1      62.542  -1.176  70.451  1.00  0.00     0.089 C 
HETATM    7  C15 UNL     1      63.776  -0.984  71.100  1.00  0.00     0.011 C 
HETATM    8  C17 UNL     1      63.922  -0.440  72.356  1.00  0.00     0.017 C 
ENDROOT
BRANCH   8   9
HETATM    9  C18 UNL     1      64.837  -0.980  73.337  1.00  0.00     0.199 C 
BRANCH   9  10
HETATM   10  N5  UNL     1      64.671  -2.437  73.480  1.00  0.00    -0.221 N 
HETATM   11  N6  UNL     1      63.537  -3.039  73.695  1.00  0.00    -0.221 N 
HETATM   12  N7  UNL     1      63.782  -4.357  73.763  1.00  0.00    -0.222 N 
ATOM     13  H6  UNL     1      62.626  -2.590  73.793  1.00  0.00     0.210 HD
HETATM   14  N8  UNL     1      65.069  -4.596  73.593  1.00  0.00    -0.223 N 
ATOM     15  H7  UNL     1      63.073  -5.072  73.924  1.00  0.00     0.210 HD
HETATM   16  C22 UNL     1      65.627  -3.360  73.413  1.00  0.00     0.360 A 
HETATM   17  O6  UNL     1      66.857  -3.203  73.220  1.00  0.00    -0.243 OA
BRANCH  14  18
HETATM   18  C19 UNL     1      65.741  -5.872  73.595  1.00  0.00     0.196 C 
BRANCH  18  19
HETATM   19  C20 UNL     1      65.815  -6.478  72.211  1.00  0.00     0.227 C 
BRANCH  19  20
HETATM   20  O4  UNL     1      65.360  -5.628  71.223  1.00  0.00    -0.385 OA
ATOM     21  H4  UNL     1      65.707  -4.748  71.302  1.00  0.00     0.210 HD
ENDBRANCH  19  20
BRANCH  19  22
HETATM   22  C21 UNL     1      65.155  -7.779  72.123  1.00  0.00     0.261 C 
HETATM   23  N9  UNL     1      64.994  -8.555  73.294  1.00  0.00    -0.060 NA
HETATM   24  O5  UNL     1      64.720  -8.239  71.035  1.00  0.00    -0.274 OA
ENDBRANCH  19  22
ENDBRANCH  18  19
ENDBRANCH  14  18
ENDBRANCH   9  10
ENDBRANCH   8   9
BRANCH   1  25
HETATM   25  N1  UNL     1      63.718   1.421  73.701  1.00  0.00    -0.385 N 
ATOM     26  H12 UNL     1      63.122   1.782  74.445  1.00  0.00     0.157 HD
ATOM     27  H11 UNL     1      64.715   1.583  73.555  1.00  0.00     0.157 HD
ENDBRANCH   1  25
BRANCH   7  28
HETATM   28  C16 UNL     1      64.961  -1.401  70.371  1.00  0.00     0.206 C 
BRANCH  28  29
HETATM   29  O3  UNL     1      65.121  -2.749  70.125  1.00  0.00    -0.396 OA
ATOM     30  H3  UNL     1      65.504  -3.004  69.294  1.00  0.00     0.209 HD
ENDBRANCH  28  29
ENDBRANCH   7  28
BRANCH   6  31
HETATM   31  O2  UNL     1      62.515  -2.189  69.529  1.00  0.00    -0.359 OA
ATOM     32  H2  UNL     1      62.375  -3.061  69.879  1.00  0.00     0.217 HD
ENDBRANCH   6  31
BRANCH   4  33
HETATM   33  N3  UNL     1      59.950   1.045  71.406  1.00  0.00    -0.385 N 
ATOM     34  H32 UNL     1      59.223   0.502  71.873  1.00  0.00     0.157 HD
ATOM     35  H31 UNL     1      59.869   1.921  70.889  1.00  0.00     0.157 HD
ENDBRANCH   4  33
BRANCH   5  36
HETATM   36  C4  UNL     1      60.277  -0.896  69.782  1.00  0.00    -0.017 A 
HETATM   37  C5  UNL     1      60.358  -0.579  68.423  1.00  0.00     0.015 A 
HETATM   38  C6  UNL     1      59.334  -0.960  67.597  1.00  0.00     0.040 A 
HETATM   39  C7  UNL     1      58.247  -1.637  68.070  1.00  0.00     0.092 A 
HETATM   40  C8  UNL     1      58.158  -1.955  69.409  1.00  0.00     0.072 A 
HETATM   41  C13 UNL     1      59.171  -1.580  70.243  1.00  0.00     0.045 A 
BRANCH  39  42
HETATM   42  O1  UNL     1      57.222  -2.014  67.222  1.00  0.00    -0.358 OA
ATOM     43  H1  UNL     1      56.454  -2.462  67.555  1.00  0.00     0.217 HD
ENDBRANCH  39  42
BRANCH  40  44
HETATM   44  N4  UNL     1      57.032  -2.666  69.930  1.00  0.00    -0.330 N 
HETATM   45  C9  UNL     1      56.780  -2.797  71.248  1.00  0.00     0.097 A 
HETATM   46  C10 UNL     1      55.618  -3.541  71.386  1.00  0.00     0.019 A 
HETATM   47  C11 UNL     1      55.189  -3.847  70.126  1.00  0.00     0.019 A 
HETATM   48  C12 UNL     1      56.091  -3.288  69.225  1.00  0.00     0.097 A 
ENDBRANCH  40  44
ENDBRANCH   5  36
TORSDOF 14
ENDMDL
MODEL 3
REMARK VINA RESULT: -8.633313539      3.216      8.717
REMARK  14 active torsions:
REMARK  status: ('A' for Active; 'I' for Inactive)
REMARK    1  A    between atoms: N1_1  and  C1_4 
REMARK    2  A    between atoms: C2_7  and  N3_8 
REMARK    3  A    between atoms: C3_11  and  C4_12 
REMARK    4  A    between atoms: C7_15  and  O1_16 
REMARK    5  A    between atoms: C8_18  and  N4_19 
REMARK    6  A    between atoms: C14_25  and  O2_26 
REMARK    7  A    between atoms: C15_28  and  C16_29 
REMARK    8  A    between atoms: C16_29  and  O3_30 
REMARK    9  A    between atoms: C17_32  and  C18_33 
REMARK   10  A    between atoms: C18_33  and  N5_34 
REMARK   11  A    between atoms: N8_39  and  C19_40 
REMARK   12  A    between atoms: C19_40  and  C20_41 
REMARK   13  A    between atoms: C20_41  and  O4_42 
REMARK   14  A    between atoms: C20_41  and  C21_44 
ROOT
HETATM    1  C1  UNL     1      58.426  -2.380  70.863  1.00  0.00     0.109 C 
HETATM    2  N2  UNL     1      57.912  -2.463  69.612  1.00  0.00    -0.328 N 
ATOM      3  H2  UNL     1      57.093  -3.062  69.513  1.00  0.00     0.169 HD
HETATM    4  C2  UNL     1      58.335  -1.860  68.471  1.00  0.00     0.114 C 
HETATM    5  C3  UNL     1      59.326  -0.931  68.298  1.00  0.00     0.052 C 
HETATM    6  C14 UNL     1      60.091  -0.352  69.282  1.00  0.00     0.089 C 
HETATM    7  C15 UNL     1      60.026  -0.536  70.675  1.00  0.00     0.011 C 
HETATM    8  C17 UNL     1      59.561  -1.676  71.292  1.00  0.00     0.017 C 
ENDROOT
BRANCH   8   9
HETATM    9  C18 UNL     1      60.218  -2.265  72.437  1.00  0.00     0.199 C 
BRANCH   9  10
HETATM   10  N5  UNL     1      61.490  -2.904  72.055  1.00  0.00    -0.221 N 
HETATM   11  N6  UNL     1      62.172  -2.622  70.984  1.00  0.00    -0.221 N 
HETATM   12  N7  UNL     1      63.266  -3.400  70.980  1.00  0.00    -0.222 N 
ATOM     13  H6  UNL     1      61.922  -1.932  70.275  1.00  0.00     0.210 HD
HETATM   14  N8  UNL     1      63.281  -4.178  72.046  1.00  0.00    -0.223 N 
ATOM     15  H7  UNL     1      63.983  -3.392  70.255  1.00  0.00     0.210 HD
HETATM   16  C22 UNL     1      62.140  -3.852  72.726  1.00  0.00     0.360 A 
HETATM   17  O6  UNL     1      61.824  -4.405  73.808  1.00  0.00    -0.243 OA
BRANCH  14  18
HETATM   18  C19 UNL     1      64.276  -5.154  72.417  1.00  0.00     0.196 C 
BRANCH  18  19
HETATM   19  C20 UNL     1      65.654  -4.542  72.546  1.00  0.00     0.227 C 
BRANCH  19  20
HETATM   20  O4  UNL     1      65.621  -3.185  72.793  1.00  0.00    -0.385 OA
ATOM     21  H4  UNL     1      65.552  -2.665  72.002  1.00  0.00     0.210 HD
ENDBRANCH  19  20
BRANCH  19  22
HETATM   22  C21 UNL     1      66.520  -4.843  71.408  1.00  0.00     0.261 C 
HETATM   23  N9  UNL     1      66.237  -4.261  70.149  1.00  0.00    -0.060 NA
HETATM   24  O5  UNL     1      67.514  -5.607  71.504  1.00  0.00    -0.274 OA
ENDBRANCH  19  22
ENDBRANCH  18  19
ENDBRANCH  14  18
ENDBRANCH   9  10
ENDBRANCH   8   9
BRANCH   1  25
HETATM   25  N1  UNL     1      57.761  -3.049  71.730  1.00  0.00    -0.385 N 
ATOM     26  H12 UNL     1      57.258  -3.880  71.418  1.00  0.00     0.157 HD
ATOM     27  H11 UNL     1      57.812  -2.656  72.669  1.00  0.00     0.157 HD
ENDBRANCH   1  25
BRANCH   7  28
HETATM   28  C16 UNL     1      60.493   0.568  71.496  1.00  0.00     0.206 C 
BRANCH  28  29
HETATM   29  O3  UNL     1      59.975   1.821  71.240  1.00  0.00    -0.396 OA
ATOM     30  H3  UNL     1      59.782   2.379  71.984  1.00  0.00     0.209 HD
ENDBRANCH  28  29
ENDBRANCH   7  28
BRANCH   6  31
HETATM   31  O2  UNL     1      61.050   0.526  68.850  1.00  0.00    -0.359 OA
ATOM     32  H2  UNL     1      61.467   1.046  69.526  1.00  0.00     0.217 HD
ENDBRANCH   6  31
BRANCH   4  33
HETATM   33  N3  UNL     1      57.734  -2.196  67.384  1.00  0.00    -0.385 N 
ATOM     34  H32 UNL     1      56.721  -2.283  67.477  1.00  0.00     0.157 HD
ATOM     35  H31 UNL     1      58.320  -2.336  66.561  1.00  0.00     0.157 HD
ENDBRANCH   4  33
BRANCH   5  36
HETATM   36  C4  UNL     1      59.607  -0.517  66.959  1.00  0.00    -0.017 A 
HETATM   37  C5  UNL     1      60.106  -1.485  66.081  1.00  0.00     0.015 A 
HETATM   38  C6  UNL     1      60.382  -1.122  64.790  1.00  0.00     0.040 A 
HETATM   39  C7  UNL     1      60.180   0.154  64.347  1.00  0.00     0.092 A 
HETATM   40  C8  UNL     1      59.688   1.115  65.204  1.00  0.00     0.072 A 
HETATM   41  C13 UNL     1      59.409   0.766  66.495  1.00  0.00     0.045 A 
BRANCH  39  42
HETATM   42  O1  UNL     1      60.464   0.504  63.040  1.00  0.00    -0.358 OA
ATOM     43  H1  UNL     1      60.008   1.223  62.618  1.00  0.00     0.217 HD
ENDBRANCH  39  42
BRANCH  40  44
HETATM   44  N4  UNL     1      59.464   2.458  64.766  1.00  0.00    -0.330 N 
HETATM   45  C9  UNL     1      58.736   3.356  65.460  1.00  0.00     0.097 A 
HETATM   46  C10 UNL     1      58.731   4.542  64.742  1.00  0.00     0.019 A 
HETATM   47  C11 UNL     1      59.470   4.330  63.614  1.00  0.00     0.019 A 
HETATM   48  C12 UNL     1      59.922   3.014  63.648  1.00  0.00     0.097 A 
ENDBRANCH  40  44
ENDBRANCH   5  36
TORSDOF 14
ENDMDL
MODEL 4
REMARK VINA RESULT: -8.595371310      3.048      8.202
REMARK  14 active torsions:
REMARK  status: ('A' for Active; 'I' for Inactive)
REMARK    1  A    between atoms: N1_1  and  C1_4 
REMARK    2  A    between atoms: C2_7  and  N3_8 
REMARK    3  A    between atoms: C3_11  and  C4_12 
REMARK    4  A    between atoms: C7_15  and  O1_16 
REMARK    5  A    between atoms: C8_18  and  N4_19 
REMARK    6  A    between atoms: C14_25  and  O2_26 
REMARK    7  A    between atoms: C15_28  and  C16_29 
REMARK    8  A    between atoms: C16_29  and  O3_30 
REMARK    9  A    between atoms: C17_32  and  C18_33 
REMARK   10  A    between atoms: C18_33  and  N5_34 
REMARK   11  A    between atoms: N8_39  and  C19_40 
REMARK   12  A    between atoms: C19_40  and  C20_41 
REMARK   13  A    between atoms: C20_41  and  O4_42 
REMARK   14  A    between atoms: C20_41  and  C21_44 
ROOT
HETATM    1  C1  UNL     1      63.485  -5.542  73.173  1.00  0.00     0.109 C 
HETATM    2  N2  UNL     1      62.191  -5.154  73.072  1.00  0.00    -0.328 N 
ATOM      3  H2  UNL     1      61.501  -5.845  73.367  1.00  0.00     0.169 HD
HETATM    4  C2  UNL     1      61.683  -3.974  72.632  1.00  0.00     0.114 C 
HETATM    5  C3  UNL     1      62.340  -2.828  72.273  1.00  0.00     0.052 C 
HETATM    6  C14 UNL     1      63.695  -2.603  72.334  1.00  0.00     0.089 C 
HETATM    7  C15 UNL     1      64.711  -3.456  72.802  1.00  0.00     0.011 C 
HETATM    8  C17 UNL     1      64.637  -4.830  72.808  1.00  0.00     0.017 C 
ENDROOT
BRANCH   8   9
HETATM    9  C18 UNL     1      65.746  -5.671  72.416  1.00  0.00     0.199 C 
BRANCH   9  10
HETATM   10  N5  UNL     1      65.688  -6.001  70.981  1.00  0.00    -0.221 N 
HETATM   11  N6  UNL     1      65.384  -7.171  70.498  1.00  0.00    -0.221 N 
HETATM   12  N7  UNL     1      65.431  -7.085  69.160  1.00  0.00    -0.222 N 
ATOM     13  H6  UNL     1      65.152  -8.004  71.040  1.00  0.00     0.210 HD
HETATM   14  N8  UNL     1      65.764  -5.863  68.789  1.00  0.00    -0.223 N 
ATOM     15  H7  UNL     1      65.237  -7.855  68.520  1.00  0.00     0.210 HD
HETATM   16  C22 UNL     1      65.926  -5.179  69.962  1.00  0.00     0.360 A 
HETATM   17  O6  UNL     1      66.249  -3.966  69.992  1.00  0.00    -0.243 OA
BRANCH  14  18
HETATM   18  C19 UNL     1      65.923  -5.356  67.448  1.00  0.00     0.196 C 
BRANCH  18  19
HETATM   19  C20 UNL     1      64.775  -4.460  67.037  1.00  0.00     0.227 C 
BRANCH  19  20
HETATM   20  O4  UNL     1      64.126  -4.900  65.901  1.00  0.00    -0.385 OA
ATOM     21  H4  UNL     1      64.651  -4.809  65.115  1.00  0.00     0.210 HD
ENDBRANCH  19  20
BRANCH  19  22
HETATM   22  C21 UNL     1      65.166  -3.058  66.903  1.00  0.00     0.261 C 
HETATM   23  N9  UNL     1      65.913  -2.652  65.772  1.00  0.00    -0.060 NA
HETATM   24  O5  UNL     1      64.862  -2.192  67.763  1.00  0.00    -0.274 OA
ENDBRANCH  19  22
ENDBRANCH  18  19
ENDBRANCH  14  18
ENDBRANCH   9  10
ENDBRANCH   8   9
BRANCH   1  25
HETATM   25  N1  UNL     1      63.625  -6.716  73.666  1.00  0.00    -0.385 N 
ATOM     26  H12 UNL     1      64.411  -6.887  74.292  1.00  0.00     0.157 HD
ATOM     27  H11 UNL     1      62.906  -7.371  73.359  1.00  0.00     0.157 HD
ENDBRANCH   1  25
BRANCH   7  28
HETATM   28  C16 UNL     1      65.914  -2.813  73.303  1.00  0.00     0.206 C 
BRANCH  28  29
HETATM   29  O3  UNL     1      66.799  -2.297  72.378  1.00  0.00    -0.396 OA
ATOM     30  H3  UNL     1      67.241  -1.486  72.596  1.00  0.00     0.209 HD
ENDBRANCH  28  29
ENDBRANCH   7  28
BRANCH   6  31
HETATM   31  O2  UNL     1      64.116  -1.382  71.878  1.00  0.00    -0.359 OA
ATOM     32  H2  UNL     1      64.648  -0.878  72.482  1.00  0.00     0.217 HD
ENDBRANCH   6  31
BRANCH   4  33
HETATM   33  N3  UNL     1      60.402  -3.900  72.529  1.00  0.00    -0.385 N 
ATOM     34  H32 UNL     1      60.078  -3.331  71.747  1.00  0.00     0.157 HD
ATOM     35  H31 UNL     1      59.857  -4.408  73.226  1.00  0.00     0.157 HD
ENDBRANCH   4  33
BRANCH   5  36
HETATM   36  C4  UNL     1      61.546  -1.749  71.774  1.00  0.00    -0.017 A 
HETATM   37  C5  UNL     1      61.213  -0.729  72.672  1.00  0.00     0.015 A 
HETATM   38  C6  UNL     1      60.458   0.320  72.224  1.00  0.00     0.040 A 
HETATM   39  C7  UNL     1      60.028   0.392  70.930  1.00  0.00     0.092 A 
HETATM   40  C8  UNL     1      60.351  -0.607  70.036  1.00  0.00     0.072 A 
HETATM   41  C13 UNL     1      61.104  -1.660  70.471  1.00  0.00     0.045 A 
BRANCH  39  42
HETATM   42  O1  UNL     1      59.265   1.460  70.494  1.00  0.00    -0.358 OA
ATOM     43  H1  UNL     1      58.371   1.333  70.202  1.00  0.00     0.217 HD
ENDBRANCH  39  42
BRANCH  40  44
HETATM   44  N4  UNL     1      59.917  -0.556  68.675  1.00  0.00    -0.330 N 
HETATM   45  C9  UNL     1      60.593   0.086  67.701  1.00  0.00     0.097 A 
HETATM   46  C10 UNL     1      59.886  -0.071  66.520  1.00  0.00     0.019 A 
HETATM   47  C11 UNL     1      58.780  -0.817  66.812  1.00  0.00     0.019 A 
HETATM   48  C12 UNL     1      58.818  -1.112  68.172  1.00  0.00     0.097 A 
ENDBRANCH  40  44
ENDBRANCH   5  36
TORSDOF 14
ENDMDL
MODEL 5
REMARK VINA RESULT: -8.548736966      3.218      8.483
REMARK  14 active torsions:
REMARK  status: ('A' for Active; 'I' for Inactive)
REMARK    1  A    between atoms: N1_1  and  C1_4 
REMARK    2  A    between atoms: C2_7  and  N3_8 
REMARK    3  A    between atoms: C3_11  and  C4_12 
REMARK    4  A    between atoms: C7_15  and  O1_16 
REMARK    5  A    between atoms: C8_18  and  N4_19 
REMARK    6  A    between atoms: C14_25  and  O2_26 
REMARK    7  A    between atoms: C15_28  and  C16_29 
REMARK    8  A    between atoms: C16_29  and  O3_30 
REMARK    9  A    between atoms: C17_32  and  C18_33 
REMARK   10  A    between atoms: C18_33  and  N5_34 
REMARK   11  A    between atoms: N8_39  and  C19_40 
REMARK   12  A    between atoms: C19_40  and  C20_41 
REMARK   13  A    between atoms: C20_41  and  O4_42 
REMARK   14  A    between atoms: C20_41  and  C21_44 
ROOT
HETATM    1  C1  UNL     1      58.395  -1.828  71.368  1.00  0.00     0.109 C 
HETATM    2  N2  UNL     1      57.830  -1.997  70.148  1.00  0.00    -0.328 N 
ATOM      3  H2  UNL     1      56.963  -2.534  70.138  1.00  0.00     0.169 HD
HETATM    4  C2  UNL     1      58.257  -1.553  68.938  1.00  0.00     0.114 C 
HETATM    5  C3  UNL     1      59.310  -0.732  68.639  1.00  0.00     0.052 C 
HETATM    6  C14 UNL     1      60.156  -0.120  69.533  1.00  0.00     0.089 C 
HETATM    7  C15 UNL     1      60.128  -0.153  70.939  1.00  0.00     0.011 C 
HETATM    8  C17 UNL     1      59.598  -1.179  71.687  1.00  0.00     0.017 C 
ENDROOT
BRANCH   8   9
HETATM    9  C18 UNL     1      60.249  -1.699  72.868  1.00  0.00     0.199 C 
BRANCH   9  10
HETATM   10  N5  UNL     1      61.531  -2.345  72.535  1.00  0.00    -0.221 N 
HETATM   11  N6  UNL     1      61.652  -3.467  71.888  1.00  0.00    -0.221 N 
HETATM   12  N7  UNL     1      62.963  -3.731  71.772  1.00  0.00    -0.222 N 
ATOM     13  H6  UNL     1      60.889  -4.043  71.533  1.00  0.00     0.210 HD
HETATM   14  N8  UNL     1      63.677  -2.779  72.343  1.00  0.00    -0.223 N 
ATOM     15  H7  UNL     1      63.353  -4.551  71.307  1.00  0.00     0.210 HD
HETATM   16  C22 UNL     1      62.749  -1.898  72.828  1.00  0.00     0.360 A 
HETATM   17  O6  UNL     1      63.076  -0.854  73.443  1.00  0.00    -0.243 OA
BRANCH  14  18
HETATM   18  C19 UNL     1      65.112  -2.684  72.438  1.00  0.00     0.196 C 
BRANCH  18  19
HETATM   19  C20 UNL     1      65.682  -1.672  71.467  1.00  0.00     0.227 C 
BRANCH  19  20
HETATM   20  O4  UNL     1      65.807  -0.411  72.014  1.00  0.00    -0.385 OA
ATOM     21  H4  UNL     1      66.559   0.065  71.682  1.00  0.00     0.210 HD
ENDBRANCH  19  20
BRANCH  19  22
HETATM   22  C21 UNL     1      64.949  -1.621  70.203  1.00  0.00     0.261 C 
HETATM   23  N9  UNL     1      64.134  -0.500  69.920  1.00  0.00    -0.060 NA
HETATM   24  O5  UNL     1      65.016  -2.544  69.351  1.00  0.00    -0.274 OA
ENDBRANCH  19  22
ENDBRANCH  18  19
ENDBRANCH  14  18
ENDBRANCH   9  10
ENDBRANCH   8   9
BRANCH   1  25
HETATM   25  N1  UNL     1      57.713  -2.347  72.320  1.00  0.00    -0.385 N 
ATOM     26  H12 UNL     1      56.695  -2.293  72.271  1.00  0.00     0.157 HD
ATOM     27  H11 UNL     1      58.290  -2.767  73.048  1.00  0.00     0.157 HD
ENDBRANCH   1  25
BRANCH   7  28
HETATM   28  C16 UNL     1      60.712   0.988  71.624  1.00  0.00     0.206 C 
BRANCH  28  29
HETATM   29  O3  UNL     1      62.076   1.169  71.520  1.00  0.00    -0.396 OA
ATOM     30  H3  UNL     1      62.387   1.998  71.177  1.00  0.00     0.209 HD
ENDBRANCH  28  29
ENDBRANCH   7  28
BRANCH   6  31
HETATM   31  O2  UNL     1      61.165   0.626  68.982  1.00  0.00    -0.359 OA
ATOM     32  H2  UNL     1      62.004   0.188  68.901  1.00  0.00     0.217 HD
ENDBRANCH   6  31
BRANCH   4  33
HETATM   33  N3  UNL     1      57.590  -1.950  67.911  1.00  0.00    -0.385 N 
ATOM     34  H32 UNL     1      56.794  -2.548  68.135  1.00  0.00     0.157 HD
ATOM     35  H31 UNL     1      57.919  -1.629  67.000  1.00  0.00     0.157 HD
ENDBRANCH   4  33
BRANCH   5  36
HETATM   36  C4  UNL     1      59.573  -0.485  67.256  1.00  0.00    -0.017 A 
HETATM   37  C5  UNL     1      59.977  -1.573  66.475  1.00  0.00     0.015 A 
HETATM   38  C6  UNL     1      60.232  -1.370  65.146  1.00  0.00     0.040 A 
HETATM   39  C7  UNL     1      60.102  -0.138  64.572  1.00  0.00     0.092 A 
HETATM   40  C8  UNL     1      59.704   0.941  65.332  1.00  0.00     0.072 A 
HETATM   41  C13 UNL     1      59.446   0.752  66.660  1.00  0.00     0.045 A 
BRANCH  39  42
HETATM   42  O1  UNL     1      60.364   0.050  63.227  1.00  0.00    -0.358 OA
ATOM     43  H1  UNL     1      61.192   0.414  62.938  1.00  0.00     0.217 HD
ENDBRANCH  39  42
BRANCH  40  44
HETATM   44  N4  UNL     1      59.556   2.242  64.757  1.00  0.00    -0.330 N 
HETATM   45  C9  UNL     1      58.914   3.258  65.368  1.00  0.00     0.097 A 
HETATM   46  C10 UNL     1      58.964   4.358  64.526  1.00  0.00     0.019 A 
HETATM   47  C11 UNL     1      59.646   3.975  63.407  1.00  0.00     0.019 A 
HETATM   48  C12 UNL     1      60.010   2.641  63.572  1.00  0.00     0.097 A 
ENDBRANCH  40  44
ENDBRANCH   5  36
TORSDOF 14
ENDMDL
