MODEL 1
REMARK VINA RESULT: -8.738020186      0.000      0.000
REMARK  5 active torsions:
REMARK  status: ('A' for Active; 'I' for Inactive)
REMARK    1  A    between atoms: N1_1  and  N2_4 
REMARK    2  A    between atoms: N2_4  and  N3_5 
REMARK    3  A    between atoms: N3_5  and  C1_7 
REMARK    4  A    between atoms: C3_9  and  C4_10 
REMARK    5  A    between atoms: C15_21  and  O1_22 
ROOT
HETATM    1  C1  UNL     1      26.769  36.440  39.558  1.00  0.00     0.178 A 
HETATM    2  C2  UNL     1      27.541  36.740  38.465  1.00  0.00     0.075 A 
HETATM    3  C3  UNL     1      28.854  36.356  38.776  1.00  0.00     0.029 A 
HETATM    4  C15 UNL     1      28.746  35.849  40.077  1.00  0.00     0.196 A 
HETATM    5  O2  UNL     1      27.526  35.943  40.458  1.00  0.00    -0.268 OA
ENDROOT
BRANCH   3   6
HETATM    6  C4  UNL     1      30.047  36.625  37.981  1.00  0.00    -0.060 C 
HETATM    7  C5  UNL     1      30.428  38.078  38.081  1.00  0.00     0.040 C 
HETATM    8  C6  UNL     1      31.529  38.491  37.170  1.00  0.00    -0.010 C 
HETATM    9  C7  UNL     1      31.031  38.834  35.778  1.00  0.00     0.009 C 
HETATM   10  C11 UNL     1      32.698  37.567  37.169  1.00  0.00     0.009 C 
HETATM   11  C8  UNL     1      30.923  37.594  34.928  1.00  0.00    -0.013 C 
HETATM   12  C9  UNL     1      32.248  36.920  34.789  1.00  0.00     0.009 C 
HETATM   13  C14 UNL     1      29.839  36.747  35.493  1.00  0.00     0.013 C 
HETATM   14  C10 UNL     1      32.630  36.445  36.198  1.00  0.00    -0.013 C 
HETATM   15  C12 UNL     1      31.649  35.384  36.540  1.00  0.00     0.013 C 
HETATM   16  C13 UNL     1      30.226  35.946  36.698  1.00  0.00     0.016 C 
ENDBRANCH   3   6
BRANCH   4  17
HETATM   17  O1  UNL     1      29.809  35.361  40.730  1.00  0.00    -0.340 OA
ATOM     18  H1  UNL     1      29.750  35.077  41.635  1.00  0.00     0.220 HD
ENDBRANCH   4  17
BRANCH   1  19
HETATM   19  N3  UNL     1      25.325  36.647  39.687  1.00  0.00    -0.193 N 
ATOM     20  H3  UNL     1      24.757  37.036  38.934  1.00  0.00     0.206 HD
BRANCH  19  21
HETATM   21  N2  UNL     1      24.837  36.306  40.801  1.00  0.00    -0.242 NA
BRANCH  21  22
HETATM   22  N1  UNL     1      24.465  35.720  41.816  1.00  0.00    -0.260 N 
ATOM     23  H12 UNL     1      23.669  35.312  41.326  1.00  0.00     0.193 HD
ATOM     24  H11 UNL     1      24.344  35.336  42.754  1.00  0.00     0.193 HD
ENDBRANCH  21  22
ENDBRANCH  19  21
ENDBRANCH   1  19
TORSDOF 5
ENDMDL
MODEL 2
REMARK VINA RESULT: -8.257154520      1.089      1.523
REMARK  5 active torsions:
REMARK  status: ('A' for Active; 'I' for Inactive)
REMARK    1  A    between atoms: N1_1  and  N2_4 
REMARK    2  A    between atoms: N2_4  and  N3_5 
REMARK    3  A    between atoms: N3_5  and  C1_7 
REMARK    4  A    between atoms: C3_9  and  C4_10 
REMARK    5  A    between atoms: C15_21  and  O1_22 
ROOT
HETATM    1  C1  UNL     1      27.246  35.757  40.269  1.00  0.00     0.178 A 
HETATM    2  C2  UNL     1      28.585  35.828  39.977  1.00  0.00     0.075 A 
HETATM    3  C3  UNL     1      28.706  36.581  38.800  1.00  0.00     0.029 A 
HETATM    4  C15 UNL     1      27.380  36.898  38.478  1.00  0.00     0.196 A 
HETATM    5  O2  UNL     1      26.605  36.381  39.358  1.00  0.00    -0.268 OA
ENDROOT
BRANCH   3   6
HETATM    6  C4  UNL     1      29.924  36.787  38.024  1.00  0.00    -0.060 C 
HETATM    7  C5  UNL     1      30.318  38.239  38.042  1.00  0.00     0.040 C 
HETATM    8  C6  UNL     1      31.449  38.583  37.138  1.00  0.00    -0.010 C 
HETATM    9  C7  UNL     1      30.994  38.840  35.714  1.00  0.00     0.009 C 
HETATM   10  C11 UNL     1      32.607  37.649  37.230  1.00  0.00     0.009 C 
HETATM   11  C8  UNL     1      30.895  37.549  34.942  1.00  0.00    -0.013 C 
HETATM   12  C9  UNL     1      32.215  36.856  34.884  1.00  0.00     0.009 C 
HETATM   13  C14 UNL     1      29.786  36.751  35.528  1.00  0.00     0.013 C 
HETATM   14  C10 UNL     1      32.553  36.467  36.330  1.00  0.00    -0.013 C 
HETATM   15  C12 UNL     1      31.551  35.440  36.711  1.00  0.00     0.013 C 
HETATM   16  C13 UNL     1      30.131  36.025  36.792  1.00  0.00     0.016 C 
ENDBRANCH   3   6
BRANCH   4  17
HETATM   17  O1  UNL     1      27.077  37.636  37.401  1.00  0.00    -0.340 OA
ATOM     18  H1  UNL     1      26.183  37.897  37.212  1.00  0.00     0.220 HD
ENDBRANCH   4  17
BRANCH   1  19
HETATM   19  N3  UNL     1      26.641  35.087  41.422  1.00  0.00    -0.193 N 
ATOM     20  H3  UNL     1      27.158  34.433  42.011  1.00  0.00     0.206 HD
BRANCH  19  21
HETATM   21  N2  UNL     1      25.430  35.379  41.630  1.00  0.00    -0.242 NA
BRANCH  21  22
HETATM   22  N1  UNL     1      24.298  35.861  41.636  1.00  0.00    -0.260 N 
ATOM     23  H12 UNL     1      24.666  36.805  41.520  1.00  0.00     0.193 HD
ATOM     24  H11 UNL     1      23.294  36.037  41.667  1.00  0.00     0.193 HD
ENDBRANCH  21  22
ENDBRANCH  19  21
ENDBRANCH   1  19
TORSDOF 5
ENDMDL
MODEL 3
REMARK VINA RESULT: -8.249458391      1.048      1.221
REMARK  5 active torsions:
REMARK  status: ('A' for Active; 'I' for Inactive)
REMARK    1  A    between atoms: N1_1  and  N2_4 
REMARK    2  A    between atoms: N2_4  and  N3_5 
REMARK    3  A    between atoms: N3_5  and  C1_7 
REMARK    4  A    between atoms: C3_9  and  C4_10 
REMARK    5  A    between atoms: C15_21  and  O1_22 
ROOT
HETATM    1  C1  UNL     1      27.744  35.640  40.625  1.00  0.00     0.178 A 
HETATM    2  C2  UNL     1      28.428  36.531  39.838  1.00  0.00     0.075 A 
HETATM    3  C3  UNL     1      29.262  35.778  38.998  1.00  0.00     0.029 A 
HETATM    4  C15 UNL     1      28.997  34.456  39.377  1.00  0.00     0.196 A 
HETATM    5  O2  UNL     1      28.129  34.461  40.320  1.00  0.00    -0.268 OA
ENDROOT
BRANCH   3   6
HETATM    6  C4  UNL     1      30.288  36.299  38.102  1.00  0.00    -0.060 C 
HETATM    7  C5  UNL     1      30.417  37.790  38.262  1.00  0.00     0.040 C 
HETATM    8  C6  UNL     1      31.315  38.441  37.270  1.00  0.00    -0.010 C 
HETATM    9  C7  UNL     1      30.605  38.756  35.966  1.00  0.00     0.009 C 
HETATM   10  C11 UNL     1      32.619  37.746  37.081  1.00  0.00     0.009 C 
HETATM   11  C8  UNL     1      30.617  37.560  35.048  1.00  0.00    -0.013 C 
HETATM   12  C9  UNL     1      32.014  37.146  34.723  1.00  0.00     0.009 C 
HETATM   13  C14 UNL     1      29.772  36.503  35.664  1.00  0.00     0.013 C 
HETATM   14  C10 UNL     1      32.636  36.679  36.046  1.00  0.00    -0.013 C 
HETATM   15  C12 UNL     1      31.903  35.442  36.416  1.00  0.00     0.013 C 
HETATM   16  C13 UNL     1      30.432  35.728  36.763  1.00  0.00     0.016 C 
ENDBRANCH   3   6
BRANCH   4  17
HETATM   17  O1  UNL     1      29.604  33.421  38.781  1.00  0.00    -0.340 OA
ATOM     18  H1  UNL     1      30.484  33.154  39.021  1.00  0.00     0.220 HD
ENDBRANCH   4  17
BRANCH   1  19
HETATM   19  N3  UNL     1      26.744  35.966  41.643  1.00  0.00    -0.193 N 
ATOM     20  H3  UNL     1      26.921  35.858  42.642  1.00  0.00     0.206 HD
BRANCH  19  21
HETATM   21  N2  UNL     1      25.644  36.391  41.189  1.00  0.00    -0.242 NA
BRANCH  21  22
HETATM   22  N1  UNL     1      24.692  36.747  40.497  1.00  0.00    -0.260 N 
ATOM     23  H12 UNL     1      25.016  36.186  39.709  1.00  0.00     0.193 HD
ATOM     24  H11 UNL     1      23.843  37.164  40.113  1.00  0.00     0.193 HD
ENDBRANCH  21  22
ENDBRANCH  19  21
ENDBRANCH   1  19
TORSDOF 5
ENDMDL
MODEL 4
REMARK VINA RESULT: -8.167585044      1.175      1.560
REMARK  5 active torsions:
REMARK  status: ('A' for Active; 'I' for Inactive)
REMARK    1  A    between atoms: N1_1  and  N2_4 
REMARK    2  A    between atoms: N2_4  and  N3_5 
REMARK    3  A    between atoms: N3_5  and  C1_7 
REMARK    4  A    between atoms: C3_9  and  C4_10 
REMARK    5  A    between atoms: C15_21  and  O1_22 
ROOT
HETATM    1  C1  UNL     1      26.119  36.230  39.692  1.00  0.00     0.178 A 
HETATM    2  C2  UNL     1      26.879  36.922  38.784  1.00  0.00     0.075 A 
HETATM    3  C3  UNL     1      27.991  36.121  38.488  1.00  0.00     0.029 A 
HETATM    4  C15 UNL     1      27.794  34.983  39.279  1.00  0.00     0.196 A 
HETATM    5  O2  UNL     1      26.710  35.126  39.948  1.00  0.00    -0.268 OA
ENDROOT
BRANCH   3   6
HETATM    6  C4  UNL     1      29.152  36.509  37.693  1.00  0.00    -0.060 C 
HETATM    7  C5  UNL     1      30.246  37.032  38.584  1.00  0.00     0.040 C 
HETATM    8  C6  UNL     1      31.407  37.615  37.857  1.00  0.00    -0.010 C 
HETATM    9  C7  UNL     1      31.181  39.065  37.473  1.00  0.00     0.009 C 
HETATM   10  C11 UNL     1      31.905  36.775  36.731  1.00  0.00     0.009 C 
HETATM   11  C8  UNL     1      30.437  39.162  36.166  1.00  0.00    -0.013 C 
HETATM   12  C9  UNL     1      31.201  38.509  35.063  1.00  0.00     0.009 C 
HETATM   13  C14 UNL     1      29.063  38.635  36.382  1.00  0.00     0.013 C 
HETATM   14  C10 UNL     1      31.259  37.016  35.415  1.00  0.00    -0.013 C 
HETATM   15  C12 UNL     1      29.861  36.527  35.309  1.00  0.00     0.013 C 
HETATM   16  C13 UNL     1      28.954  37.142  36.389  1.00  0.00     0.016 C 
ENDBRANCH   3   6
BRANCH   4  17
HETATM   17  O1  UNL     1      28.658  33.959  39.264  1.00  0.00    -0.340 OA
ATOM     18  H1  UNL     1      29.546  34.052  39.589  1.00  0.00     0.220 HD
ENDBRANCH   4  17
BRANCH   1  19
HETATM   19  N3  UNL     1      24.850  36.665  40.277  1.00  0.00    -0.193 N 
ATOM     20  H3  UNL     1      23.999  36.772  39.725  1.00  0.00     0.206 HD
BRANCH  19  21
HETATM   21  N2  UNL     1      24.889  36.898  41.518  1.00  0.00    -0.242 NA
BRANCH  21  22
HETATM   22  N1  UNL     1      25.206  37.079  42.693  1.00  0.00    -0.260 N 
ATOM     23  H12 UNL     1      25.853  37.824  42.436  1.00  0.00     0.193 HD
ATOM     24  H11 UNL     1      25.315  37.056  43.707  1.00  0.00     0.193 HD
ENDBRANCH  21  22
ENDBRANCH  19  21
ENDBRANCH   1  19
TORSDOF 5
ENDMDL
MODEL 5
REMARK VINA RESULT: -8.010014470      1.097      2.259
REMARK  5 active torsions:
REMARK  status: ('A' for Active; 'I' for Inactive)
REMARK    1  A    between atoms: N1_1  and  N2_4 
REMARK    2  A    between atoms: N2_4  and  N3_5 
REMARK    3  A    between atoms: N3_5  and  C1_7 
REMARK    4  A    between atoms: C3_9  and  C4_10 
REMARK    5  A    between atoms: C15_21  and  O1_22 
ROOT
HETATM    1  C1  UNL     1      26.000  36.350  39.693  1.00  0.00     0.178 A 
HETATM    2  C2  UNL     1      26.676  37.114  38.776  1.00  0.00     0.075 A 
HETATM    3  C3  UNL     1      27.824  36.395  38.412  1.00  0.00     0.029 A 
HETATM    4  C15 UNL     1      27.732  35.225  39.177  1.00  0.00     0.196 A 
HETATM    5  O2  UNL     1      26.670  35.281  39.892  1.00  0.00    -0.268 OA
ENDROOT
BRANCH   3   6
HETATM    6  C4  UNL     1      28.924  36.879  37.584  1.00  0.00    -0.060 C 
HETATM    7  C5  UNL     1      29.100  35.995  36.379  1.00  0.00     0.040 C 
HETATM    8  C6  UNL     1      30.305  36.301  35.561  1.00  0.00    -0.010 C 
HETATM    9  C7  UNL     1      31.555  35.627  36.098  1.00  0.00     0.009 C 
HETATM   10  C11 UNL     1      30.492  37.751  35.271  1.00  0.00     0.009 C 
HETATM   11  C8  UNL     1      32.192  36.465  37.177  1.00  0.00    -0.013 C 
HETATM   12  C9  UNL     1      32.583  37.807  36.655  1.00  0.00     0.009 C 
HETATM   13  C14 UNL     1      31.272  36.483  38.344  1.00  0.00     0.013 C 
HETATM   14  C10 UNL     1      31.272  38.513  36.281  1.00  0.00    -0.013 C 
HETATM   15  C12 UNL     1      30.565  38.747  37.565  1.00  0.00     0.013 C 
HETATM   16  C13 UNL     1      30.118  37.430  38.223  1.00  0.00     0.016 C 
ENDBRANCH   3   6
BRANCH   4  17
HETATM   17  O1  UNL     1      28.658  34.261  39.097  1.00  0.00    -0.340 OA
ATOM     18  H1  UNL     1      28.546  33.509  38.527  1.00  0.00     0.220 HD
ENDBRANCH   4  17
BRANCH   1  19
HETATM   19  N3  UNL     1      24.731  36.686  40.340  1.00  0.00    -0.193 N 
ATOM     20  H3  UNL     1      23.848  36.724  39.831  1.00  0.00     0.206 HD
BRANCH  19  21
HETATM   21  N2  UNL     1      24.813  36.925  41.578  1.00  0.00    -0.242 NA
BRANCH  21  22
HETATM   22  N1  UNL     1      25.171  37.117  42.739  1.00  0.00    -0.260 N 
ATOM     23  H12 UNL     1      26.105  37.394  42.439  1.00  0.00     0.193 HD
ATOM     24  H11 UNL     1      25.248  37.209  43.753  1.00  0.00     0.193 HD
ENDBRANCH  21  22
ENDBRANCH  19  21
ENDBRANCH   1  19
TORSDOF 5
ENDMDL
