MODEL 1
REMARK VINA RESULT: -8.111513599      0.000      0.000
REMARK  2 active torsions:
REMARK  status: ('A' for Active; 'I' for Inactive)
REMARK    1  A    between atoms: N1_1  and  C1_4 
REMARK    2  A    between atoms: C3_11  and  C4_12 
ROOT
HETATM    1  C1  UNL     1      25.555  36.627  41.315  1.00  0.00     0.141 A 
HETATM    2  N2  UNL     1      24.669  36.892  40.357  1.00  0.00    -0.242 N 
ATOM      3  H2  UNL     1      23.747  37.298  40.518  1.00  0.00     0.196 HD
HETATM    4  O1  UNL     1      25.137  36.564  39.194  1.00  0.00    -0.216 OA
HETATM    5  C2  UNL     1      26.377  36.056  39.311  1.00  0.00     0.192 A 
HETATM    6  N3  UNL     1      27.304  35.577  38.515  1.00  0.00    -0.331 N 
ATOM      7  H3  UNL     1      27.140  35.534  37.509  1.00  0.00     0.168 HD
HETATM    8  C3  UNL     1      28.443  35.154  39.012  1.00  0.00     0.058 A 
HETATM    9  S1  UNL     1      28.236  35.431  40.683  1.00  0.00    -0.068 SA
HETATM   10  C14 UNL     1      26.654  36.091  40.650  1.00  0.00     0.105 A 
ENDROOT
BRANCH   8  11
HETATM   11  C4  UNL     1      29.638  34.573  38.302  1.00  0.00     0.043 C 
HETATM   12  C5  UNL     1      30.743  34.464  39.295  1.00  0.00     0.011 C 
HETATM   13  C6  UNL     1      31.948  33.744  38.734  1.00  0.00     0.001 C 
HETATM   14  C7  UNL     1      33.249  34.373  39.228  1.00  0.00     0.000 C 
HETATM   15  C8  UNL     1      33.916  35.151  38.085  1.00  0.00     0.000 C 
HETATM   16  C9  UNL     1      33.624  36.589  38.271  1.00  0.00     0.000 C 
HETATM   17  C10 UNL     1      33.069  37.306  37.095  1.00  0.00     0.000 C 
HETATM   18  C11 UNL     1      31.927  36.634  36.408  1.00  0.00     0.000 C 
HETATM   19  C12 UNL     1      30.665  36.615  37.264  1.00  0.00     0.001 C 
HETATM   20  C13 UNL     1      29.977  35.307  37.056  1.00  0.00     0.011 C 
ENDBRANCH   8  11
BRANCH   1  21
HETATM   21  N1  UNL     1      25.488  36.797  42.571  1.00  0.00    -0.383 N 
ATOM     22  H12 UNL     1      25.115  37.633  43.022  1.00  0.00     0.157 HD
ATOM     23  H11 UNL     1      25.767  36.186  43.339  1.00  0.00     0.157 HD
ENDBRANCH   1  21
TORSDOF 2
ENDMDL
MODEL 2
REMARK VINA RESULT: -7.666438377      1.379      1.656
REMARK  2 active torsions:
REMARK  status: ('A' for Active; 'I' for Inactive)
REMARK    1  A    between atoms: N1_1  and  C1_4 
REMARK    2  A    between atoms: C3_11  and  C4_12 
ROOT
HETATM    1  C1  UNL     1      25.734  36.488  40.566  1.00  0.00     0.141 A 
HETATM    2  N2  UNL     1      25.966  36.386  41.872  1.00  0.00    -0.242 N 
ATOM      3  H2  UNL     1      25.317  36.683  42.600  1.00  0.00     0.196 HD
HETATM    4  O1  UNL     1      27.129  35.858  42.093  1.00  0.00    -0.216 OA
HETATM    5  C2  UNL     1      27.746  35.574  40.932  1.00  0.00     0.192 A 
HETATM    6  N3  UNL     1      28.888  35.054  40.547  1.00  0.00    -0.331 N 
ATOM      7  H3  UNL     1      29.568  34.746  41.242  1.00  0.00     0.168 HD
HETATM    8  C3  UNL     1      29.155  34.929  39.268  1.00  0.00     0.058 A 
HETATM    9  S1  UNL     1      27.749  35.565  38.539  1.00  0.00    -0.068 SA
HETATM   10  C14 UNL     1      26.873  35.968  39.956  1.00  0.00     0.105 A 
ENDROOT
BRANCH   8  11
HETATM   11  C4  UNL     1      30.383  34.368  38.599  1.00  0.00     0.043 C 
HETATM   12  C5  UNL     1      31.569  34.835  39.371  1.00  0.00     0.011 C 
HETATM   13  C6  UNL     1      32.853  34.205  38.885  1.00  0.00     0.001 C 
HETATM   14  C7  UNL     1      34.008  35.203  38.916  1.00  0.00     0.000 C 
HETATM   15  C8  UNL     1      34.364  35.630  37.486  1.00  0.00     0.000 C 
HETATM   16  C9  UNL     1      33.759  36.955  37.232  1.00  0.00     0.000 C 
HETATM   17  C10 UNL     1      32.945  37.082  35.996  1.00  0.00     0.000 C 
HETATM   18  C11 UNL     1      31.936  36.004  35.773  1.00  0.00     0.000 C 
HETATM   19  C12 UNL     1      30.798  36.056  36.787  1.00  0.00     0.001 C 
HETATM   20  C13 UNL     1      30.423  34.655  37.143  1.00  0.00     0.011 C 
ENDBRANCH   8  11
BRANCH   1  21
HETATM   21  N1  UNL     1      24.728  36.943  39.939  1.00  0.00    -0.383 N 
ATOM     22  H12 UNL     1      23.858  37.238  40.381  1.00  0.00     0.157 HD
ATOM     23  H11 UNL     1      24.584  37.100  38.941  1.00  0.00     0.157 HD
ENDBRANCH   1  21
TORSDOF 2
ENDMDL
MODEL 3
REMARK VINA RESULT: -7.501275822      1.016      1.045
REMARK  2 active torsions:
REMARK  status: ('A' for Active; 'I' for Inactive)
REMARK    1  A    between atoms: N1_1  and  C1_4 
REMARK    2  A    between atoms: C3_11  and  C4_12 
ROOT
HETATM    1  C1  UNL     1      25.553  36.410  40.352  1.00  0.00     0.141 A 
HETATM    2  N2  UNL     1      25.228  37.190  39.324  1.00  0.00    -0.242 N 
ATOM      3  H2  UNL     1      24.384  37.761  39.275  1.00  0.00     0.196 HD
HETATM    4  O1  UNL     1      26.130  37.128  38.395  1.00  0.00    -0.216 OA
HETATM    5  C2  UNL     1      27.119  36.292  38.755  1.00  0.00     0.192 A 
HETATM    6  N3  UNL     1      28.246  35.852  38.245  1.00  0.00    -0.331 N 
ATOM      7  H3  UNL     1      28.548  36.171  37.324  1.00  0.00     0.168 HD
HETATM    8  C3  UNL     1      28.985  35.002  38.919  1.00  0.00     0.058 A 
HETATM    9  S1  UNL     1      28.080  34.789  40.350  1.00  0.00    -0.068 SA
HETATM   10  C14 UNL     1      26.767  35.830  39.993  1.00  0.00     0.105 A 
ENDROOT
BRANCH   8  11
HETATM   11  C4  UNL     1      30.299  34.369  38.540  1.00  0.00     0.043 C 
HETATM   12  C5  UNL     1      31.357  34.986  39.388  1.00  0.00     0.011 C 
HETATM   13  C6  UNL     1      32.700  34.315  39.207  1.00  0.00     0.001 C 
HETATM   14  C7  UNL     1      33.837  35.332  39.240  1.00  0.00     0.000 C 
HETATM   15  C8  UNL     1      34.402  35.526  37.826  1.00  0.00     0.000 C 
HETATM   16  C9  UNL     1      33.841  36.777  37.270  1.00  0.00     0.000 C 
HETATM   17  C10 UNL     1      33.219  36.678  35.924  1.00  0.00     0.000 C 
HETATM   18  C11 UNL     1      32.255  35.554  35.738  1.00  0.00     0.000 C 
HETATM   19  C12 UNL     1      30.979  35.745  36.552  1.00  0.00     0.001 C 
HETATM   20  C13 UNL     1      30.555  34.413  37.078  1.00  0.00     0.011 C 
ENDBRANCH   8  11
BRANCH   1  21
HETATM   21  N1  UNL     1      24.948  36.190  41.446  1.00  0.00    -0.383 N 
ATOM     22  H12 UNL     1      24.367  36.874  41.931  1.00  0.00     0.157 HD
ATOM     23  H11 UNL     1      24.912  35.353  42.027  1.00  0.00     0.157 HD
ENDBRANCH   1  21
TORSDOF 2
ENDMDL
MODEL 4
REMARK VINA RESULT: -7.359329627      3.382      6.821
REMARK  2 active torsions:
REMARK  status: ('A' for Active; 'I' for Inactive)
REMARK    1  A    between atoms: N1_1  and  C1_4 
REMARK    2  A    between atoms: C3_11  and  C4_12 
ROOT
HETATM    1  C1  UNL     1      33.665  36.227  36.782  1.00  0.00     0.141 A 
HETATM    2  N2  UNL     1      33.492  37.413  36.204  1.00  0.00    -0.242 N 
ATOM      3  H2  UNL     1      34.243  37.978  35.806  1.00  0.00     0.196 HD
HETATM    4  O1  UNL     1      32.241  37.752  36.213  1.00  0.00    -0.216 OA
HETATM    5  C2  UNL     1      31.500  36.799  36.805  1.00  0.00     0.192 A 
HETATM    6  N3  UNL     1      30.234  36.598  37.091  1.00  0.00    -0.331 N 
ATOM      7  H3  UNL     1      29.537  37.298  36.836  1.00  0.00     0.168 HD
HETATM    8  C3  UNL     1      29.866  35.498  37.704  1.00  0.00     0.058 A 
HETATM    9  S1  UNL     1      31.349  34.679  37.904  1.00  0.00    -0.068 SA
HETATM   10  C14 UNL     1      32.389  35.827  37.170  1.00  0.00     0.105 A 
ENDROOT
BRANCH   8  11
HETATM   11  C4  UNL     1      28.489  35.057  38.129  1.00  0.00     0.043 C 
HETATM   12  C5  UNL     1      27.595  36.246  38.065  1.00  0.00     0.011 C 
HETATM   13  C6  UNL     1      26.148  35.890  38.318  1.00  0.00     0.001 C 
HETATM   14  C7  UNL     1      25.446  36.969  39.138  1.00  0.00     0.000 C 
HETATM   15  C8  UNL     1      25.210  36.464  40.568  1.00  0.00     0.000 C 
HETATM   16  C9  UNL     1      26.251  37.045  41.444  1.00  0.00     0.000 C 
HETATM   17  C10 UNL     1      26.998  36.090  42.301  1.00  0.00     0.000 C 
HETATM   18  C11 UNL     1      27.526  34.877  41.610  1.00  0.00     0.000 C 
HETATM   19  C12 UNL     1      28.647  35.210  40.630  1.00  0.00     0.001 C 
HETATM   20  C13 UNL     1      28.493  34.338  39.428  1.00  0.00     0.011 C 
ENDBRANCH   8  11
BRANCH   1  21
HETATM   21  N1  UNL     1      34.720  35.547  36.974  1.00  0.00    -0.383 N 
ATOM     22  H12 UNL     1      35.330  35.205  36.231  1.00  0.00     0.157 HD
ATOM     23  H11 UNL     1      35.152  35.224  37.840  1.00  0.00     0.157 HD
ENDBRANCH   1  21
TORSDOF 2
ENDMDL
MODEL 5
REMARK VINA RESULT: -7.222623406      3.755      6.766
REMARK  2 active torsions:
REMARK  status: ('A' for Active; 'I' for Inactive)
REMARK    1  A    between atoms: N1_1  and  C1_4 
REMARK    2  A    between atoms: C3_11  and  C4_12 
ROOT
HETATM    1  C1  UNL     1      31.607  38.166  35.107  1.00  0.00     0.141 A 
HETATM    2  N2  UNL     1      31.358  39.469  35.214  1.00  0.00    -0.242 N 
ATOM      3  H2  UNL     1      31.953  40.205  34.834  1.00  0.00     0.196 HD
HETATM    4  O1  UNL     1      30.257  39.675  35.866  1.00  0.00    -0.216 OA
HETATM    5  C2  UNL     1      29.702  38.507  36.235  1.00  0.00     0.192 A 
HETATM    6  N3  UNL     1      28.634  38.107  36.886  1.00  0.00    -0.331 N 
ATOM      7  H3  UNL     1      27.977  38.793  37.257  1.00  0.00     0.168 HD
HETATM    8  C3  UNL     1      28.413  36.825  37.060  1.00  0.00     0.058 A 
HETATM    9  S1  UNL     1      29.754  36.115  36.279  1.00  0.00    -0.068 SA
HETATM   10  C14 UNL     1      30.547  37.542  35.760  1.00  0.00     0.105 A 
ENDROOT
BRANCH   8  11
HETATM   11  C4  UNL     1      27.270  36.140  37.764  1.00  0.00     0.043 C 
HETATM   12  C5  UNL     1      26.501  37.186  38.496  1.00  0.00     0.011 C 
HETATM   13  C6  UNL     1      25.235  36.638  39.114  1.00  0.00     0.001 C 
HETATM   14  C7  UNL     1      24.969  37.265  40.480  1.00  0.00     0.000 C 
HETATM   15  C8  UNL     1      25.254  36.240  41.586  1.00  0.00     0.000 C 
HETATM   16  C9  UNL     1      26.585  36.535  42.161  1.00  0.00     0.000 C 
HETATM   17  C10 UNL     1      27.534  35.395  42.245  1.00  0.00     0.000 C 
HETATM   18  C11 UNL     1      27.679  34.582  41.002  1.00  0.00     0.000 C 
HETATM   19  C12 UNL     1      28.368  35.354  39.881  1.00  0.00     0.001 C 
HETATM   20  C13 UNL     1      27.714  34.988  38.590  1.00  0.00     0.011 C 
ENDBRANCH   8  11
BRANCH   1  21
HETATM   21  N1  UNL     1      32.569  37.553  34.551  1.00  0.00    -0.383 N 
ATOM     22  H12 UNL     1      33.545  37.846  34.598  1.00  0.00     0.157 HD
ATOM     23  H11 UNL     1      32.576  36.704  33.985  1.00  0.00     0.157 HD
ENDBRANCH   1  21
TORSDOF 2
ENDMDL
