MODEL 1
REMARK VINA RESULT: -7.988518226      0.000      0.000
REMARK  4 active torsions:
REMARK  status: ('A' for Active; 'I' for Inactive)
REMARK    1  A    between atoms: C2_2  and  C5_5 
REMARK    2  A    between atoms: C5_5  and  N2_8 
REMARK    3  A    between atoms: C7_9  and  O1_10 
REMARK    4  A    between atoms: C10_14  and  O2_15 
ROOT
HETATM    1  C5  UNL     1      27.910  36.567  39.736  1.00  0.00     0.208 C 
HETATM    2  C6  UNL     1      27.629  35.632  40.852  1.00  0.00     0.086 C 
HETATM    3  N1  UNL     1      27.404  34.896  41.716  1.00  0.00    -0.195 NA
ENDROOT
BRANCH   1   4
HETATM    4  C2  UNL     1      26.710  36.544  38.847  1.00  0.00    -0.017 C 
HETATM    5  C1  UNL     1      26.812  37.520  37.698  1.00  0.00     0.018 C 
HETATM    6  C3  UNL     1      25.519  37.011  39.694  1.00  0.00     0.018 C 
HETATM    7  C4  UNL     1      26.360  35.194  38.313  1.00  0.00     0.018 C 
ENDBRANCH   1   4
BRANCH   1   8
HETATM    8  N2  UNL     1      29.141  36.263  39.079  1.00  0.00    -0.289 N 
HETATM    9  C7  UNL     1      29.990  37.184  38.567  1.00  0.00     0.152 A 
HETATM   10  C8  UNL     1      31.076  36.563  38.005  1.00  0.00     0.008 A 
HETATM   11  C9  UNL     1      30.847  35.193  38.200  1.00  0.00     0.008 A 
HETATM   12  C14 UNL     1      32.333  36.893  37.299  1.00  0.00     0.024 C 
HETATM   13  C10 UNL     1      29.660  35.042  38.856  1.00  0.00     0.152 A 
HETATM   14  C11 UNL     1      31.940  34.335  37.647  1.00  0.00     0.024 C 
HETATM   15  C12 UNL     1      32.163  34.686  36.189  1.00  0.00     0.010 C 
HETATM   16  C16 UNL     1      33.207  34.799  38.377  1.00  0.00     0.010 C 
HETATM   17  C13 UNL     1      32.251  36.164  35.952  1.00  0.00     0.010 C 
HETATM   18  C15 UNL     1      33.488  36.229  38.039  1.00  0.00     0.010 C 
BRANCH   9  19
HETATM   19  O1  UNL     1      29.855  38.584  38.570  1.00  0.00    -0.345 OA
ATOM     20  H1  UNL     1      30.445  39.229  38.198  1.00  0.00     0.219 HD
ENDBRANCH   9  19
BRANCH  13  21
HETATM   21  O2  UNL     1      29.138  33.796  39.206  1.00  0.00    -0.345 OA
ATOM     22  H2  UNL     1      28.455  33.297  38.773  1.00  0.00     0.219 HD
ENDBRANCH  13  21
ENDBRANCH   1   8
TORSDOF 4
ENDMDL
MODEL 2
REMARK VINA RESULT: -7.906610417      0.059      2.316
REMARK  4 active torsions:
REMARK  status: ('A' for Active; 'I' for Inactive)
REMARK    1  A    between atoms: C2_2  and  C5_5 
REMARK    2  A    between atoms: C5_5  and  N2_8 
REMARK    3  A    between atoms: C7_9  and  O1_10 
REMARK    4  A    between atoms: C10_14  and  O2_15 
ROOT
HETATM    1  C5  UNL     1      27.927  36.607  39.745  1.00  0.00     0.208 C 
HETATM    2  C6  UNL     1      27.674  35.661  40.859  1.00  0.00     0.086 C 
HETATM    3  N1  UNL     1      27.470  34.916  41.721  1.00  0.00    -0.195 NA
ENDROOT
BRANCH   1   4
HETATM    4  C2  UNL     1      26.728  36.551  38.855  1.00  0.00    -0.017 C 
HETATM    5  C1  UNL     1      26.801  37.531  37.708  1.00  0.00     0.018 C 
HETATM    6  C3  UNL     1      25.524  36.982  39.703  1.00  0.00     0.018 C 
HETATM    7  C4  UNL     1      26.417  35.192  38.320  1.00  0.00     0.018 C 
ENDBRANCH   1   4
BRANCH   1   8
HETATM    8  N2  UNL     1      29.166  36.340  39.087  1.00  0.00    -0.289 N 
HETATM    9  C7  UNL     1      29.689  35.105  38.898  1.00  0.00     0.152 A 
HETATM   10  C8  UNL     1      30.885  35.197  38.235  1.00  0.00     0.008 A 
HETATM   11  C9  UNL     1      31.074  36.570  38.023  1.00  0.00     0.008 A 
HETATM   12  C14 UNL     1      31.963  34.329  37.714  1.00  0.00     0.024 C 
HETATM   13  C10 UNL     1      30.011  37.241  38.553  1.00  0.00     0.152 A 
HETATM   14  C11 UNL     1      32.347  36.878  37.300  1.00  0.00     0.024 C 
HETATM   15  C12 UNL     1      33.508  36.237  38.035  1.00  0.00     0.010 C 
HETATM   16  C16 UNL     1      32.235  36.117  35.972  1.00  0.00     0.010 C 
HETATM   17  C13 UNL     1      33.246  34.808  38.404  1.00  0.00     0.010 C 
HETATM   18  C15 UNL     1      32.166  34.647  36.238  1.00  0.00     0.010 C 
BRANCH   9  19
HETATM   19  O1  UNL     1      29.150  33.867  39.291  1.00  0.00    -0.345 OA
ATOM     20  H1  UNL     1      29.557  33.195  39.824  1.00  0.00     0.219 HD
ENDBRANCH   9  19
BRANCH  13  21
HETATM   21  O2  UNL     1      29.889  38.630  38.510  1.00  0.00    -0.345 OA
ATOM     22  H2  UNL     1      30.574  39.283  38.425  1.00  0.00     0.219 HD
ENDBRANCH  13  21
ENDBRANCH   1   8
TORSDOF 4
ENDMDL
MODEL 3
REMARK VINA RESULT: -7.455959580      1.135      3.070
REMARK  4 active torsions:
REMARK  status: ('A' for Active; 'I' for Inactive)
REMARK    1  A    between atoms: C2_2  and  C5_5 
REMARK    2  A    between atoms: C5_5  and  N2_8 
REMARK    3  A    between atoms: C7_9  and  O1_10 
REMARK    4  A    between atoms: C10_14  and  O2_15 
ROOT
HETATM    1  C5  UNL     1      27.470  35.475  39.539  1.00  0.00     0.208 C 
HETATM    2  C6  UNL     1      26.606  36.512  38.924  1.00  0.00     0.086 C 
HETATM    3  N1  UNL     1      25.934  37.328  38.453  1.00  0.00    -0.195 NA
ENDROOT
BRANCH   1   4
HETATM    4  C2  UNL     1      27.413  35.692  41.016  1.00  0.00    -0.017 C 
HETATM    5  C1  UNL     1      28.728  36.164  41.591  1.00  0.00     0.018 C 
HETATM    6  C3  UNL     1      27.138  34.324  41.656  1.00  0.00     0.018 C 
HETATM    7  C4  UNL     1      26.323  36.608  41.466  1.00  0.00     0.018 C 
ENDBRANCH   1   4
BRANCH   1   8
HETATM    8  N2  UNL     1      28.788  35.482  38.990  1.00  0.00    -0.289 N 
HETATM    9  C7  UNL     1      29.537  34.376  38.766  1.00  0.00     0.152 A 
HETATM   10  C8  UNL     1      30.750  34.728  38.233  1.00  0.00     0.008 A 
HETATM   11  C9  UNL     1      30.709  36.127  38.140  1.00  0.00     0.008 A 
HETATM   12  C14 UNL     1      32.005  34.106  37.761  1.00  0.00     0.024 C 
HETATM   13  C10 UNL     1      29.501  36.557  38.608  1.00  0.00     0.152 A 
HETATM   14  C11 UNL     1      31.963  36.710  37.570  1.00  0.00     0.024 C 
HETATM   15  C12 UNL     1      33.153  36.214  38.369  1.00  0.00     0.010 C 
HETATM   16  C16 UNL     1      32.102  36.060  36.187  1.00  0.00     0.010 C 
HETATM   17  C13 UNL     1      33.119  34.735  38.608  1.00  0.00     0.010 C 
HETATM   18  C15 UNL     1      32.274  34.583  36.339  1.00  0.00     0.010 C 
BRANCH   9  19
HETATM   19  O1  UNL     1      29.196  33.034  39.014  1.00  0.00    -0.345 OA
ATOM     20  H1  UNL     1      29.476  32.262  38.537  1.00  0.00     0.219 HD
ENDBRANCH   9  19
BRANCH  13  21
HETATM   21  O2  UNL     1      29.138  37.903  38.652  1.00  0.00    -0.345 OA
ATOM     22  H2  UNL     1      28.273  38.281  38.756  1.00  0.00     0.219 HD
ENDBRANCH  13  21
ENDBRANCH   1   8
TORSDOF 4
ENDMDL
MODEL 4
REMARK VINA RESULT: -7.370852722      0.461      2.552
REMARK  4 active torsions:
REMARK  status: ('A' for Active; 'I' for Inactive)
REMARK    1  A    between atoms: C2_2  and  C5_5 
REMARK    2  A    between atoms: C5_5  and  N2_8 
REMARK    3  A    between atoms: C7_9  and  O1_10 
REMARK    4  A    between atoms: C10_14  and  O2_15 
ROOT
HETATM    1  C5  UNL     1      28.203  36.620  39.660  1.00  0.00     0.208 C 
HETATM    2  C6  UNL     1      28.103  35.672  40.795  1.00  0.00     0.086 C 
HETATM    3  N1  UNL     1      28.019  34.924  41.675  1.00  0.00    -0.195 NA
ENDROOT
BRANCH   1   4
HETATM    4  C2  UNL     1      26.957  36.454  38.852  1.00  0.00    -0.017 C 
HETATM    5  C1  UNL     1      26.684  35.014  38.484  1.00  0.00     0.018 C 
HETATM    6  C3  UNL     1      27.183  37.193  37.527  1.00  0.00     0.018 C 
HETATM    7  C4  UNL     1      25.733  37.041  39.473  1.00  0.00     0.018 C 
ENDBRANCH   1   4
BRANCH   1   8
HETATM    8  N2  UNL     1      29.414  36.448  38.923  1.00  0.00    -0.289 N 
HETATM    9  C7  UNL     1      29.994  35.253  38.661  1.00  0.00     0.152 A 
HETATM   10  C8  UNL     1      31.142  35.436  37.934  1.00  0.00     0.008 A 
HETATM   11  C9  UNL     1      31.241  36.824  37.761  1.00  0.00     0.008 A 
HETATM   12  C14 UNL     1      32.234  34.649  37.322  1.00  0.00     0.024 C 
HETATM   13  C10 UNL     1      30.174  37.413  38.374  1.00  0.00     0.152 A 
HETATM   14  C11 UNL     1      32.448  37.229  36.978  1.00  0.00     0.024 C 
HETATM   15  C12 UNL     1      33.686  36.633  37.622  1.00  0.00     0.010 C 
HETATM   16  C16 UNL     1      32.302  36.506  35.632  1.00  0.00     0.010 C 
HETATM   17  C13 UNL     1      33.527  35.180  37.955  1.00  0.00     0.010 C 
HETATM   18  C15 UNL     1      32.332  35.027  35.849  1.00  0.00     0.010 C 
BRANCH   9  19
HETATM   19  O1  UNL     1      29.550  33.973  39.039  1.00  0.00    -0.345 OA
ATOM     20  H1  UNL     1      30.017  33.318  39.544  1.00  0.00     0.219 HD
ENDBRANCH   9  19
BRANCH  13  21
HETATM   21  O2  UNL     1      29.971  38.794  38.388  1.00  0.00    -0.345 OA
ATOM     22  H2  UNL     1      30.422  39.464  37.887  1.00  0.00     0.219 HD
ENDBRANCH  13  21
ENDBRANCH   1   8
TORSDOF 4
ENDMDL
MODEL 5
REMARK VINA RESULT: -7.348481277      1.159      2.052
REMARK  4 active torsions:
REMARK  status: ('A' for Active; 'I' for Inactive)
REMARK    1  A    between atoms: C2_2  and  C5_5 
REMARK    2  A    between atoms: C5_5  and  N2_8 
REMARK    3  A    between atoms: C7_9  and  O1_10 
REMARK    4  A    between atoms: C10_14  and  O2_15 
ROOT
HETATM    1  C5  UNL     1      27.449  35.411  39.573  1.00  0.00     0.208 C 
HETATM    2  C6  UNL     1      26.605  36.459  38.949  1.00  0.00     0.086 C 
HETATM    3  N1  UNL     1      25.949  37.284  38.471  1.00  0.00    -0.195 NA
ENDROOT
BRANCH   1   4
HETATM    4  C2  UNL     1      27.403  35.648  41.048  1.00  0.00    -0.017 C 
HETATM    5  C1  UNL     1      28.741  36.059  41.618  1.00  0.00     0.018 C 
HETATM    6  C3  UNL     1      27.059  34.304  41.704  1.00  0.00     0.018 C 
HETATM    7  C4  UNL     1      26.362  36.624  41.487  1.00  0.00     0.018 C 
ENDBRANCH   1   4
BRANCH   1   8
HETATM    8  N2  UNL     1      28.764  35.382  39.018  1.00  0.00    -0.289 N 
HETATM    9  C7  UNL     1      29.467  36.476  38.642  1.00  0.00     0.152 A 
HETATM   10  C8  UNL     1      30.691  36.103  38.150  1.00  0.00     0.008 A 
HETATM   11  C9  UNL     1      30.705  34.704  38.244  1.00  0.00     0.008 A 
HETATM   12  C14 UNL     1      31.918  36.705  37.586  1.00  0.00     0.024 C 
HETATM   13  C10 UNL     1      29.518  34.294  38.776  1.00  0.00     0.152 A 
HETATM   14  C11 UNL     1      31.980  34.099  37.748  1.00  0.00     0.024 C 
HETATM   15  C12 UNL     1      32.253  34.591  36.340  1.00  0.00     0.010 C 
HETATM   16  C16 UNL     1      33.075  34.729  38.619  1.00  0.00     0.010 C 
HETATM   17  C13 UNL     1      32.084  36.074  36.198  1.00  0.00     0.010 C 
HETATM   18  C15 UNL     1      33.112  36.207  38.391  1.00  0.00     0.010 C 
BRANCH   9  19
HETATM   19  O1  UNL     1      29.074  37.824  38.712  1.00  0.00    -0.345 OA
ATOM     20  H1  UNL     1      29.604  38.576  38.950  1.00  0.00     0.219 HD
ENDBRANCH   9  19
BRANCH  13  21
HETATM   21  O2  UNL     1      29.209  32.952  39.003  1.00  0.00    -0.345 OA
ATOM     22  H2  UNL     1      29.230  32.469  39.821  1.00  0.00     0.219 HD
ENDBRANCH  13  21
ENDBRANCH   1   8
TORSDOF 4
ENDMDL
