MODEL 1
REMARK VINA RESULT: -7.660054304      0.000      0.000
REMARK  1 active torsions:
REMARK  status: ('A' for Active; 'I' for Inactive)
REMARK    1  A    between atoms: C5_6  and  C6_7 
ROOT
HETATM    1  C6  UNL     1      29.734  36.854  38.464  1.00  0.00     0.032 C 
HETATM    2  C7  UNL     1      31.193  36.551  38.827  1.00  0.00     0.072 C 
HETATM    3  C8  UNL     1      32.139  36.770  37.748  1.00  0.00    -0.015 C 
HETATM    4  N1  UNL     1      33.299  36.247  37.947  1.00  0.00    -0.405 N 
ATOM      5  H11 UNL     1      33.964  36.402  37.189  1.00  0.00     0.155 HD
ATOM      6  H12 UNL     1      33.393  35.753  38.834  1.00  0.00     0.155 HD
HETATM    7  C9  UNL     1      32.005  37.482  36.472  1.00  0.00     0.032 C 
HETATM    8  C10 UNL     1      31.439  38.861  36.702  1.00  0.00     0.015 C 
HETATM    9  C11 UNL     1      29.944  38.831  36.932  1.00  0.00    -0.012 C 
HETATM   10  C12 UNL     1      29.319  38.096  35.797  1.00  0.00     0.015 C 
HETATM   11  C13 UNL     1      29.731  36.652  35.861  1.00  0.00     0.033 C 
HETATM   12  C14 UNL     1      31.217  36.624  35.541  1.00  0.00     0.021 C 
HETATM   13  C15 UNL     1      29.498  36.089  37.208  1.00  0.00    -0.002 C 
HETATM   14  N2  UNL     1      29.075  34.885  37.303  1.00  0.00    -0.404 N 
ATOM     15  H21 UNL     1      28.914  34.362  36.443  1.00  0.00     0.155 HD
ATOM     16  H22 UNL     1      28.914  34.496  38.233  1.00  0.00     0.155 HD
HETATM   17  C16 UNL     1      29.638  38.338  38.300  1.00  0.00     0.025 C 
ENDROOT
BRANCH   1  18
HETATM   18  C5  UNL     1      28.852  36.340  39.593  1.00  0.00    -0.030 A 
HETATM   19  C2  UNL     1      27.499  36.470  39.503  1.00  0.00    -0.014 A 
HETATM   20  C1  UNL     1      26.577  37.022  38.492  1.00  0.00     0.057 C 
HETATM   21  S1  UNL     1      26.940  35.780  40.962  1.00  0.00    -0.106 SA
HETATM   22  C3  UNL     1      28.436  35.340  41.658  1.00  0.00     0.051 A 
HETATM   23  C4  UNL     1      29.335  35.753  40.712  1.00  0.00     0.016 A 
ENDBRANCH   1  18
TORSDOF 1
ENDMDL
MODEL 2
REMARK VINA RESULT: -7.272608073      1.672      3.249
REMARK  1 active torsions:
REMARK  status: ('A' for Active; 'I' for Inactive)
REMARK    1  A    between atoms: C5_6  and  C6_7 
ROOT
HETATM    1  C6  UNL     1      29.354  35.993  38.020  1.00  0.00     0.032 C 
HETATM    2  C7  UNL     1      29.116  36.270  36.530  1.00  0.00     0.072 C 
HETATM    3  C8  UNL     1      30.326  36.353  35.733  1.00  0.00    -0.015 C 
HETATM    4  N1  UNL     1      30.156  36.869  34.565  1.00  0.00    -0.405 N 
ATOM      5  H11 UNL     1      31.007  36.927  34.005  1.00  0.00     0.155 HD
ATOM      6  H12 UNL     1      29.196  37.146  34.362  1.00  0.00     0.155 HD
HETATM    7  C9  UNL     1      31.708  35.955  36.025  1.00  0.00     0.032 C 
HETATM    8  C10 UNL     1      31.743  34.535  36.534  1.00  0.00     0.015 C 
HETATM    9  C11 UNL     1      31.327  34.441  37.986  1.00  0.00    -0.012 C 
HETATM   10  C12 UNL     1      32.166  35.391  38.767  1.00  0.00     0.015 C 
HETATM   11  C13 UNL     1      31.812  36.798  38.372  1.00  0.00     0.033 C 
HETATM   12  C14 UNL     1      32.301  36.969  36.943  1.00  0.00     0.021 C 
HETATM   13  C15 UNL     1      30.352  37.019  38.433  1.00  0.00    -0.002 C 
HETATM   14  N2  UNL     1      29.921  38.146  38.858  1.00  0.00    -0.404 N 
ATOM     15  H21 UNL     1      30.604  38.848  39.140  1.00  0.00     0.155 HD
ATOM     16  H22 UNL     1      28.913  38.298  38.900  1.00  0.00     0.155 HD
HETATM   17  C16 UNL     1      29.854  34.585  38.114  1.00  0.00     0.025 C 
ENDROOT
BRANCH   1  18
HETATM   18  C5  UNL     1      28.034  36.187  38.752  1.00  0.00    -0.030 A 
HETATM   19  C2  UNL     1      27.955  35.913  40.083  1.00  0.00    -0.014 A 
HETATM   20  C1  UNL     1      28.915  35.444  41.102  1.00  0.00     0.057 C 
HETATM   21  S1  UNL     1      26.326  36.259  40.460  1.00  0.00    -0.106 SA
HETATM   22  C3  UNL     1      25.775  36.744  38.919  1.00  0.00     0.051 A 
HETATM   23  C4  UNL     1      26.901  36.618  38.150  1.00  0.00     0.016 A 
ENDBRANCH   1  18
TORSDOF 1
ENDMDL
MODEL 3
REMARK VINA RESULT: -7.226254034      1.928      2.764
REMARK  1 active torsions:
REMARK  status: ('A' for Active; 'I' for Inactive)
REMARK    1  A    between atoms: C5_6  and  C6_7 
ROOT
HETATM    1  C6  UNL     1      30.322  36.378  37.581  1.00  0.00     0.032 C 
HETATM    2  C7  UNL     1      30.588  35.060  38.319  1.00  0.00     0.072 C 
HETATM    3  C8  UNL     1      31.900  34.488  38.074  1.00  0.00    -0.015 C 
HETATM    4  N1  UNL     1      32.019  33.260  38.445  1.00  0.00    -0.405 N 
ATOM      5  H11 UNL     1      32.941  32.858  38.273  1.00  0.00     0.155 HD
ATOM      6  H12 UNL     1      31.177  32.861  38.859  1.00  0.00     0.155 HD
HETATM    7  C9  UNL     1      33.111  35.063  37.478  1.00  0.00     0.032 C 
HETATM    8  C10 UNL     1      33.441  36.379  38.137  1.00  0.00     0.015 C 
HETATM    9  C11 UNL     1      32.565  37.504  37.631  1.00  0.00    -0.012 C 
HETATM   10  C12 UNL     1      32.656  37.525  36.145  1.00  0.00     0.015 C 
HETATM   11  C13 UNL     1      32.014  36.281  35.596  1.00  0.00     0.033 C 
HETATM   12  C14 UNL     1      32.917  35.128  36.001  1.00  0.00     0.021 C 
HETATM   13  C15 UNL     1      30.663  36.083  36.161  1.00  0.00    -0.002 C 
HETATM   14  N2  UNL     1      29.740  35.634  35.398  1.00  0.00    -0.404 N 
ATOM     15  H21 UNL     1      29.974  35.432  34.426  1.00  0.00     0.155 HD
ATOM     16  H22 UNL     1      28.807  35.497  35.788  1.00  0.00     0.155 HD
HETATM   17  C16 UNL     1      31.204  37.406  38.218  1.00  0.00     0.025 C 
ENDROOT
BRANCH   1  18
HETATM   18  C5  UNL     1      28.845  36.712  37.732  1.00  0.00    -0.030 A 
HETATM   19  C2  UNL     1      28.366  37.888  37.241  1.00  0.00    -0.014 A 
HETATM   20  C1  UNL     1      28.965  39.029  36.520  1.00  0.00     0.057 C 
HETATM   21  S1  UNL     1      26.706  37.834  37.638  1.00  0.00    -0.106 SA
HETATM   22  C3  UNL     1      26.651  36.318  38.420  1.00  0.00     0.051 A 
HETATM   23  C4  UNL     1      27.952  35.899  38.343  1.00  0.00     0.016 A 
ENDBRANCH   1  18
TORSDOF 1
ENDMDL
MODEL 4
REMARK VINA RESULT: -7.098508243      2.681      4.572
REMARK  1 active torsions:
REMARK  status: ('A' for Active; 'I' for Inactive)
REMARK    1  A    between atoms: C5_6  and  C6_7 
ROOT
HETATM    1  C6  UNL     1      31.299  36.703  37.641  1.00  0.00     0.032 C 
HETATM    2  C7  UNL     1      30.509  36.543  38.946  1.00  0.00     0.072 C 
HETATM    3  C8  UNL     1      30.703  35.269  39.614  1.00  0.00    -0.015 C 
HETATM    4  N1  UNL     1      29.835  35.015  40.531  1.00  0.00    -0.405 N 
ATOM      5  H11 UNL     1      29.972  34.119  41.000  1.00  0.00     0.155 HD
ATOM      6  H12 UNL     1      29.134  35.744  40.662  1.00  0.00     0.155 HD
HETATM    7  C9  UNL     1      31.712  34.220  39.425  1.00  0.00     0.032 C 
HETATM    8  C10 UNL     1      33.096  34.820  39.448  1.00  0.00     0.015 C 
HETATM    9  C11 UNL     1      33.443  35.497  38.140  1.00  0.00    -0.012 C 
HETATM   10  C12 UNL     1      33.220  34.518  37.041  1.00  0.00     0.015 C 
HETATM   11  C13 UNL     1      31.749  34.232  36.930  1.00  0.00     0.033 C 
HETATM   12  C14 UNL     1      31.372  33.464  38.186  1.00  0.00     0.021 C 
HETATM   13  C15 UNL     1      30.965  35.484  36.854  1.00  0.00    -0.002 C 
HETATM   14  N2  UNL     1      29.950  35.524  36.077  1.00  0.00    -0.404 N 
ATOM     15  H21 UNL     1      29.721  34.689  35.538  1.00  0.00     0.155 HD
ATOM     16  H22 UNL     1      29.409  36.388  36.024  1.00  0.00     0.155 HD
HETATM   17  C16 UNL     1      32.741  36.802  38.029  1.00  0.00     0.025 C 
ENDROOT
BRANCH   1  18
HETATM   18  C5  UNL     1      30.803  37.960  36.941  1.00  0.00    -0.030 A 
HETATM   19  C2  UNL     1      31.361  38.339  35.759  1.00  0.00    -0.014 A 
HETATM   20  C1  UNL     1      32.418  37.785  34.889  1.00  0.00     0.057 C 
HETATM   21  S1  UNL     1      30.517  39.770  35.364  1.00  0.00    -0.106 SA
HETATM   22  C3  UNL     1      29.470  39.860  36.709  1.00  0.00     0.051 A 
HETATM   23  C4  UNL     1      29.821  38.752  37.432  1.00  0.00     0.016 A 
ENDBRANCH   1  18
TORSDOF 1
ENDMDL
MODEL 5
REMARK VINA RESULT: -7.013361967      1.459      2.109
REMARK  1 active torsions:
REMARK  status: ('A' for Active; 'I' for Inactive)
REMARK    1  A    between atoms: C5_6  and  C6_7 
ROOT
HETATM    1  C6  UNL     1      29.790  36.889  37.447  1.00  0.00     0.032 C 
HETATM    2  C7  UNL     1      30.709  35.780  37.975  1.00  0.00     0.072 C 
HETATM    3  C8  UNL     1      32.031  35.760  37.378  1.00  0.00    -0.015 C 
HETATM    4  N1  UNL     1      32.693  34.676  37.592  1.00  0.00    -0.405 N 
ATOM      5  H11 UNL     1      33.623  34.662  37.172  1.00  0.00     0.155 HD
ATOM      6  H12 UNL     1      32.196  33.982  38.151  1.00  0.00     0.155 HD
HETATM    7  C9  UNL     1      32.745  36.758  36.573  1.00  0.00     0.032 C 
HETATM    8  C10 UNL     1      32.711  38.101  37.259  1.00  0.00     0.015 C 
HETATM    9  C11 UNL     1      31.379  38.797  37.080  1.00  0.00    -0.012 C 
HETATM   10  C12 UNL     1      31.078  38.847  35.623  1.00  0.00     0.015 C 
HETATM   11  C13 UNL     1      30.835  37.451  35.123  1.00  0.00     0.033 C 
HETATM   12  C14 UNL     1      32.176  36.739  35.194  1.00  0.00     0.021 C 
HETATM   13  C15 UNL     1      29.847  36.745  35.966  1.00  0.00    -0.002 C 
HETATM   14  N2  UNL     1      29.001  35.971  35.400  1.00  0.00    -0.404 N 
ATOM     15  H21 UNL     1      29.040  35.873  34.386  1.00  0.00     0.155 HD
ATOM     16  H22 UNL     1      28.318  35.484  35.982  1.00  0.00     0.155 HD
HETATM   17  C16 UNL     1      30.350  38.180  37.957  1.00  0.00     0.025 C 
ENDROOT
BRANCH   1  18
HETATM   18  C5  UNL     1      28.385  36.624  37.970  1.00  0.00    -0.030 A 
HETATM   19  C2  UNL     1      28.125  35.475  38.654  1.00  0.00    -0.014 A 
HETATM   20  C1  UNL     1      28.935  34.314  39.071  1.00  0.00     0.057 C 
HETATM   21  S1  UNL     1      26.463  35.605  39.024  1.00  0.00    -0.106 SA
HETATM   22  C3  UNL     1      26.129  37.115  38.304  1.00  0.00     0.051 A 
HETATM   23  C4  UNL     1      27.347  37.473  37.790  1.00  0.00     0.016 A 
ENDBRANCH   1  18
TORSDOF 1
ENDMDL
