MODEL 1
REMARK VINA RESULT: -7.527566865      0.000      0.000
REMARK  3 active torsions:
REMARK  status: ('A' for Active; 'I' for Inactive)
REMARK    1  A    between atoms: O1_1  and  N1_3 
REMARK    2  A    between atoms: N1_3  and  C1_5 
REMARK    3  A    between atoms: C2_6  and  O2_7 
ROOT
HETATM    1  C1  UNL     1      28.158  35.768  40.224  1.00  0.00     0.113 A 
HETATM    2  C2  UNL     1      29.098  35.210  41.059  1.00  0.00     0.170 A 
HETATM    3  N2  UNL     1      29.989  34.605  40.291  1.00  0.00    -0.338 N 
ATOM      4  H2  UNL     1      30.803  34.104  40.649  1.00  0.00     0.168 HD
HETATM    5  C3  UNL     1      29.692  34.731  38.962  1.00  0.00     0.020 A 
HETATM    6  C4  UNL     1      28.548  35.456  38.921  1.00  0.00    -0.003 A 
HETATM    7  C5  UNL     1      27.805  35.868  37.694  1.00  0.00     0.043 C 
HETATM    8  C6  UNL     1      27.528  37.357  37.688  1.00  0.00     0.005 C 
HETATM    9  C7  UNL     1      28.089  37.955  36.451  1.00  0.00     0.000 C 
HETATM   10  C8  UNL     1      28.799  39.269  36.659  1.00  0.00     0.000 C 
HETATM   11  C9  UNL     1      30.073  39.060  37.447  1.00  0.00     0.000 C 
HETATM   12  C10 UNL     1      31.313  39.249  36.649  1.00  0.00     0.000 C 
HETATM   13  C11 UNL     1      31.905  37.996  36.068  1.00  0.00     0.007 C 
HETATM   14  C12 UNL     1      32.727  37.203  37.015  1.00  0.00     0.078 C 
HETATM   15  C13 UNL     1      32.062  36.118  37.742  1.00  0.00     0.127 C 
HETATM   16  O3  UNL     1      32.210  36.084  38.951  1.00  0.00    -0.298 OA
HETATM   17  C14 UNL     1      31.260  35.129  37.043  1.00  0.00     0.084 C 
HETATM   18  C15 UNL     1      30.450  34.187  37.831  1.00  0.00     0.065 C 
ENDROOT
BRANCH   1  19
HETATM   19  N1  UNL     1      27.006  36.522  40.641  1.00  0.00    -0.265 N 
ATOM     20  H1  UNL     1      26.750  37.388  40.167  1.00  0.00     0.194 HD
BRANCH  19  21
HETATM   21  O1  UNL     1      26.327  36.091  41.598  1.00  0.00    -0.289 OA
ATOM     22  H1  UNL     1      26.574  36.346  42.479  1.00  0.00     0.244 HD
ENDBRANCH  19  21
ENDBRANCH   1  19
BRANCH   2  23
HETATM   23  O2  UNL     1      29.045  35.312  42.455  1.00  0.00    -0.344 OA
ATOM     24  H2  UNL     1      29.112  36.137  42.921  1.00  0.00     0.219 HD
ENDBRANCH   2  23
TORSDOF 3
ENDMDL
MODEL 2
REMARK VINA RESULT: -7.119285372      2.085      3.967
REMARK  3 active torsions:
REMARK  status: ('A' for Active; 'I' for Inactive)
REMARK    1  A    between atoms: O1_1  and  N1_3 
REMARK    2  A    between atoms: N1_3  and  C1_5 
REMARK    3  A    between atoms: C2_6  and  O2_7 
ROOT
HETATM    1  C1  UNL     1      28.050  35.827  38.865  1.00  0.00     0.113 A 
HETATM    2  C2  UNL     1      27.129  36.398  38.017  1.00  0.00     0.170 A 
HETATM    3  N2  UNL     1      27.652  37.532  37.583  1.00  0.00    -0.338 N 
ATOM      4  H2  UNL     1      27.182  38.166  36.936  1.00  0.00     0.168 HD
HETATM    5  C3  UNL     1      28.896  37.757  38.103  1.00  0.00     0.020 A 
HETATM    6  C4  UNL     1      29.144  36.692  38.905  1.00  0.00    -0.003 A 
HETATM    7  C5  UNL     1      30.379  36.459  39.710  1.00  0.00     0.043 C 
HETATM    8  C6  UNL     1      30.959  35.084  39.448  1.00  0.00     0.005 C 
HETATM    9  C7  UNL     1      32.367  35.224  39.002  1.00  0.00     0.000 C 
HETATM   10  C8  UNL     1      32.750  34.324  37.854  1.00  0.00     0.000 C 
HETATM   11  C9  UNL     1      32.035  34.749  36.591  1.00  0.00     0.000 C 
HETATM   12  C10 UNL     1      32.926  35.362  35.570  1.00  0.00     0.000 C 
HETATM   13  C11 UNL     1      32.998  36.862  35.592  1.00  0.00     0.007 C 
HETATM   14  C12 UNL     1      31.873  37.546  34.909  1.00  0.00     0.078 C 
HETATM   15  C13 UNL     1      30.730  37.952  35.731  1.00  0.00     0.127 C 
HETATM   16  O3  UNL     1      29.621  37.630  35.341  1.00  0.00    -0.298 OA
HETATM   17  C14 UNL     1      30.919  38.704  36.958  1.00  0.00     0.084 C 
HETATM   18  C15 UNL     1      29.766  38.910  37.850  1.00  0.00     0.065 C 
ENDROOT
BRANCH   1  19
HETATM   19  N1  UNL     1      27.889  34.580  39.563  1.00  0.00    -0.265 N 
ATOM     20  H1  UNL     1      28.011  33.691  39.078  1.00  0.00     0.194 HD
BRANCH  19  21
HETATM   21  O1  UNL     1      27.596  34.610  40.777  1.00  0.00    -0.289 OA
ATOM     22  H1  UNL     1      28.275  34.836  41.402  1.00  0.00     0.244 HD
ENDBRANCH  19  21
ENDBRANCH   1  19
BRANCH   2  23
HETATM   23  O2  UNL     1      25.890  35.816  37.724  1.00  0.00    -0.344 OA
ATOM     24  H2  UNL     1      25.188  36.278  37.281  1.00  0.00     0.219 HD
ENDBRANCH   2  23
TORSDOF 3
ENDMDL
MODEL 3
REMARK VINA RESULT: -6.919799291      1.208      1.420
REMARK  3 active torsions:
REMARK  status: ('A' for Active; 'I' for Inactive)
REMARK    1  A    between atoms: O1_1  and  N1_3 
REMARK    2  A    between atoms: N1_3  and  C1_5 
REMARK    3  A    between atoms: C2_6  and  O2_7 
ROOT
HETATM    1  C1  UNL     1      26.721  36.144  40.017  1.00  0.00     0.113 A 
HETATM    2  C2  UNL     1      27.243  35.493  41.111  1.00  0.00     0.170 A 
HETATM    3  N2  UNL     1      28.171  34.663  40.662  1.00  0.00    -0.338 N 
ATOM      4  H2  UNL     1      28.724  34.050  41.261  1.00  0.00     0.168 HD
HETATM    5  C3  UNL     1      28.302  34.725  39.303  1.00  0.00     0.020 A 
HETATM    6  C4  UNL     1      27.395  35.650  38.899  1.00  0.00    -0.003 A 
HETATM    7  C5  UNL     1      27.140  36.085  37.496  1.00  0.00     0.043 C 
HETATM    8  C6  UNL     1      27.194  37.594  37.365  1.00  0.00     0.005 C 
HETATM    9  C7  UNL     1      28.199  37.961  36.339  1.00  0.00     0.000 C 
HETATM   10  C8  UNL     1      29.077  39.129  36.713  1.00  0.00     0.000 C 
HETATM   11  C9  UNL     1      29.997  38.751  37.852  1.00  0.00     0.000 C 
HETATM   12  C10 UNL     1      31.426  38.628  37.458  1.00  0.00     0.000 C 
HETATM   13  C11 UNL     1      31.885  37.238  37.116  1.00  0.00     0.007 C 
HETATM   14  C12 UNL     1      32.214  36.390  38.288  1.00  0.00     0.078 C 
HETATM   15  C13 UNL     1      31.157  35.521  38.811  1.00  0.00     0.127 C 
HETATM   16  O3  UNL     1      30.941  35.566  40.009  1.00  0.00    -0.298 OA
HETATM   17  C14 UNL     1      30.403  34.646  37.931  1.00  0.00     0.084 C 
HETATM   18  C15 UNL     1      29.222  33.949  38.466  1.00  0.00     0.065 C 
ENDROOT
BRANCH   1  19
HETATM   19  N1  UNL     1      25.682  37.137  40.049  1.00  0.00    -0.265 N 
ATOM     20  H1  UNL     1      25.825  38.055  39.628  1.00  0.00     0.194 HD
BRANCH  19  21
HETATM   21  O1  UNL     1      24.600  36.850  40.604  1.00  0.00    -0.289 OA
ATOM     22  H1  UNL     1      24.622  36.509  41.490  1.00  0.00     0.244 HD
ENDBRANCH  19  21
ENDBRANCH   1  19
BRANCH   2  23
HETATM   23  O2  UNL     1      26.812  35.726  42.422  1.00  0.00    -0.344 OA
ATOM     24  H2  UNL     1      27.401  35.754  43.168  1.00  0.00     0.219 HD
ENDBRANCH   2  23
TORSDOF 3
ENDMDL
MODEL 4
REMARK VINA RESULT: -6.864266414      1.345      1.647
REMARK  3 active torsions:
REMARK  status: ('A' for Active; 'I' for Inactive)
REMARK    1  A    between atoms: O1_1  and  N1_3 
REMARK    2  A    between atoms: N1_3  and  C1_5 
REMARK    3  A    between atoms: C2_6  and  O2_7 
ROOT
HETATM    1  C1  UNL     1      28.711  35.955  39.708  1.00  0.00     0.113 A 
HETATM    2  C2  UNL     1      29.308  35.434  40.832  1.00  0.00     0.170 A 
HETATM    3  N2  UNL     1      30.118  34.469  40.428  1.00  0.00    -0.338 N 
ATOM      4  H2  UNL     1      30.693  33.907  41.057  1.00  0.00     0.168 HD
HETATM    5  C3  UNL     1      30.096  34.312  39.070  1.00  0.00     0.020 A 
HETATM    6  C4  UNL     1      29.215  35.241  38.620  1.00  0.00    -0.003 A 
HETATM    7  C5  UNL     1      28.830  35.480  37.198  1.00  0.00     0.043 C 
HETATM    8  C6  UNL     1      28.974  36.940  36.824  1.00  0.00     0.005 C 
HETATM    9  C7  UNL     1      29.877  37.060  35.653  1.00  0.00     0.000 C 
HETATM   10  C8  UNL     1      30.871  38.190  35.744  1.00  0.00     0.000 C 
HETATM   11  C9  UNL     1      31.888  37.910  36.827  1.00  0.00     0.000 C 
HETATM   12  C10 UNL     1      33.250  37.606  36.313  1.00  0.00     0.000 C 
HETATM   13  C11 UNL     1      33.568  36.146  36.152  1.00  0.00     0.007 C 
HETATM   14  C12 UNL     1      33.971  35.459  37.404  1.00  0.00     0.078 C 
HETATM   15  C13 UNL     1      32.924  34.774  38.166  1.00  0.00     0.127 C 
HETATM   16  O3  UNL     1      32.851  35.019  39.357  1.00  0.00    -0.298 OA
HETATM   17  C14 UNL     1      32.013  33.845  37.520  1.00  0.00     0.084 C 
HETATM   18  C15 UNL     1      30.857  33.342  38.278  1.00  0.00     0.065 C 
ENDROOT
BRANCH   1  19
HETATM   19  N1  UNL     1      27.753  37.028  39.687  1.00  0.00    -0.265 N 
ATOM     20  H1  UNL     1      28.058  38.000  39.742  1.00  0.00     0.194 HD
BRANCH  19  21
HETATM   21  O1  UNL     1      26.540  36.743  39.601  1.00  0.00    -0.289 OA
ATOM     22  H1  UNL     1      26.299  35.870  39.311  1.00  0.00     0.244 HD
ENDBRANCH  19  21
ENDBRANCH   1  19
BRANCH   2  23
HETATM   23  O2  UNL     1      29.049  35.899  42.126  1.00  0.00    -0.344 OA
ATOM     24  H2  UNL     1      28.178  36.118  42.438  1.00  0.00     0.219 HD
ENDBRANCH   2  23
TORSDOF 3
ENDMDL
MODEL 5
REMARK VINA RESULT: -6.745414625      2.460      4.320
REMARK  3 active torsions:
REMARK  status: ('A' for Active; 'I' for Inactive)
REMARK    1  A    between atoms: O1_1  and  N1_3 
REMARK    2  A    between atoms: N1_3  and  C1_5 
REMARK    3  A    between atoms: C2_6  and  O2_7 
ROOT
HETATM    1  C1  UNL     1      30.835  33.740  38.960  1.00  0.00     0.113 A 
HETATM    2  C2  UNL     1      29.466  33.617  38.911  1.00  0.00     0.170 A 
HETATM    3  N2  UNL     1      28.963  34.838  39.001  1.00  0.00    -0.338 N 
ATOM      4  H2  UNL     1      27.964  35.045  38.991  1.00  0.00     0.168 HD
HETATM    5  C3  UNL     1      29.939  35.789  39.110  1.00  0.00     0.020 A 
HETATM    6  C4  UNL     1      31.109  35.103  39.085  1.00  0.00    -0.003 A 
HETATM    7  C5  UNL     1      32.479  35.686  39.176  1.00  0.00     0.043 C 
HETATM    8  C6  UNL     1      33.364  35.198  38.047  1.00  0.00     0.005 C 
HETATM    9  C7  UNL     1      33.898  36.365  37.304  1.00  0.00     0.000 C 
HETATM   10  C8  UNL     1      33.888  36.209  35.804  1.00  0.00     0.000 C 
HETATM   11  C9  UNL     1      32.468  36.200  35.286  1.00  0.00     0.000 C 
HETATM   12  C10 UNL     1      32.098  37.419  34.519  1.00  0.00     0.000 C 
HETATM   13  C11 UNL     1      31.410  38.496  35.309  1.00  0.00     0.007 C 
HETATM   14  C12 UNL     1      29.957  38.279  35.517  1.00  0.00     0.078 C 
HETATM   15  C13 UNL     1      29.543  37.611  36.754  1.00  0.00     0.127 C 
HETATM   16  O3  UNL     1      28.779  36.669  36.650  1.00  0.00    -0.298 OA
HETATM   17  C14 UNL     1      30.030  38.061  38.046  1.00  0.00     0.084 C 
HETATM   18  C15 UNL     1      29.753  37.238  39.234  1.00  0.00     0.065 C 
ENDROOT
BRANCH   1  19
HETATM   19  N1  UNL     1      31.778  32.657  38.894  1.00  0.00    -0.265 N 
ATOM     20  H1  UNL     1      31.836  32.066  38.065  1.00  0.00     0.194 HD
BRANCH  19  21
HETATM   21  O1  UNL     1      32.524  32.456  39.876  1.00  0.00    -0.289 OA
ATOM     22  H1  UNL     1      33.434  32.232  39.715  1.00  0.00     0.244 HD
ENDBRANCH  19  21
ENDBRANCH   1  19
BRANCH   2  23
HETATM   23  O2  UNL     1      28.808  32.388  38.787  1.00  0.00    -0.344 OA
ATOM     24  H2  UNL     1      28.456  31.907  39.527  1.00  0.00     0.219 HD
ENDBRANCH   2  23
TORSDOF 3
ENDMDL
