MODEL 1
REMARK VINA RESULT: -5.450250901      0.000      0.000
REMARK  3 active torsions:
REMARK  status: ('A' for Active; 'I' for Inactive)
REMARK    1  A    between atoms: C3_3  and  C4_4 
REMARK    2  A    between atoms: C4_4  and  C5_5 
REMARK    3  A    between atoms: C5_5  and  N1_6 
ROOT
HETATM    1  C1  UNL     1       2.920  -1.724 -20.389  1.00  0.00     0.096 C 
HETATM    2  C2  UNL     1       2.992  -2.154 -19.248  1.00  0.00    -0.187 C 
HETATM    3  C3  UNL     1       3.046  -2.677 -17.877  1.00  0.00     0.084 C 
ENDROOT
BRANCH   3   4
HETATM    4  C4  UNL     1       4.338  -3.390 -17.679  1.00  0.00     0.055 C 
BRANCH   4   5
HETATM    5  C5  UNL     1       4.412  -4.757 -18.332  1.00  0.00     0.059 C 
BRANCH   5   6
HETATM    6  N1  UNL     1       3.783  -5.665 -17.473  1.00  0.00    -0.393 N 
HETATM    7  C6  UNL     1       4.162  -5.760 -16.132  1.00  0.00     0.122 C 
HETATM    8  C7  UNL     1       3.593  -7.108 -15.677  1.00  0.00     0.021 C 
HETATM    9  C8  UNL     1       3.723  -7.909 -16.959  1.00  0.00     0.021 C 
HETATM   10  C9  UNL     1       3.230  -6.852 -17.960  1.00  0.00     0.122 C 
ENDBRANCH   5   6
ENDBRANCH   4   5
ENDBRANCH   3   4
TORSDOF 3
ENDMDL
MODEL 2
REMARK VINA RESULT: -5.268486754      3.467      5.087
REMARK  3 active torsions:
REMARK  status: ('A' for Active; 'I' for Inactive)
REMARK    1  A    between atoms: C3_3  and  C4_4 
REMARK    2  A    between atoms: C4_4  and  C5_5 
REMARK    3  A    between atoms: C5_5  and  N1_6 
ROOT
HETATM    1  C1  UNL     1      -2.707   0.310 -19.449  1.00  0.00     0.096 C 
HETATM    2  C2  UNL     1      -1.569  -0.042 -19.716  1.00  0.00    -0.187 C 
HETATM    3  C3  UNL     1      -0.201  -0.447 -20.065  1.00  0.00     0.084 C 
ENDROOT
BRANCH   3   4
HETATM    4  C4  UNL     1       0.595  -0.596 -18.816  1.00  0.00     0.055 C 
BRANCH   4   5
HETATM    5  C5  UNL     1       1.693  -1.640 -18.888  1.00  0.00     0.059 C 
BRANCH   5   6
HETATM    6  N1  UNL     1       2.045  -1.969 -17.573  1.00  0.00    -0.393 N 
HETATM    7  C6  UNL     1       1.435  -1.330 -16.491  1.00  0.00     0.122 C 
HETATM    8  C7  UNL     1       2.370  -1.620 -15.312  1.00  0.00     0.021 C 
HETATM    9  C8  UNL     1       3.711  -1.634 -16.020  1.00  0.00     0.021 C 
HETATM   10  C9  UNL     1       3.321  -2.443 -17.267  1.00  0.00     0.122 C 
ENDBRANCH   5   6
ENDBRANCH   4   5
ENDBRANCH   3   4
TORSDOF 3
ENDMDL
MODEL 3
REMARK VINA RESULT: -5.215932439      1.771      2.499
REMARK  3 active torsions:
REMARK  status: ('A' for Active; 'I' for Inactive)
REMARK    1  A    between atoms: C3_3  and  C4_4 
REMARK    2  A    between atoms: C4_4  and  C5_5 
REMARK    3  A    between atoms: C5_5  and  N1_6 
ROOT
HETATM    1  C1  UNL     1      -0.117  -0.122 -19.713  1.00  0.00     0.096 C 
HETATM    2  C2  UNL     1       0.916  -0.773 -19.759  1.00  0.00    -0.187 C 
HETATM    3  C3  UNL     1       2.170  -1.533 -19.836  1.00  0.00     0.084 C 
ENDROOT
BRANCH   3   4
HETATM    4  C4  UNL     1       2.481  -2.094 -18.493  1.00  0.00     0.055 C 
BRANCH   4   5
HETATM    5  C5  UNL     1       3.897  -2.619 -18.340  1.00  0.00     0.059 C 
BRANCH   5   6
HETATM    6  N1  UNL     1       3.862  -3.645 -17.388  1.00  0.00    -0.393 N 
HETATM    7  C6  UNL     1       4.748  -4.722 -17.466  1.00  0.00     0.122 C 
HETATM    8  C7  UNL     1       4.116  -5.790 -16.568  1.00  0.00     0.021 C 
HETATM    9  C8  UNL     1       2.644  -5.506 -16.794  1.00  0.00     0.021 C 
HETATM   10  C9  UNL     1       2.677  -3.971 -16.725  1.00  0.00     0.122 C 
ENDBRANCH   5   6
ENDBRANCH   4   5
ENDBRANCH   3   4
TORSDOF 3
ENDMDL
MODEL 4
REMARK VINA RESULT: -5.205247699      1.555      2.469
REMARK  3 active torsions:
REMARK  status: ('A' for Active; 'I' for Inactive)
REMARK    1  A    between atoms: C3_3  and  C4_4 
REMARK    2  A    between atoms: C4_4  and  C5_5 
REMARK    3  A    between atoms: C5_5  and  N1_6 
ROOT
HETATM    1  C1  UNL     1       2.749  -1.577 -20.656  1.00  0.00     0.096 C 
HETATM    2  C2  UNL     1       2.193  -1.599 -19.569  1.00  0.00    -0.187 C 
HETATM    3  C3  UNL     1       1.501  -1.646 -18.275  1.00  0.00     0.084 C 
ENDROOT
BRANCH   3   4
HETATM    4  C4  UNL     1       2.513  -1.659 -17.183  1.00  0.00     0.055 C 
BRANCH   4   5
HETATM    5  C5  UNL     1       2.417  -2.850 -16.248  1.00  0.00     0.059 C 
BRANCH   5   6
HETATM    6  N1  UNL     1       3.471  -3.716 -16.565  1.00  0.00    -0.393 N 
HETATM    7  C6  UNL     1       4.519  -3.294 -17.387  1.00  0.00     0.122 C 
HETATM    8  C7  UNL     1       5.185  -4.598 -17.840  1.00  0.00     0.021 C 
HETATM    9  C8  UNL     1       3.979  -5.515 -17.908  1.00  0.00     0.021 C 
HETATM   10  C9  UNL     1       3.279  -5.098 -16.605  1.00  0.00     0.122 C 
ENDBRANCH   5   6
ENDBRANCH   4   5
ENDBRANCH   3   4
TORSDOF 3
ENDMDL
MODEL 5
REMARK VINA RESULT: -5.184001764      3.809      5.580
REMARK  3 active torsions:
REMARK  status: ('A' for Active; 'I' for Inactive)
REMARK    1  A    between atoms: C3_3  and  C4_4 
REMARK    2  A    between atoms: C4_4  and  C5_5 
REMARK    3  A    between atoms: C5_5  and  N1_6 
ROOT
HETATM    1  C1  UNL     1      -2.593   0.141 -19.873  1.00  0.00     0.096 C 
HETATM    2  C2  UNL     1      -1.938   0.410 -18.879  1.00  0.00    -0.187 C 
HETATM    3  C3  UNL     1      -1.175   0.723 -17.663  1.00  0.00     0.084 C 
ENDROOT
BRANCH   3   4
HETATM    4  C4  UNL     1       0.264   0.427 -17.903  1.00  0.00     0.055 C 
BRANCH   4   5
HETATM    5  C5  UNL     1       0.829  -0.692 -17.049  1.00  0.00     0.059 C 
BRANCH   5   6
HETATM    6  N1  UNL     1       1.498  -1.575 -17.906  1.00  0.00    -0.393 N 
HETATM    7  C6  UNL     1       2.794  -2.008 -17.615  1.00  0.00     0.122 C 
HETATM    8  C7  UNL     1       3.312  -2.557 -18.948  1.00  0.00     0.021 C 
HETATM    9  C8  UNL     1       2.611  -1.628 -19.921  1.00  0.00     0.021 C 
HETATM   10  C9  UNL     1       1.217  -1.601 -19.273  1.00  0.00     0.122 C 
ENDBRANCH   5   6
ENDBRANCH   4   5
ENDBRANCH   3   4
TORSDOF 3
ENDMDL
