MODEL 1
REMARK VINA RESULT: -5.760007839      0.000      0.000
REMARK  3 active torsions:
REMARK  status: ('A' for Active; 'I' for Inactive)
REMARK    1  A    between atoms: C3_3  and  C4_4 
REMARK    2  A    between atoms: C4_4  and  C5_5 
REMARK    3  A    between atoms: C5_5  and  C6_6 
ROOT
HETATM    1  C1  UNL     1      -3.050   0.377 -20.147  1.00  0.00     0.012 C 
HETATM    2  C2  UNL     1      -2.325   0.233 -19.182  1.00  0.00    -0.117 C 
HETATM    3  C3  UNL     1      -1.472   0.058 -18.004  1.00  0.00     0.093 C 
ENDROOT
BRANCH   3   4
HETATM    4  C4  UNL     1      -0.029   0.486 -18.309  1.00  0.00     0.012 C 
BRANCH   4   5
HETATM    5  C5  UNL     1       0.416  -0.302 -19.490  1.00  0.00     0.007 C 
BRANCH   5   6
HETATM    6  C6  UNL     1       1.279  -1.476 -19.182  1.00  0.00     0.013 C 
HETATM    7  C7  UNL     1       1.928  -1.452 -17.840  1.00  0.00     0.034 C 
HETATM    8  C8  UNL     1       2.908  -2.596 -18.013  1.00  0.00     0.232 C 
HETATM    9  N1  UNL     1       3.268  -2.625 -19.396  1.00  0.00    -0.075 N 
HETATM   10  C9  UNL     1       2.469  -1.626 -20.088  1.00  0.00     0.237 C 
ATOM     11  H12 UNL     1       4.269  -2.502 -19.547  1.00  0.00     0.277 HD
ATOM     12  H11 UNL     1       3.180  -3.554 -19.808  1.00  0.00     0.277 HD
ENDBRANCH   5   6
ENDBRANCH   4   5
ENDBRANCH   3   4
TORSDOF 3
ENDMDL
MODEL 2
REMARK VINA RESULT: -5.685877193      0.868      1.471
REMARK  3 active torsions:
REMARK  status: ('A' for Active; 'I' for Inactive)
REMARK    1  A    between atoms: C3_3  and  C4_4 
REMARK    2  A    between atoms: C4_4  and  C5_5 
REMARK    3  A    between atoms: C5_5  and  C6_6 
ROOT
HETATM    1  C1  UNL     1      -2.614  -0.831 -17.136  1.00  0.00     0.012 C 
HETATM    2  C2  UNL     1      -2.394  -0.380 -18.242  1.00  0.00    -0.117 C 
HETATM    3  C3  UNL     1      -2.152   0.176 -19.575  1.00  0.00     0.093 C 
ENDROOT
BRANCH   3   4
HETATM    4  C4  UNL     1      -1.050  -0.611 -20.301  1.00  0.00     0.012 C 
BRANCH   4   5
HETATM    5  C5  UNL     1       0.239  -0.251 -19.651  1.00  0.00     0.007 C 
BRANCH   5   6
HETATM    6  C6  UNL     1       1.079  -1.404 -19.227  1.00  0.00     0.013 C 
HETATM    7  C7  UNL     1       1.571  -1.348 -17.820  1.00  0.00     0.034 C 
HETATM    8  C8  UNL     1       2.583  -2.477 -17.862  1.00  0.00     0.232 C 
HETATM    9  N1  UNL     1       3.098  -2.521 -19.195  1.00  0.00    -0.075 N 
HETATM   10  C9  UNL     1       2.367  -1.547 -19.989  1.00  0.00     0.237 C 
ATOM     11  H12 UNL     1       4.108  -2.383 -19.233  1.00  0.00     0.277 HD
ATOM     12  H11 UNL     1       3.072  -3.458 -19.597  1.00  0.00     0.277 HD
ENDBRANCH   5   6
ENDBRANCH   4   5
ENDBRANCH   3   4
TORSDOF 3
ENDMDL
MODEL 3
REMARK VINA RESULT: -5.632081359      2.327      3.645
REMARK  3 active torsions:
REMARK  status: ('A' for Active; 'I' for Inactive)
REMARK    1  A    between atoms: C3_3  and  C4_4 
REMARK    2  A    between atoms: C4_4  and  C5_5 
REMARK    3  A    between atoms: C5_5  and  C6_6 
ROOT
HETATM    1  C1  UNL     1       2.638  -1.533 -20.584  1.00  0.00     0.012 C 
HETATM    2  C2  UNL     1       1.620  -1.023 -20.160  1.00  0.00    -0.117 C 
HETATM    3  C3  UNL     1       0.385  -0.405 -19.671  1.00  0.00     0.093 C 
ENDROOT
BRANCH   3   4
HETATM    4  C4  UNL     1       0.544   0.051 -18.213  1.00  0.00     0.012 C 
BRANCH   4   5
HETATM    5  C5  UNL     1       0.714  -1.177 -17.391  1.00  0.00     0.007 C 
BRANCH   5   6
HETATM    6  C6  UNL     1       1.870  -1.158 -16.452  1.00  0.00     0.013 C 
HETATM    7  C7  UNL     1       3.092  -1.864 -16.934  1.00  0.00     0.034 C 
HETATM    8  C8  UNL     1       3.894  -1.885 -15.647  1.00  0.00     0.232 C 
HETATM    9  N1  UNL     1       2.951  -1.947 -14.574  1.00  0.00    -0.075 N 
HETATM   10  C9  UNL     1       1.617  -1.854 -15.144  1.00  0.00     0.237 C 
ATOM     11  H12 UNL     1       3.073  -2.774 -13.989  1.00  0.00     0.277 HD
ATOM     12  H11 UNL     1       3.124  -1.244 -13.855  1.00  0.00     0.277 HD
ENDBRANCH   5   6
ENDBRANCH   4   5
ENDBRANCH   3   4
TORSDOF 3
ENDMDL
MODEL 4
REMARK VINA RESULT: -5.626114392      0.674      1.430
REMARK  3 active torsions:
REMARK  status: ('A' for Active; 'I' for Inactive)
REMARK    1  A    between atoms: C3_3  and  C4_4 
REMARK    2  A    between atoms: C4_4  and  C5_5 
REMARK    3  A    between atoms: C5_5  and  C6_6 
ROOT
HETATM    1  C1  UNL     1      -2.779   0.335 -20.020  1.00  0.00     0.012 C 
HETATM    2  C2  UNL     1      -2.204   0.358 -18.951  1.00  0.00    -0.117 C 
HETATM    3  C3  UNL     1      -1.531   0.391 -17.650  1.00  0.00     0.093 C 
ENDROOT
BRANCH   3   4
HETATM    4  C4  UNL     1      -0.013   0.539 -17.825  1.00  0.00     0.012 C 
BRANCH   4   5
HETATM    5  C5  UNL     1       0.591  -0.780 -17.494  1.00  0.00     0.007 C 
BRANCH   5   6
HETATM    6  C6  UNL     1       1.787  -1.152 -18.300  1.00  0.00     0.013 C 
HETATM    7  C7  UNL     1       1.575  -1.175 -19.776  1.00  0.00     0.034 C 
HETATM    8  C8  UNL     1       2.861  -1.856 -20.204  1.00  0.00     0.232 C 
HETATM    9  N1  UNL     1       3.233  -2.739 -19.143  1.00  0.00    -0.075 N 
HETATM   10  C9  UNL     1       2.297  -2.543 -18.048  1.00  0.00     0.237 C 
ATOM     11  H12 UNL     1       3.293  -3.712 -19.441  1.00  0.00     0.277 HD
ATOM     12  H11 UNL     1       4.205  -2.624 -18.856  1.00  0.00     0.277 HD
ENDBRANCH   5   6
ENDBRANCH   4   5
ENDBRANCH   3   4
TORSDOF 3
ENDMDL
MODEL 5
REMARK VINA RESULT: -5.565000842      2.162      2.808
REMARK  3 active torsions:
REMARK  status: ('A' for Active; 'I' for Inactive)
REMARK    1  A    between atoms: C3_3  and  C4_4 
REMARK    2  A    between atoms: C4_4  and  C5_5 
REMARK    3  A    between atoms: C5_5  and  C6_6 
ROOT
HETATM    1  C1  UNL     1      -2.658   0.218 -19.857  1.00  0.00     0.012 C 
HETATM    2  C2  UNL     1      -1.464   0.054 -19.705  1.00  0.00    -0.117 C 
HETATM    3  C3  UNL     1      -0.022  -0.151 -19.547  1.00  0.00     0.093 C 
ENDROOT
BRANCH   3   4
HETATM    4  C4  UNL     1       0.356  -0.229 -18.060  1.00  0.00     0.012 C 
BRANCH   4   5
HETATM    5  C5  UNL     1       1.427  -1.255 -17.940  1.00  0.00     0.007 C 
BRANCH   5   6
HETATM    6  C6  UNL     1       2.209  -1.211 -16.674  1.00  0.00     0.013 C 
HETATM    7  C7  UNL     1       3.443  -2.048 -16.660  1.00  0.00     0.034 C 
HETATM    8  C8  UNL     1       3.776  -1.982 -15.182  1.00  0.00     0.232 C 
HETATM    9  N1  UNL     1       2.534  -1.860 -14.484  1.00  0.00    -0.075 N 
HETATM   10  C9  UNL     1       1.475  -1.739 -15.473  1.00  0.00     0.237 C 
ATOM     11  H12 UNL     1       2.374  -2.623 -13.827  1.00  0.00     0.277 HD
ATOM     12  H11 UNL     1       2.534  -1.095 -13.809  1.00  0.00     0.277 HD
ENDBRANCH   5   6
ENDBRANCH   4   5
ENDBRANCH   3   4
TORSDOF 3
ENDMDL
