MODEL 1
REMARK VINA RESULT: -5.632753919      0.000      0.000
REMARK  6 active torsions:
REMARK  status: ('A' for Active; 'I' for Inactive)
REMARK    1  A    between atoms: C2_2  and  C3_3 
REMARK    2  A    between atoms: C3_3  and  C4_4 
REMARK    3  A    between atoms: C4_4  and  C5_5 
REMARK    4  A    between atoms: C5_5  and  C6_6 
REMARK    5  A    between atoms: C7_7  and  C8_8 
REMARK    6  A    between atoms: C9_9  and  N1_10 
ROOT
HETATM    1  C6  UNL     1       0.565  -0.569 -18.765  1.00  0.00    -0.092 C 
HETATM    2  C7  UNL     1       1.044  -0.885 -17.699  1.00  0.00    -0.013 C 
ENDROOT
BRANCH   2   3
HETATM    3  C8  UNL     1       1.585  -1.267 -16.448  1.00  0.00     0.009 C 
HETATM    4  C9  UNL     1       2.033  -1.603 -15.367  1.00  0.00     0.040 C 
BRANCH   4   5
HETATM    5  N1  UNL     1       2.528  -1.998 -14.119  1.00  0.00    -0.264 N 
HETATM    6  N2  UNL     1       3.754  -2.313 -14.048  1.00  0.00    -0.338 N 
ATOM      7  H22 UNL     1       4.343  -2.276 -14.879  1.00  0.00     0.177 HD
ATOM      8  H21 UNL     1       4.114  -2.601 -13.138  1.00  0.00     0.177 HD
ATOM      9  H1  UNL     1       1.925  -2.030 -13.298  1.00  0.00     0.197 HD
ENDBRANCH   4   5
ENDBRANCH   2   3
BRANCH   1  10
HETATM   10  C5  UNL     1      -0.039  -0.190 -20.043  1.00  0.00     0.095 C 
BRANCH  10  11
HETATM   11  C4  UNL     1      -1.442  -0.734 -20.186  1.00  0.00     0.012 C 
BRANCH  11  12
HETATM   12  C3  UNL     1      -2.377   0.382 -19.723  1.00  0.00     0.000 C 
BRANCH  12  13
HETATM   13  C2  UNL     1      -3.105  -0.010 -18.457  1.00  0.00    -0.005 C 
HETATM   14  C1  UNL     1      -2.521   0.823 -17.335  1.00  0.00     0.005 C 
ENDBRANCH  12  13
ENDBRANCH  11  12
ENDBRANCH  10  11
ENDBRANCH   1  10
TORSDOF 6
ENDMDL
MODEL 2
REMARK VINA RESULT: -5.472832102      0.697      1.138
REMARK  6 active torsions:
REMARK  status: ('A' for Active; 'I' for Inactive)
REMARK    1  A    between atoms: C2_2  and  C3_3 
REMARK    2  A    between atoms: C3_3  and  C4_4 
REMARK    3  A    between atoms: C4_4  and  C5_5 
REMARK    4  A    between atoms: C5_5  and  C6_6 
REMARK    5  A    between atoms: C7_7  and  C8_8 
REMARK    6  A    between atoms: C9_9  and  N1_10 
ROOT
HETATM    1  C6  UNL     1       0.659  -0.562 -18.623  1.00  0.00    -0.092 C 
HETATM    2  C7  UNL     1       1.101  -0.943 -17.562  1.00  0.00    -0.013 C 
ENDROOT
BRANCH   2   3
HETATM    3  C8  UNL     1       1.616  -1.367 -16.314  1.00  0.00     0.009 C 
HETATM    4  C9  UNL     1       2.074  -1.718 -15.242  1.00  0.00     0.040 C 
BRANCH   4   5
HETATM    5  N1  UNL     1       2.617  -2.109 -14.013  1.00  0.00    -0.264 N 
HETATM    6  N2  UNL     1       3.876  -2.236 -13.943  1.00  0.00    -0.338 N 
ATOM      7  H22 UNL     1       4.458  -2.057 -14.762  1.00  0.00     0.177 HD
ATOM      8  H21 UNL     1       4.272  -2.521 -13.047  1.00  0.00     0.177 HD
ATOM      9  H1  UNL     1       2.022  -2.285 -13.204  1.00  0.00     0.197 HD
ENDBRANCH   4   5
ENDBRANCH   2   3
BRANCH   1  10
HETATM   10  C5  UNL     1       0.134  -0.077 -19.900  1.00  0.00     0.095 C 
BRANCH  10  11
HETATM   11  C4  UNL     1      -1.113  -0.823 -20.316  1.00  0.00     0.012 C 
BRANCH  11  12
HETATM   12  C3  UNL     1      -2.039  -0.809 -19.102  1.00  0.00     0.000 C 
BRANCH  12  13
HETATM   13  C2  UNL     1      -2.964   0.386 -19.138  1.00  0.00    -0.005 C 
HETATM   14  C1  UNL     1      -3.370   0.587 -20.583  1.00  0.00     0.005 C 
ENDBRANCH  12  13
ENDBRANCH  11  12
ENDBRANCH  10  11
ENDBRANCH   1  10
TORSDOF 6
ENDMDL
MODEL 3
REMARK VINA RESULT: -5.466942099      4.241      6.158
REMARK  6 active torsions:
REMARK  status: ('A' for Active; 'I' for Inactive)
REMARK    1  A    between atoms: C2_2  and  C3_3 
REMARK    2  A    between atoms: C3_3  and  C4_4 
REMARK    3  A    between atoms: C4_4  and  C5_5 
REMARK    4  A    between atoms: C5_5  and  C6_6 
REMARK    5  A    between atoms: C7_7  and  C8_8 
REMARK    6  A    between atoms: C9_9  and  N1_10 
ROOT
HETATM    1  C6  UNL     1       1.456  -1.176 -19.843  1.00  0.00    -0.092 C 
HETATM    2  C7  UNL     1       0.328  -0.735 -19.835  1.00  0.00    -0.013 C 
ENDROOT
BRANCH   2   3
HETATM    3  C8  UNL     1      -0.995  -0.232 -19.846  1.00  0.00     0.009 C 
HETATM    4  C9  UNL     1      -2.139   0.184 -19.857  1.00  0.00     0.040 C 
BRANCH   4   5
HETATM    5  N1  UNL     1      -3.461   0.640 -19.874  1.00  0.00    -0.264 N 
HETATM    6  N2  UNL     1      -3.973   0.911 -21.001  1.00  0.00    -0.338 N 
ATOM      7  H22 UNL     1      -3.428   0.795 -21.855  1.00  0.00     0.177 HD
ATOM      8  H21 UNL     1      -4.937   1.244 -21.013  1.00  0.00     0.177 HD
ATOM      9  H1  UNL     1      -3.993   0.751 -19.011  1.00  0.00     0.197 HD
ENDBRANCH   4   5
ENDBRANCH   2   3
BRANCH   1  10
HETATM   10  C5  UNL     1       2.817  -1.713 -19.879  1.00  0.00     0.095 C 
BRANCH  10  11
HETATM   11  C4  UNL     1       3.160  -2.461 -18.611  1.00  0.00     0.012 C 
BRANCH  11  12
HETATM   12  C3  UNL     1       2.407  -1.753 -17.486  1.00  0.00     0.000 C 
BRANCH  12  13
HETATM   13  C2  UNL     1       3.313  -1.496 -16.303  1.00  0.00    -0.005 C 
HETATM   14  C1  UNL     1       2.520  -1.830 -15.057  1.00  0.00     0.005 C 
ENDBRANCH  12  13
ENDBRANCH  11  12
ENDBRANCH  10  11
ENDBRANCH   1  10
TORSDOF 6
ENDMDL
MODEL 4
REMARK VINA RESULT: -5.327900594      2.089      2.288
REMARK  6 active torsions:
REMARK  status: ('A' for Active; 'I' for Inactive)
REMARK    1  A    between atoms: C2_2  and  C3_3 
REMARK    2  A    between atoms: C3_3  and  C4_4 
REMARK    3  A    between atoms: C4_4  and  C5_5 
REMARK    4  A    between atoms: C5_5  and  C6_6 
REMARK    5  A    between atoms: C7_7  and  C8_8 
REMARK    6  A    between atoms: C9_9  and  N1_10 
ROOT
HETATM    1  C6  UNL     1       1.130  -1.170 -19.026  1.00  0.00    -0.092 C 
HETATM    2  C7  UNL     1       1.765  -1.939 -18.341  1.00  0.00    -0.013 C 
ENDROOT
BRANCH   2   3
HETATM    3  C8  UNL     1       2.489  -2.840 -17.523  1.00  0.00     0.009 C 
HETATM    4  C9  UNL     1       3.098  -3.627 -16.822  1.00  0.00     0.040 C 
BRANCH   4   5
HETATM    5  N1  UNL     1       3.780  -4.545 -16.017  1.00  0.00    -0.264 N 
HETATM    6  N2  UNL     1       3.348  -5.736 -15.991  1.00  0.00    -0.338 N 
ATOM      7  H22 UNL     1       2.530  -5.999 -16.542  1.00  0.00     0.177 HD
ATOM      8  H21 UNL     1       3.845  -6.406 -15.404  1.00  0.00     0.177 HD
ATOM      9  H1  UNL     1       4.596  -4.267 -15.472  1.00  0.00     0.197 HD
ENDBRANCH   4   5
ENDBRANCH   2   3
BRANCH   1  10
HETATM   10  C5  UNL     1       0.347  -0.233 -19.835  1.00  0.00     0.095 C 
BRANCH  10  11
HETATM   11  C4  UNL     1      -1.025   0.005 -19.249  1.00  0.00     0.012 C 
BRANCH  11  12
HETATM   12  C3  UNL     1      -0.798   0.687 -17.901  1.00  0.00     0.000 C 
BRANCH  12  13
HETATM   13  C2  UNL     1      -1.575  -0.006 -16.805  1.00  0.00    -0.005 C 
HETATM   14  C1  UNL     1      -2.608  -0.883 -17.480  1.00  0.00     0.005 C 
ENDBRANCH  12  13
ENDBRANCH  11  12
ENDBRANCH  10  11
ENDBRANCH   1  10
TORSDOF 6
ENDMDL
MODEL 5
REMARK VINA RESULT: -5.261455155      4.619      6.814
REMARK  6 active torsions:
REMARK  status: ('A' for Active; 'I' for Inactive)
REMARK    1  A    between atoms: C2_2  and  C3_3 
REMARK    2  A    between atoms: C3_3  and  C4_4 
REMARK    3  A    between atoms: C4_4  and  C5_5 
REMARK    4  A    between atoms: C5_5  and  C6_6 
REMARK    5  A    between atoms: C7_7  and  C8_8 
REMARK    6  A    between atoms: C9_9  and  N1_10 
ROOT
HETATM    1  C6  UNL     1       1.380  -1.347 -19.336  1.00  0.00    -0.092 C 
HETATM    2  C7  UNL     1       0.277  -0.860 -19.447  1.00  0.00    -0.013 C 
ENDROOT
BRANCH   2   3
HETATM    3  C8  UNL     1      -1.019  -0.302 -19.555  1.00  0.00     0.009 C 
HETATM    4  C9  UNL     1      -2.141   0.162 -19.648  1.00  0.00     0.040 C 
BRANCH   4   5
HETATM    5  N1  UNL     1      -3.439   0.673 -19.757  1.00  0.00    -0.264 N 
HETATM    6  N2  UNL     1      -3.901   0.855 -20.922  1.00  0.00    -0.338 N 
ATOM      7  H22 UNL     1      -3.335   0.633 -21.741  1.00  0.00     0.177 HD
ATOM      8  H21 UNL     1      -4.847   1.229 -21.001  1.00  0.00     0.177 HD
ATOM      9  H1  UNL     1      -3.992   0.891 -18.928  1.00  0.00     0.197 HD
ENDBRANCH   4   5
ENDBRANCH   2   3
BRANCH   1  10
HETATM   10  C5  UNL     1       2.704  -1.953 -19.185  1.00  0.00     0.095 C 
BRANCH  10  11
HETATM   11  C4  UNL     1       2.866  -2.625 -17.841  1.00  0.00     0.012 C 
BRANCH  11  12
HETATM   12  C3  UNL     1       4.365  -2.859 -17.663  1.00  0.00     0.000 C 
BRANCH  12  13
HETATM   13  C2  UNL     1       4.704  -4.327 -17.788  1.00  0.00    -0.005 C 
HETATM   14  C1  UNL     1       4.186  -5.008 -16.539  1.00  0.00     0.005 C 
ENDBRANCH  12  13
ENDBRANCH  11  12
ENDBRANCH  10  11
ENDBRANCH   1  10
TORSDOF 6
ENDMDL
