MODEL 1
REMARK VINA RESULT: -4.733040749      0.000      0.000
REMARK  4 active torsions:
REMARK  status: ('A' for Active; 'I' for Inactive)
REMARK    1  A    between atoms: N1_1  and  C1_5 
REMARK    2  A    between atoms: C1_5  and  C2_6 
REMARK    3  A    between atoms: C2_6  and  C3_7 
REMARK    4  A    between atoms: C3_7  and  N2_8 
ROOT
HETATM    1  C3  UNL     1       4.856  -3.844 -17.475  1.00  0.00     0.123 C 
ENDROOT
BRANCH   1   2
HETATM    2  C2  UNL     1       3.903  -4.964 -17.916  1.00  0.00     0.047 C 
BRANCH   2   3
HETATM    3  C1  UNL     1       3.659  -5.915 -16.750  1.00  0.00     0.231 C 
BRANCH   3   4
HETATM    4  N1  UNL     1       2.366  -5.649 -16.206  1.00  0.00    -0.079 N 
ATOM      5  H13 UNL     1       2.000  -4.743 -16.496  1.00  0.00     0.274 HD
ATOM      6  H12 UNL     1       1.641  -6.234 -16.621  1.00  0.00     0.274 HD
ATOM      7  H11 UNL     1       2.413  -5.745 -15.192  1.00  0.00     0.274 HD
ENDBRANCH   3   4
ENDBRANCH   2   3
ENDBRANCH   1   2
BRANCH   1   8
HETATM    8  N2  UNL     1       4.148  -2.625 -17.622  1.00  0.00    -0.393 N 
HETATM    9  C4  UNL     1       3.311  -2.446 -18.725  1.00  0.00     0.058 C 
HETATM   10  C5  UNL     1       1.953  -1.889 -18.492  1.00  0.00     0.044 C 
HETATM   11  C6  UNL     1       1.713  -1.284 -17.159  1.00  0.00     0.007 C 
HETATM   12  C7  UNL     1       2.477  -2.006 -16.067  1.00  0.00     0.020 C 
HETATM   13  C8  UNL     1       3.944  -1.826 -16.481  1.00  0.00     0.122 C 
ENDBRANCH   1   8
TORSDOF 4
ENDMDL
MODEL 2
REMARK VINA RESULT: -4.721265876      1.115      1.875
REMARK  4 active torsions:
REMARK  status: ('A' for Active; 'I' for Inactive)
REMARK    1  A    between atoms: N1_1  and  C1_5 
REMARK    2  A    between atoms: C1_5  and  C2_6 
REMARK    3  A    between atoms: C2_6  and  C3_7 
REMARK    4  A    between atoms: C3_7  and  N2_8 
ROOT
HETATM    1  C3  UNL     1       2.779  -3.404 -16.725  1.00  0.00     0.123 C 
ENDROOT
BRANCH   1   2
HETATM    2  C2  UNL     1       3.980  -4.277 -17.116  1.00  0.00     0.047 C 
BRANCH   2   3
HETATM    3  C1  UNL     1       3.891  -5.618 -16.398  1.00  0.00     0.231 C 
BRANCH   3   4
HETATM    4  N1  UNL     1       2.515  -5.933 -16.186  1.00  0.00    -0.079 N 
ATOM      5  H13 UNL     1       2.095  -5.369 -15.448  1.00  0.00     0.274 HD
ATOM      6  H12 UNL     1       1.921  -5.623 -16.955  1.00  0.00     0.274 HD
ATOM      7  H11 UNL     1       2.432  -6.934 -16.007  1.00  0.00     0.274 HD
ENDBRANCH   3   4
ENDBRANCH   2   3
ENDBRANCH   1   2
BRANCH   1   8
HETATM    8  N2  UNL     1       2.783  -2.290 -17.602  1.00  0.00    -0.393 N 
HETATM    9  C4  UNL     1       3.509  -2.355 -18.792  1.00  0.00     0.058 C 
HETATM   10  C5  UNL     1       2.850  -1.894 -20.042  1.00  0.00     0.044 C 
HETATM   11  C6  UNL     1       1.596  -1.119 -19.875  1.00  0.00     0.007 C 
HETATM   12  C7  UNL     1       0.795  -1.597 -18.679  1.00  0.00     0.020 C 
HETATM   13  C8  UNL     1       1.740  -1.350 -17.496  1.00  0.00     0.122 C 
ENDBRANCH   1   8
TORSDOF 4
ENDMDL
MODEL 3
REMARK VINA RESULT: -4.697611491      2.952      4.192
REMARK  4 active torsions:
REMARK  status: ('A' for Active; 'I' for Inactive)
REMARK    1  A    between atoms: N1_1  and  C1_5 
REMARK    2  A    between atoms: C1_5  and  C2_6 
REMARK    3  A    between atoms: C2_6  and  C3_7 
REMARK    4  A    between atoms: C3_7  and  N2_8 
ROOT
HETATM    1  C3  UNL     1       1.938  -0.833 -16.916  1.00  0.00     0.123 C 
ENDROOT
BRANCH   1   2
HETATM    2  C2  UNL     1       1.941  -1.761 -15.692  1.00  0.00     0.047 C 
BRANCH   2   3
HETATM    3  C1  UNL     1       3.378  -2.068 -15.289  1.00  0.00     0.231 C 
BRANCH   3   4
HETATM    4  N1  UNL     1       3.419  -2.298 -13.880  1.00  0.00    -0.079 N 
ATOM      5  H13 UNL     1       2.881  -3.119 -13.603  1.00  0.00     0.274 HD
ATOM      6  H12 UNL     1       4.335  -2.616 -13.563  1.00  0.00     0.274 HD
ATOM      7  H11 UNL     1       3.113  -1.451 -13.402  1.00  0.00     0.274 HD
ENDBRANCH   3   4
ENDBRANCH   2   3
ENDBRANCH   1   2
BRANCH   1   8
HETATM    8  N2  UNL     1       0.695  -1.027 -17.571  1.00  0.00    -0.393 N 
HETATM    9  C4  UNL     1      -0.443  -0.381 -17.088  1.00  0.00     0.058 C 
HETATM   10  C5  UNL     1      -1.329   0.305 -18.066  1.00  0.00     0.044 C 
HETATM   11  C6  UNL     1      -1.097  -0.015 -19.496  1.00  0.00     0.007 C 
HETATM   12  C7  UNL     1       0.370  -0.267 -19.786  1.00  0.00     0.020 C 
HETATM   13  C8  UNL     1       0.704  -1.477 -18.905  1.00  0.00     0.122 C 
ENDBRANCH   1   8
TORSDOF 4
ENDMDL
MODEL 4
REMARK VINA RESULT: -4.686234974      1.885      4.817
REMARK  4 active torsions:
REMARK  status: ('A' for Active; 'I' for Inactive)
REMARK    1  A    between atoms: N1_1  and  C1_5 
REMARK    2  A    between atoms: C1_5  and  C2_6 
REMARK    3  A    between atoms: C2_6  and  C3_7 
REMARK    4  A    between atoms: C3_7  and  N2_8 
ROOT
HETATM    1  C3  UNL     1       4.252  -5.195 -18.071  1.00  0.00     0.123 C 
ENDROOT
BRANCH   1   2
HETATM    2  C2  UNL     1       3.900  -4.025 -17.141  1.00  0.00     0.047 C 
BRANCH   2   3
HETATM    3  C1  UNL     1       3.945  -2.719 -17.925  1.00  0.00     0.231 C 
BRANCH   3   4
HETATM    4  N1  UNL     1       3.208  -2.888 -19.137  1.00  0.00    -0.079 N 
ATOM      5  H13 UNL     1       2.211  -3.024 -18.971  1.00  0.00     0.274 HD
ATOM      6  H12 UNL     1       3.144  -2.026 -19.678  1.00  0.00     0.274 HD
ATOM      7  H11 UNL     1       3.623  -3.653 -19.668  1.00  0.00     0.274 HD
ENDBRANCH   3   4
ENDBRANCH   2   3
ENDBRANCH   1   2
BRANCH   1   8
HETATM    8  N2  UNL     1       3.438  -6.287 -17.678  1.00  0.00    -0.393 N 
HETATM    9  C4  UNL     1       3.508  -7.486 -18.387  1.00  0.00     0.058 C 
HETATM   10  C5  UNL     1       3.605  -8.753 -17.616  1.00  0.00     0.044 C 
HETATM   11  C6  UNL     1       3.310  -8.661 -16.165  1.00  0.00     0.007 C 
HETATM   12  C7  UNL     1       3.758  -7.335 -15.582  1.00  0.00     0.020 C 
HETATM   13  C8  UNL     1       2.931  -6.305 -16.364  1.00  0.00     0.122 C 
ENDBRANCH   1   8
TORSDOF 4
ENDMDL
MODEL 5
REMARK VINA RESULT: -4.638916709      3.404      4.861
REMARK  4 active torsions:
REMARK  status: ('A' for Active; 'I' for Inactive)
REMARK    1  A    between atoms: N1_1  and  C1_5 
REMARK    2  A    between atoms: C1_5  and  C2_6 
REMARK    3  A    between atoms: C2_6  and  C3_7 
REMARK    4  A    between atoms: C3_7  and  N2_8 
ROOT
HETATM    1  C3  UNL     1       1.041  -0.724 -17.669  1.00  0.00     0.123 C 
ENDROOT
BRANCH   1   2
HETATM    2  C2  UNL     1       1.283  -1.926 -18.593  1.00  0.00     0.047 C 
BRANCH   2   3
HETATM    3  C1  UNL     1       2.778  -2.086 -18.841  1.00  0.00     0.231 C 
BRANCH   3   4
HETATM    4  N1  UNL     1       3.013  -2.068 -20.249  1.00  0.00    -0.079 N 
ATOM      5  H13 UNL     1       3.949  -2.390 -20.492  1.00  0.00     0.274 HD
ATOM      6  H12 UNL     1       2.484  -2.788 -20.742  1.00  0.00     0.274 HD
ATOM      7  H11 UNL     1       2.819  -1.131 -20.601  1.00  0.00     0.274 HD
ENDBRANCH   3   4
ENDBRANCH   2   3
ENDBRANCH   1   2
BRANCH   1   8
HETATM    8  N2  UNL     1       0.057   0.081 -18.297  1.00  0.00    -0.393 N 
HETATM    9  C4  UNL     1      -0.288  -0.169 -19.626  1.00  0.00     0.058 C 
HETATM   10  C5  UNL     1      -1.732  -0.212 -19.979  1.00  0.00     0.044 C 
HETATM   11  C6  UNL     1      -2.672   0.318 -18.961  1.00  0.00     0.007 C 
HETATM   12  C7  UNL     1      -2.186   0.044 -17.551  1.00  0.00     0.020 C 
HETATM   13  C8  UNL     1      -0.847   0.791 -17.484  1.00  0.00     0.122 C 
ENDBRANCH   1   8
TORSDOF 4
ENDMDL
