MODEL 1
REMARK VINA RESULT: -5.491974460      0.000      0.000
REMARK  4 active torsions:
REMARK  status: ('A' for Active; 'I' for Inactive)
REMARK    1  A    between atoms: C3_3  and  O1_4 
REMARK    2  A    between atoms: O1_4  and  C4_5 
REMARK    3  A    between atoms: C4_5  and  C5_6 
REMARK    4  A    between atoms: C5_6  and  C6_7 
ROOT
HETATM    1  C1  UNL     1       2.709  -1.547 -20.612  1.00  0.00     0.014 C 
HETATM    2  C2  UNL     1       3.047  -1.992 -19.535  1.00  0.00    -0.091 C 
HETATM    3  C3  UNL     1       3.430  -2.527 -18.234  1.00  0.00     0.260 C 
ENDROOT
BRANCH   3   4
HETATM    4  O1  UNL     1       3.314  -3.891 -18.148  1.00  0.00    -0.379 OA
BRANCH   4   5
HETATM    5  C4  UNL     1       2.970  -4.351 -16.899  1.00  0.00     0.169 C 
BRANCH   5   6
HETATM    6  C5  UNL     1       3.897  -5.505 -16.542  1.00  0.00     0.035 C 
BRANCH   6   7
HETATM    7  C6  UNL     1       3.148  -6.776 -16.266  1.00  0.00     0.051 A 
HETATM    8  C7  UNL     1       1.809  -6.922 -16.917  1.00  0.00     0.280 A 
HETATM    9  N1  UNL     1       2.258  -8.018 -17.753  1.00  0.00     0.097 N 
HETATM   10  C8  UNL     1       3.414  -7.764 -18.584  1.00  0.00     0.309 A 
HETATM   11  C9  UNL     1       3.583  -7.924 -17.143  1.00  0.00     0.257 A 
ENDBRANCH   6   7
ENDBRANCH   5   6
ENDBRANCH   4   5
ENDBRANCH   3   4
TORSDOF 4
ENDMDL
MODEL 2
REMARK VINA RESULT: -5.436460878      4.396      6.331
REMARK  4 active torsions:
REMARK  status: ('A' for Active; 'I' for Inactive)
REMARK    1  A    between atoms: C3_3  and  O1_4 
REMARK    2  A    between atoms: O1_4  and  C4_5 
REMARK    3  A    between atoms: C4_5  and  C5_6 
REMARK    4  A    between atoms: C5_6  and  C6_7 
ROOT
HETATM    1  C1  UNL     1       2.687  -1.500 -20.700  1.00  0.00     0.014 C 
HETATM    2  C2  UNL     1       2.965  -1.986 -19.623  1.00  0.00    -0.091 C 
HETATM    3  C3  UNL     1       3.304  -2.547 -18.321  1.00  0.00     0.260 C 
ENDROOT
BRANCH   3   4
HETATM    4  O1  UNL     1       2.282  -2.467 -17.409  1.00  0.00    -0.379 OA
BRANCH   4   5
HETATM    5  C4  UNL     1       2.147  -1.234 -16.818  1.00  0.00     0.169 C 
BRANCH   5   6
HETATM    6  C5  UNL     1       0.664  -0.898 -16.745  1.00  0.00     0.035 C 
BRANCH   6   7
HETATM    7  C6  UNL     1       0.293   0.250 -17.639  1.00  0.00     0.051 A 
HETATM    8  C7  UNL     1      -0.330  -0.097 -18.954  1.00  0.00     0.280 A 
HETATM    9  N1  UNL     1      -1.600   0.498 -18.588  1.00  0.00     0.097 N 
HETATM   10  C8  UNL     1      -2.215   0.010 -17.374  1.00  0.00     0.309 A 
HETATM   11  C9  UNL     1      -1.037   0.869 -17.290  1.00  0.00     0.257 A 
ENDBRANCH   6   7
ENDBRANCH   5   6
ENDBRANCH   4   5
ENDBRANCH   3   4
TORSDOF 4
ENDMDL
MODEL 3
REMARK VINA RESULT: -5.406275420      1.404      2.074
REMARK  4 active torsions:
REMARK  status: ('A' for Active; 'I' for Inactive)
REMARK    1  A    between atoms: C3_3  and  O1_4 
REMARK    2  A    between atoms: O1_4  and  C4_5 
REMARK    3  A    between atoms: C4_5  and  C5_6 
REMARK    4  A    between atoms: C5_6  and  C6_7 
ROOT
HETATM    1  C1  UNL     1       0.667  -0.758 -19.505  1.00  0.00     0.014 C 
HETATM    2  C2  UNL     1       1.707  -1.251 -19.890  1.00  0.00    -0.091 C 
HETATM    3  C3  UNL     1       2.969  -1.830 -20.336  1.00  0.00     0.260 C 
ENDROOT
BRANCH   3   4
HETATM    4  O1  UNL     1       3.350  -2.932 -19.612  1.00  0.00    -0.379 OA
BRANCH   4   5
HETATM    5  C4  UNL     1       3.645  -2.669 -18.296  1.00  0.00     0.169 C 
BRANCH   5   6
HETATM    6  C5  UNL     1       4.524  -3.794 -17.768  1.00  0.00     0.035 C 
BRANCH   6   7
HETATM    7  C6  UNL     1       3.891  -4.525 -16.620  1.00  0.00     0.051 A 
HETATM    8  C7  UNL     1       2.426  -4.805 -16.728  1.00  0.00     0.280 A 
HETATM    9  N1  UNL     1       2.634  -6.237 -16.804  1.00  0.00     0.097 N 
HETATM   10  C8  UNL     1       3.513  -6.706 -17.852  1.00  0.00     0.309 A 
HETATM   11  C9  UNL     1       4.076  -6.020 -16.693  1.00  0.00     0.257 A 
ENDBRANCH   6   7
ENDBRANCH   5   6
ENDBRANCH   4   5
ENDBRANCH   3   4
TORSDOF 4
ENDMDL
MODEL 4
REMARK VINA RESULT: -5.376481981      3.737      6.364
REMARK  4 active torsions:
REMARK  status: ('A' for Active; 'I' for Inactive)
REMARK    1  A    between atoms: C3_3  and  O1_4 
REMARK    2  A    between atoms: O1_4  and  C4_5 
REMARK    3  A    between atoms: C4_5  and  C5_6 
REMARK    4  A    between atoms: C5_6  and  C6_7 
ROOT
HETATM    1  C1  UNL     1       4.574  -4.955 -17.547  1.00  0.00     0.014 C 
HETATM    2  C2  UNL     1       4.114  -3.913 -17.964  1.00  0.00    -0.091 C 
HETATM    3  C3  UNL     1       3.582  -2.654 -18.473  1.00  0.00     0.260 C 
ENDROOT
BRANCH   3   4
HETATM    4  O1  UNL     1       3.302  -2.682 -19.816  1.00  0.00    -0.379 OA
BRANCH   4   5
HETATM    5  C4  UNL     1       2.534  -1.631 -20.255  1.00  0.00     0.169 C 
BRANCH   5   6
HETATM    6  C5  UNL     1       1.368  -1.454 -19.292  1.00  0.00     0.035 C 
BRANCH   6   7
HETATM    7  C6  UNL     1       0.496  -0.288 -19.657  1.00  0.00     0.051 A 
HETATM    8  C7  UNL     1      -0.952  -0.580 -19.893  1.00  0.00     0.280 A 
HETATM    9  N1  UNL     1      -1.366   0.182 -18.732  1.00  0.00     0.097 N 
HETATM   10  C8  UNL     1      -0.775  -0.194 -17.467  1.00  0.00     0.309 A 
HETATM   11  C9  UNL     1       0.034   0.506 -18.461  1.00  0.00     0.257 A 
ENDBRANCH   6   7
ENDBRANCH   5   6
ENDBRANCH   4   5
ENDBRANCH   3   4
TORSDOF 4
ENDMDL
MODEL 5
REMARK VINA RESULT: -5.304308386      1.389      2.145
REMARK  4 active torsions:
REMARK  status: ('A' for Active; 'I' for Inactive)
REMARK    1  A    between atoms: C3_3  and  O1_4 
REMARK    2  A    between atoms: O1_4  and  C4_5 
REMARK    3  A    between atoms: C4_5  and  C5_6 
REMARK    4  A    between atoms: C5_6  and  C6_7 
ROOT
HETATM    1  C1  UNL     1       2.217  -1.888 -15.596  1.00  0.00     0.014 C 
HETATM    2  C2  UNL     1       2.465  -2.025 -16.776  1.00  0.00    -0.091 C 
HETATM    3  C3  UNL     1       2.786  -2.184 -18.189  1.00  0.00     0.260 C 
ENDROOT
BRANCH   3   4
HETATM    4  O1  UNL     1       3.327  -3.408 -18.493  1.00  0.00    -0.379 OA
BRANCH   4   5
HETATM    5  C4  UNL     1       4.454  -3.721 -17.772  1.00  0.00     0.169 C 
BRANCH   5   6
HETATM    6  C5  UNL     1       4.454  -5.221 -17.510  1.00  0.00     0.035 C 
BRANCH   6   7
HETATM    7  C6  UNL     1       3.546  -5.604 -16.377  1.00  0.00     0.051 A 
HETATM    8  C7  UNL     1       2.210  -6.166 -16.747  1.00  0.00     0.280 A 
HETATM    9  N1  UNL     1       2.530  -7.470 -16.202  1.00  0.00     0.097 N 
HETATM   10  C8  UNL     1       3.722  -8.109 -16.714  1.00  0.00     0.309 A 
HETATM   11  C9  UNL     1       3.847  -6.969 -15.810  1.00  0.00     0.257 A 
ENDBRANCH   6   7
ENDBRANCH   5   6
ENDBRANCH   4   5
ENDBRANCH   3   4
TORSDOF 4
ENDMDL
