MODEL 1
REMARK VINA RESULT: -8.984564064      0.000      0.000
REMARK  14 active torsions:
REMARK  status: ('A' for Active; 'I' for Inactive)
REMARK    1  A    between atoms: C4_5  and  O2_6 
REMARK    2  A    between atoms: O2_6  and  C5_7 
REMARK    3  A    between atoms: C7_10  and  O4_11 
REMARK    4  A    between atoms: O4_11  and  C8_12 
REMARK    5  A    between atoms: C8_12  and  C9_13 
REMARK    6  A    between atoms: C9_13  and  C10_14 
REMARK    7  A    between atoms: C10_14  and  C11_15 
REMARK    8  A    between atoms: C11_15  and  C12_16 
REMARK    9  A    between atoms: C17_21  and  O5_22 
REMARK   10  A    between atoms: C18_24  and  O6_25 
REMARK   11  A    between atoms: C19_27  and  O7_28 
REMARK   12  A    between atoms: C20_31  and  C21_32 
REMARK   13  A    between atoms: C21_32  and  O9_33 
REMARK   14  A    between atoms: C22_35  and  O10_36 
ROOT
HETATM    1  C5  UNL     1      -1.552  -0.244  17.793  1.00  0.00     0.182 C 
HETATM    2  C6  UNL     1      -0.781  -0.414  16.498  1.00  0.00     0.205 C 
HETATM    3  O3  UNL     1       0.294   0.442  16.398  1.00  0.00    -0.356 OA
HETATM    4  C7  UNL     1      -0.090   1.784  16.401  1.00  0.00     0.290 C 
HETATM    5  C18 UNL     1      -0.705   2.036  17.766  1.00  0.00     0.204 C 
HETATM    6  C19 UNL     1      -1.959   1.221  17.871  1.00  0.00     0.183 C 
ENDROOT
BRANCH   1   7
HETATM    7  O2  UNL     1      -0.813  -0.640  18.880  1.00  0.00    -0.329 OA
BRANCH   7   8
HETATM    8  C4  UNL     1      -1.482  -1.574  19.653  1.00  0.00     0.414 C 
HETATM    9  O1  UNL     1      -2.832  -1.471  19.363  1.00  0.00    -0.326 OA
HETATM   10  C2  UNL     1      -3.556  -2.578  19.733  1.00  0.00     0.087 C 
HETATM   11  C1  UNL     1      -3.415  -2.893  21.199  1.00  0.00     0.048 C 
HETATM   12  C3  UNL     1      -5.027  -2.291  19.471  1.00  0.00     0.048 C 
HETATM   13  C22 UNL     1      -3.130  -3.723  18.846  1.00  0.00     0.183 C 
HETATM   14  C20 UNL     1      -1.644  -3.626  18.590  1.00  0.00     0.182 C 
HETATM   15  O8  UNL     1      -0.984  -2.853  19.515  1.00  0.00    -0.329 OA
BRANCH  13  16
HETATM   16  O10 UNL     1      -3.767  -3.584  17.599  1.00  0.00    -0.390 OA
ATOM     17  H10 UNL     1      -3.246  -3.004  17.056  1.00  0.00     0.210 HD
ENDBRANCH  13  16
BRANCH  14  18
HETATM   18  C21 UNL     1      -1.092  -5.038  18.698  1.00  0.00     0.199 C 
BRANCH  18  19
HETATM   19  O9  UNL     1       0.095  -5.048  19.430  1.00  0.00    -0.398 OA
ATOM     20  H9  UNL     1       0.356  -5.939  19.632  1.00  0.00     0.209 HD
ENDBRANCH  18  19
ENDBRANCH  14  18
ENDBRANCH   7   8
ENDBRANCH   1   7
BRANCH   6  21
HETATM   21  O7  UNL     1      -2.811   1.455  16.793  1.00  0.00    -0.390 OA
ATOM     22  H7  UNL     1      -3.205   2.307  16.939  1.00  0.00     0.210 HD
ENDBRANCH   6  21
BRANCH   5  23
HETATM   23  O6  UNL     1       0.208   1.600  18.720  1.00  0.00    -0.388 OA
ATOM     24  H6  UNL     1       0.295   2.291  19.365  1.00  0.00     0.210 HD
ENDBRANCH   5  23
BRANCH   4  25
HETATM   25  O4  UNL     1      -0.977   2.099  15.418  1.00  0.00    -0.359 OA
BRANCH  25  26
HETATM   26  C8  UNL     1      -0.510   2.946  14.432  1.00  0.00     0.171 C 
BRANCH  26  27
HETATM   27  C9  UNL     1      -1.373   4.150  14.337  1.00  0.00     0.026 C 
BRANCH  27  28
HETATM   28  C10 UNL     1      -2.834   3.858  14.704  1.00  0.00     0.002 C 
BRANCH  28  29
HETATM   29  C11 UNL     1      -3.617   3.401  13.548  1.00  0.00     0.007 C 
BRANCH  29  30
HETATM   30  C12 UNL     1      -4.547   2.276  13.867  1.00  0.00     0.018 C 
HETATM   31  C13 UNL     1      -5.853   2.469  13.036  1.00  0.00     0.034 C 
HETATM   32  C14 UNL     1      -6.820   1.495  13.594  1.00  0.00    -0.030 C 
HETATM   33  C15 UNL     1      -6.418   0.377  14.175  1.00  0.00    -0.028 C 
HETATM   34  C16 UNL     1      -5.014  -0.050  14.345  1.00  0.00     0.059 C 
HETATM   35  C17 UNL     1      -4.107   0.897  13.526  1.00  0.00     0.126 C 
BRANCH  35  36
HETATM   36  O5  UNL     1      -2.795   0.581  13.710  1.00  0.00    -0.395 OA
ATOM     37  H5  UNL     1      -2.589  -0.275  14.067  1.00  0.00     0.210 HD
ENDBRANCH  35  36
ENDBRANCH  29  30
ENDBRANCH  28  29
ENDBRANCH  27  28
ENDBRANCH  26  27
ENDBRANCH  25  26
ENDBRANCH   4  25
TORSDOF 14
ENDMDL
MODEL 2
REMARK VINA RESULT: -8.885538813      1.082      1.428
REMARK  14 active torsions:
REMARK  status: ('A' for Active; 'I' for Inactive)
REMARK    1  A    between atoms: C4_5  and  O2_6 
REMARK    2  A    between atoms: O2_6  and  C5_7 
REMARK    3  A    between atoms: C7_10  and  O4_11 
REMARK    4  A    between atoms: O4_11  and  C8_12 
REMARK    5  A    between atoms: C8_12  and  C9_13 
REMARK    6  A    between atoms: C9_13  and  C10_14 
REMARK    7  A    between atoms: C10_14  and  C11_15 
REMARK    8  A    between atoms: C11_15  and  C12_16 
REMARK    9  A    between atoms: C17_21  and  O5_22 
REMARK   10  A    between atoms: C18_24  and  O6_25 
REMARK   11  A    between atoms: C19_27  and  O7_28 
REMARK   12  A    between atoms: C20_31  and  C21_32 
REMARK   13  A    between atoms: C21_32  and  O9_33 
REMARK   14  A    between atoms: C22_35  and  O10_36 
ROOT
HETATM    1  C5  UNL     1      -1.666  -0.260  17.942  1.00  0.00     0.182 C 
HETATM    2  C6  UNL     1      -1.103  -0.518  16.557  1.00  0.00     0.205 C 
HETATM    3  O3  UNL     1       0.054   0.187  16.309  1.00  0.00    -0.356 OA
HETATM    4  C7  UNL     1      -0.141   1.569  16.354  1.00  0.00     0.290 C 
HETATM    5  C18 UNL     1      -0.532   1.886  17.787  1.00  0.00     0.204 C 
HETATM    6  C19 UNL     1      -1.858   1.245  18.063  1.00  0.00     0.183 C 
ENDROOT
BRANCH   1   7
HETATM    7  O2  UNL     1      -0.850  -0.763  18.924  1.00  0.00    -0.329 OA
BRANCH   7   8
HETATM    8  C4  UNL     1      -1.497  -1.704  19.708  1.00  0.00     0.414 C 
HETATM    9  O1  UNL     1      -2.855  -1.596  19.462  1.00  0.00    -0.326 OA
HETATM   10  C2  UNL     1      -3.570  -2.705  19.843  1.00  0.00     0.087 C 
HETATM   11  C1  UNL     1      -3.383  -3.035  21.301  1.00  0.00     0.048 C 
HETATM   12  C3  UNL     1      -5.048  -2.412  19.629  1.00  0.00     0.048 C 
HETATM   13  C22 UNL     1      -3.175  -3.841  18.932  1.00  0.00     0.183 C 
HETATM   14  C20 UNL     1      -1.697  -3.745  18.630  1.00  0.00     0.182 C 
HETATM   15  O8  UNL     1      -1.006  -2.982  19.541  1.00  0.00    -0.329 OA
BRANCH  13  16
HETATM   16  O10 UNL     1      -3.850  -3.688  17.706  1.00  0.00    -0.390 OA
ATOM     17  H10 UNL     1      -3.281  -3.224  17.103  1.00  0.00     0.210 HD
ENDBRANCH  13  16
BRANCH  14  18
HETATM   18  C21 UNL     1      -1.146  -5.159  18.706  1.00  0.00     0.199 C 
BRANCH  18  19
HETATM   19  O9  UNL     1       0.051  -5.183  19.423  1.00  0.00    -0.398 OA
ATOM     20  H9  UNL     1      -0.030  -5.736  20.191  1.00  0.00     0.209 HD
ENDBRANCH  18  19
ENDBRANCH  14  18
ENDBRANCH   7   8
ENDBRANCH   1   7
BRANCH   6  21
HETATM   21  O7  UNL     1      -2.806   1.604  17.105  1.00  0.00    -0.390 OA
ATOM     22  H7  UNL     1      -3.513   2.034  17.572  1.00  0.00     0.210 HD
ENDBRANCH   6  21
BRANCH   5  23
HETATM   23  O6  UNL     1       0.433   1.320  18.614  1.00  0.00    -0.388 OA
ATOM     24  H6  UNL     1       0.819   2.025  19.121  1.00  0.00     0.210 HD
ENDBRANCH   5  23
BRANCH   4  25
HETATM   25  O4  UNL     1      -1.100   2.011  15.495  1.00  0.00    -0.359 OA
BRANCH  25  26
HETATM   26  C8  UNL     1      -0.833   3.205  14.855  1.00  0.00     0.171 C 
BRANCH  26  27
HETATM   27  C9  UNL     1      -2.014   4.102  14.923  1.00  0.00     0.026 C 
BRANCH  27  28
HETATM   28  C10 UNL     1      -3.014   3.845  13.788  1.00  0.00     0.002 C 
BRANCH  28  29
HETATM   29  C11 UNL     1      -4.170   3.055  14.233  1.00  0.00     0.007 C 
BRANCH  29  30
HETATM   30  C12 UNL     1      -4.553   1.972  13.279  1.00  0.00     0.018 C 
HETATM   31  C13 UNL     1      -3.817   0.663  13.699  1.00  0.00     0.034 C 
HETATM   32  C14 UNL     1      -4.018  -0.280  12.574  1.00  0.00    -0.030 C 
HETATM   33  C15 UNL     1      -5.074  -0.194  11.781  1.00  0.00    -0.028 C 
HETATM   34  C16 UNL     1      -6.158   0.804  11.893  1.00  0.00     0.059 C 
HETATM   35  C17 UNL     1      -5.985   1.574  13.223  1.00  0.00     0.126 C 
BRANCH  35  36
HETATM   36  O5  UNL     1      -6.925   2.553  13.334  1.00  0.00    -0.395 OA
ATOM     37  H5  UNL     1      -7.830   2.291  13.457  1.00  0.00     0.210 HD
ENDBRANCH  35  36
ENDBRANCH  29  30
ENDBRANCH  28  29
ENDBRANCH  27  28
ENDBRANCH  26  27
ENDBRANCH  25  26
ENDBRANCH   4  25
TORSDOF 14
ENDMDL
MODEL 3
REMARK VINA RESULT: -8.734813185      1.260      1.816
REMARK  14 active torsions:
REMARK  status: ('A' for Active; 'I' for Inactive)
REMARK    1  A    between atoms: C4_5  and  O2_6 
REMARK    2  A    between atoms: O2_6  and  C5_7 
REMARK    3  A    between atoms: C7_10  and  O4_11 
REMARK    4  A    between atoms: O4_11  and  C8_12 
REMARK    5  A    between atoms: C8_12  and  C9_13 
REMARK    6  A    between atoms: C9_13  and  C10_14 
REMARK    7  A    between atoms: C10_14  and  C11_15 
REMARK    8  A    between atoms: C11_15  and  C12_16 
REMARK    9  A    between atoms: C17_21  and  O5_22 
REMARK   10  A    between atoms: C18_24  and  O6_25 
REMARK   11  A    between atoms: C19_27  and  O7_28 
REMARK   12  A    between atoms: C20_31  and  C21_32 
REMARK   13  A    between atoms: C21_32  and  O9_33 
REMARK   14  A    between atoms: C22_35  and  O10_36 
ROOT
HETATM    1  C5  UNL     1      -1.815  -0.045  18.005  1.00  0.00     0.182 C 
HETATM    2  C6  UNL     1      -1.518  -0.434  16.568  1.00  0.00     0.205 C 
HETATM    3  O3  UNL     1      -0.339   0.104  16.100  1.00  0.00    -0.356 OA
HETATM    4  C7  UNL     1      -0.357   1.500  16.086  1.00  0.00     0.290 C 
HETATM    5  C18 UNL     1      -0.469   1.927  17.539  1.00  0.00     0.204 C 
HETATM    6  C19 UNL     1      -1.801   1.477  18.057  1.00  0.00     0.183 C 
ENDROOT
BRANCH   1   7
HETATM    7  O2  UNL     1      -0.918  -0.605  18.879  1.00  0.00    -0.329 OA
BRANCH   7   8
HETATM    8  C4  UNL     1      -1.504  -1.573  19.678  1.00  0.00     0.414 C 
HETATM    9  O1  UNL     1      -2.872  -1.518  19.472  1.00  0.00    -0.326 OA
HETATM   10  C2  UNL     1      -3.531  -2.656  19.869  1.00  0.00     0.087 C 
HETATM   11  C1  UNL     1      -3.288  -2.983  21.319  1.00  0.00     0.048 C 
HETATM   12  C3  UNL     1      -5.025  -2.421  19.700  1.00  0.00     0.048 C 
HETATM   13  C22 UNL     1      -3.119  -3.772  18.942  1.00  0.00     0.183 C 
HETATM   14  C20 UNL     1      -1.655  -3.617  18.597  1.00  0.00     0.182 C 
HETATM   15  O8  UNL     1      -0.968  -2.831  19.491  1.00  0.00    -0.329 OA
BRANCH  13  16
HETATM   16  O10 UNL     1      -3.835  -3.642  17.737  1.00  0.00    -0.390 OA
ATOM     17  H10 UNL     1      -3.319  -3.122  17.133  1.00  0.00     0.210 HD
ENDBRANCH  13  16
BRANCH  14  18
HETATM   18  C21 UNL     1      -1.047  -5.008  18.650  1.00  0.00     0.199 C 
BRANCH  18  19
HETATM   19  O9  UNL     1       0.132  -5.002  19.398  1.00  0.00    -0.398 OA
ATOM     20  H9  UNL     1       0.062  -5.594  20.138  1.00  0.00     0.209 HD
ENDBRANCH  18  19
ENDBRANCH  14  18
ENDBRANCH   7   8
ENDBRANCH   1   7
BRANCH   6  21
HETATM   21  O7  UNL     1      -2.841   1.913  17.237  1.00  0.00    -0.390 OA
ATOM     22  H7  UNL     1      -3.299   2.592  17.718  1.00  0.00     0.210 HD
ENDBRANCH   6  21
BRANCH   5  23
HETATM   23  O6  UNL     1       0.541   1.279  18.241  1.00  0.00    -0.388 OA
ATOM     24  H6  UNL     1       0.947   0.660  17.645  1.00  0.00     0.210 HD
ENDBRANCH   5  23
BRANCH   4  25
HETATM   25  O4  UNL     1      -1.381   2.024  15.360  1.00  0.00    -0.359 OA
BRANCH  25  26
HETATM   26  C8  UNL     1      -1.270   1.907  13.988  1.00  0.00     0.171 C 
BRANCH  26  27
HETATM   27  C9  UNL     1      -2.463   1.221  13.432  1.00  0.00     0.026 C 
BRANCH  27  28
HETATM   28  C10 UNL     1      -3.775   1.923  13.809  1.00  0.00     0.002 C 
BRANCH  28  29
HETATM   29  C11 UNL     1      -4.897   0.981  13.919  1.00  0.00     0.007 C 
BRANCH  29  30
HETATM   30  C12 UNL     1      -6.194   1.542  13.435  1.00  0.00     0.018 C 
HETATM   31  C13 UNL     1      -6.373   1.141  11.938  1.00  0.00     0.034 C 
HETATM   32  C14 UNL     1      -7.519   1.944  11.451  1.00  0.00    -0.030 C 
HETATM   33  C15 UNL     1      -8.471   2.359  12.272  1.00  0.00    -0.028 C 
HETATM   34  C16 UNL     1      -8.532   2.096  13.724  1.00  0.00     0.059 C 
HETATM   35  C17 UNL     1      -7.441   1.061  14.085  1.00  0.00     0.126 C 
BRANCH  35  36
HETATM   36  O5  UNL     1      -7.417   0.842  15.429  1.00  0.00    -0.395 OA
ATOM     37  H5  UNL     1      -7.933   1.416  15.984  1.00  0.00     0.210 HD
ENDBRANCH  35  36
ENDBRANCH  29  30
ENDBRANCH  28  29
ENDBRANCH  27  28
ENDBRANCH  26  27
ENDBRANCH  25  26
ENDBRANCH   4  25
TORSDOF 14
ENDMDL
MODEL 4
REMARK VINA RESULT: -8.695793160      0.990      1.614
REMARK  14 active torsions:
REMARK  status: ('A' for Active; 'I' for Inactive)
REMARK    1  A    between atoms: C4_5  and  O2_6 
REMARK    2  A    between atoms: O2_6  and  C5_7 
REMARK    3  A    between atoms: C7_10  and  O4_11 
REMARK    4  A    between atoms: O4_11  and  C8_12 
REMARK    5  A    between atoms: C8_12  and  C9_13 
REMARK    6  A    between atoms: C9_13  and  C10_14 
REMARK    7  A    between atoms: C10_14  and  C11_15 
REMARK    8  A    between atoms: C11_15  and  C12_16 
REMARK    9  A    between atoms: C17_21  and  O5_22 
REMARK   10  A    between atoms: C18_24  and  O6_25 
REMARK   11  A    between atoms: C19_27  and  O7_28 
REMARK   12  A    between atoms: C20_31  and  C21_32 
REMARK   13  A    between atoms: C21_32  and  O9_33 
REMARK   14  A    between atoms: C22_35  and  O10_36 
ROOT
HETATM    1  C5  UNL     1      -1.122   0.292  18.233  1.00  0.00     0.182 C 
HETATM    2  C6  UNL     1      -2.343   1.059  17.760  1.00  0.00     0.205 C 
HETATM    3  O3  UNL     1      -2.443   1.112  16.387  1.00  0.00    -0.356 OA
HETATM    4  C7  UNL     1      -1.365   1.775  15.798  1.00  0.00     0.290 C 
HETATM    5  C18 UNL     1      -0.142   0.928  16.100  1.00  0.00     0.204 C 
HETATM    6  C19 UNL     1       0.087   0.948  17.581  1.00  0.00     0.183 C 
ENDROOT
BRANCH   1   7
HETATM    7  O2  UNL     1      -1.214  -1.045  17.936  1.00  0.00    -0.329 OA
BRANCH   7   8
HETATM    8  C4  UNL     1      -1.665  -1.789  19.013  1.00  0.00     0.414 C 
HETATM    9  O1  UNL     1      -3.049  -1.805  18.964  1.00  0.00    -0.326 OA
HETATM   10  C2  UNL     1      -3.611  -2.815  19.706  1.00  0.00     0.087 C 
HETATM   11  C1  UNL     1      -3.193  -2.765  21.153  1.00  0.00     0.048 C 
HETATM   12  C3  UNL     1      -5.123  -2.649  19.665  1.00  0.00     0.048 C 
HETATM   13  C22 UNL     1      -3.258  -4.123  19.042  1.00  0.00     0.183 C 
HETATM   14  C20 UNL     1      -1.851  -4.041  18.497  1.00  0.00     0.182 C 
HETATM   15  O8  UNL     1      -1.102  -3.046  19.081  1.00  0.00    -0.329 OA
BRANCH  13  16
HETATM   16  O10 UNL     1      -4.111  -4.308  17.937  1.00  0.00    -0.390 OA
ATOM     17  H10 UNL     1      -3.579  -4.372  17.153  1.00  0.00     0.210 HD
ENDBRANCH  13  16
BRANCH  14  18
HETATM   18  C21 UNL     1      -1.182  -5.366  18.821  1.00  0.00     0.199 C 
BRANCH  18  19
HETATM   19  O9  UNL     1       0.019  -5.159  19.499  1.00  0.00    -0.398 OA
ATOM     20  H9  UNL     1       0.664  -5.809  19.245  1.00  0.00     0.209 HD
ENDBRANCH  18  19
ENDBRANCH  14  18
ENDBRANCH   7   8
ENDBRANCH   1   7
BRANCH   6  21
HETATM   21  O7  UNL     1       0.143   2.253  18.070  1.00  0.00    -0.390 OA
ATOM     22  H7  UNL     1       0.392   2.189  18.985  1.00  0.00     0.210 HD
ENDBRANCH   6  21
BRANCH   5  23
HETATM   23  O6  UNL     1      -0.428  -0.372  15.697  1.00  0.00    -0.388 OA
ATOM     24  H6  UNL     1      -0.819  -0.819  16.439  1.00  0.00     0.210 HD
ENDBRANCH   5  23
BRANCH   4  25
HETATM   25  O4  UNL     1      -1.187   3.043  16.261  1.00  0.00    -0.359 OA
BRANCH  25  26
HETATM   26  C8  UNL     1      -2.071   3.990  15.782  1.00  0.00     0.171 C 
BRANCH  26  27
HETATM   27  C9  UNL     1      -2.171   3.900  14.304  1.00  0.00     0.026 C 
BRANCH  27  28
HETATM   28  C10 UNL     1      -3.623   3.794  13.818  1.00  0.00     0.002 C 
BRANCH  28  29
HETATM   29  C11 UNL     1      -3.987   2.419  13.451  1.00  0.00     0.007 C 
BRANCH  29  30
HETATM   30  C12 UNL     1      -5.384   2.052  13.830  1.00  0.00     0.018 C 
HETATM   31  C13 UNL     1      -6.313   2.324  12.607  1.00  0.00     0.034 C 
HETATM   32  C14 UNL     1      -7.694   2.205  13.128  1.00  0.00    -0.030 C 
HETATM   33  C15 UNL     1      -7.976   1.442  14.172  1.00  0.00    -0.028 C 
HETATM   34  C16 UNL     1      -7.004   0.634  14.936  1.00  0.00     0.059 C 
HETATM   35  C17 UNL     1      -5.657   0.632  14.176  1.00  0.00     0.126 C 
BRANCH  35  36
HETATM   36  O5  UNL     1      -4.711  -0.046  14.883  1.00  0.00    -0.395 OA
ATOM     37  H5  UNL     1      -4.497   0.265  15.755  1.00  0.00     0.210 HD
ENDBRANCH  35  36
ENDBRANCH  29  30
ENDBRANCH  28  29
ENDBRANCH  27  28
ENDBRANCH  26  27
ENDBRANCH  25  26
ENDBRANCH   4  25
TORSDOF 14
ENDMDL
MODEL 5
REMARK VINA RESULT: -8.560592575      1.709      4.496
REMARK  14 active torsions:
REMARK  status: ('A' for Active; 'I' for Inactive)
REMARK    1  A    between atoms: C4_5  and  O2_6 
REMARK    2  A    between atoms: O2_6  and  C5_7 
REMARK    3  A    between atoms: C7_10  and  O4_11 
REMARK    4  A    between atoms: O4_11  and  C8_12 
REMARK    5  A    between atoms: C8_12  and  C9_13 
REMARK    6  A    between atoms: C9_13  and  C10_14 
REMARK    7  A    between atoms: C10_14  and  C11_15 
REMARK    8  A    between atoms: C11_15  and  C12_16 
REMARK    9  A    between atoms: C17_21  and  O5_22 
REMARK   10  A    between atoms: C18_24  and  O6_25 
REMARK   11  A    between atoms: C19_27  and  O7_28 
REMARK   12  A    between atoms: C20_31  and  C21_32 
REMARK   13  A    between atoms: C21_32  and  O9_33 
REMARK   14  A    between atoms: C22_35  and  O10_36 
ROOT
HETATM    1  C5  UNL     1      -4.032  -1.207  16.494  1.00  0.00     0.182 C 
HETATM    2  C6  UNL     1      -3.953   0.141  17.186  1.00  0.00     0.205 C 
HETATM    3  O3  UNL     1      -5.041   0.944  16.921  1.00  0.00    -0.356 OA
HETATM    4  C7  UNL     1      -5.157   1.255  15.565  1.00  0.00     0.290 C 
HETATM    5  C18 UNL     1      -5.421  -0.062  14.858  1.00  0.00     0.204 C 
HETATM    6  C19 UNL     1      -4.205  -0.925  15.007  1.00  0.00     0.183 C 
ENDROOT
BRANCH   1   7
HETATM    7  O2  UNL     1      -5.046  -1.981  17.000  1.00  0.00    -0.329 OA
BRANCH   7   8
HETATM    8  C4  UNL     1      -4.566  -3.048  17.741  1.00  0.00     0.414 C 
HETATM    9  O1  UNL     1      -3.189  -3.076  17.598  1.00  0.00    -0.326 OA
HETATM   10  C2  UNL     1      -2.553  -3.803  18.573  1.00  0.00     0.087 C 
HETATM   11  C1  UNL     1      -3.046  -5.225  18.644  1.00  0.00     0.048 C 
HETATM   12  C3  UNL     1      -1.070  -3.854  18.235  1.00  0.00     0.048 C 
HETATM   13  C22 UNL     1      -2.717  -3.063  19.878  1.00  0.00     0.183 C 
HETATM   14  C20 UNL     1      -4.095  -2.445  19.929  1.00  0.00     0.182 C 
HETATM   15  O8  UNL     1      -4.983  -3.028  19.056  1.00  0.00    -0.329 OA
BRANCH  13  16
HETATM   16  O10 UNL     1      -1.794  -2.001  19.909  1.00  0.00    -0.390 OA
ATOM     17  H10 UNL     1      -1.897  -1.535  20.730  1.00  0.00     0.210 HD
ENDBRANCH  13  16
BRANCH  14  18
HETATM   18  C21 UNL     1      -4.621  -2.671  21.336  1.00  0.00     0.199 C 
BRANCH  18  19
HETATM   19  O9  UNL     1      -3.713  -3.418  22.087  1.00  0.00    -0.398 OA
ATOM     20  H9  UNL     1      -3.782  -4.342  21.875  1.00  0.00     0.209 HD
ENDBRANCH  18  19
ENDBRANCH  14  18
ENDBRANCH   7   8
ENDBRANCH   1   7
BRANCH   6  21
HETATM   21  O7  UNL     1      -3.053  -0.259  14.592  1.00  0.00    -0.390 OA
ATOM     22  H7  UNL     1      -2.573  -0.865  14.040  1.00  0.00     0.210 HD
ENDBRANCH   6  21
BRANCH   5  23
HETATM   23  O6  UNL     1      -6.497  -0.668  15.499  1.00  0.00    -0.388 OA
ATOM     24  H6  UNL     1      -7.033  -1.074  14.828  1.00  0.00     0.210 HD
ENDBRANCH   5  23
BRANCH   4  25
HETATM   25  O4  UNL     1      -4.050   1.855  15.047  1.00  0.00    -0.359 OA
BRANCH  25  26
HETATM   26  C8  UNL     1      -4.275   2.766  14.034  1.00  0.00     0.171 C 
BRANCH  26  27
HETATM   27  C9  UNL     1      -3.135   3.712  13.931  1.00  0.00     0.026 C 
BRANCH  27  28
HETATM   28  C10 UNL     1      -2.382   3.873  15.258  1.00  0.00     0.002 C 
BRANCH  28  29
HETATM   29  C11 UNL     1      -0.984   3.431  15.161  1.00  0.00     0.007 C 
BRANCH  29  30
HETATM   30  C12 UNL     1      -0.554   2.563  16.298  1.00  0.00     0.018 C 
HETATM   31  C13 UNL     1      -1.541   2.783  17.485  1.00  0.00     0.034 C 
HETATM   32  C14 UNL     1      -0.911   2.117  18.648  1.00  0.00    -0.030 C 
HETATM   33  C15 UNL     1      -0.083   1.096  18.495  1.00  0.00    -0.028 C 
HETATM   34  C16 UNL     1       0.317   0.496  17.206  1.00  0.00     0.059 C 
HETATM   35  C17 UNL     1      -0.569   1.091  16.088  1.00  0.00     0.126 C 
BRANCH  35  36
HETATM   36  O5  UNL     1      -0.187   0.615  14.871  1.00  0.00    -0.395 OA
ATOM     37  H5  UNL     1      -0.738  -0.037  14.453  1.00  0.00     0.210 HD
ENDBRANCH  35  36
ENDBRANCH  29  30
ENDBRANCH  28  29
ENDBRANCH  27  28
ENDBRANCH  26  27
ENDBRANCH  25  26
ENDBRANCH   4  25
TORSDOF 14
ENDMDL
