MODEL 1
REMARK VINA RESULT: -8.477234210      0.000      0.000
REMARK  14 active torsions:
REMARK  status: ('A' for Active; 'I' for Inactive)
REMARK    1  A    between atoms: C3_4  and  O2_5 
REMARK    2  A    between atoms: O2_5  and  C4_6 
REMARK    3  A    between atoms: C4_6  and  C5_7 
REMARK    4  A    between atoms: C7_9  and  O3_10 
REMARK    5  A    between atoms: C8_12  and  O4_13 
REMARK    6  A    between atoms: C9_15  and  O5_16 
REMARK    7  A    between atoms: O5_16  and  C10_17 
REMARK    8  A    between atoms: C12_20  and  O7_21 
REMARK    9  A    between atoms: C14_24  and  O8_25 
REMARK   10  A    between atoms: C18_30  and  O9_31 
REMARK   11  A    between atoms: O9_31  and  C19_32 
REMARK   12  A    between atoms: C19_32  and  C20_33 
REMARK   13  A    between atoms: C20_33  and  C21_34 
REMARK   14  A    between atoms: C21_34  and  O10_35 
ROOT
HETATM    1  C5  UNL     1      -5.745   0.006  15.930  1.00  0.00     0.014 C 
HETATM    2  C6  UNL     1      -4.743  -0.258  14.833  1.00  0.00     0.041 C 
HETATM    3  C7  UNL     1      -3.471   0.536  15.019  1.00  0.00     0.150 C 
HETATM    4  C8  UNL     1      -3.118   0.773  16.451  1.00  0.00     0.178 C 
HETATM    5  C9  UNL     1      -3.210  -0.502  17.275  1.00  0.00     0.189 C 
HETATM    6  C14 UNL     1      -4.538  -0.433  18.022  1.00  0.00     0.150 C 
HETATM    7  C15 UNL     1      -5.599  -0.958  17.078  1.00  0.00     0.041 C 
ENDROOT
BRANCH   1   8
HETATM    8  C4  UNL     1      -7.128  -0.166  15.323  1.00  0.00     0.175 C 
BRANCH   8   9
HETATM    9  O2  UNL     1      -7.724   1.077  15.311  1.00  0.00    -0.361 OA
BRANCH   9  10
HETATM   10  C3  UNL     1      -7.821   1.642  14.047  1.00  0.00     0.260 C 
HETATM   11  O1  UNL     1      -6.718   2.378  13.689  1.00  0.00    -0.354 OA
HETATM   12  C2  UNL     1      -6.795   2.625  12.319  1.00  0.00     0.149 C 
HETATM   13  C1  UNL     1      -6.861   1.349  11.507  1.00  0.00     0.042 C 
HETATM   14  C18 UNL     1      -7.934   3.539  11.962  1.00  0.00     0.150 C 
HETATM   15  C17 UNL     1      -8.986   3.636  13.026  1.00  0.00     0.039 C 
HETATM   16  C16 UNL     1      -9.031   2.505  13.975  1.00  0.00     0.063 C 
BRANCH  14  17
HETATM   17  O9  UNL     1      -8.521   3.054  10.796  1.00  0.00    -0.383 OA
BRANCH  17  18
HETATM   18  C19 UNL     1      -9.046   4.079  10.013  1.00  0.00     0.170 C 
BRANCH  18  19
HETATM   19  C20 UNL     1      -7.912   5.006   9.589  1.00  0.00     0.052 C 
BRANCH  19  20
HETATM   20  C21 UNL     1      -7.963   5.265   8.096  1.00  0.00     0.166 C 
BRANCH  20  21
HETATM   21  O10 UNL     1      -8.127   4.094   7.387  1.00  0.00    -0.401 OA
ATOM     22  H10 UNL     1      -7.351   3.886   6.879  1.00  0.00     0.209 HD
ENDBRANCH  20  21
ENDBRANCH  19  20
ENDBRANCH  18  19
ENDBRANCH  17  18
ENDBRANCH  14  17
ENDBRANCH   9  10
ENDBRANCH   8   9
ENDBRANCH   1   8
BRANCH   3  23
HETATM   23  O3  UNL     1      -2.433  -0.174  14.417  1.00  0.00    -0.393 OA
ATOM     24  H3  UNL     1      -1.756  -0.308  15.069  1.00  0.00     0.210 HD
ENDBRANCH   3  23
BRANCH   6  25
HETATM   25  O8  UNL     1      -4.489  -1.125  19.217  1.00  0.00    -0.393 OA
ATOM     26  H8  UNL     1      -5.064  -1.881  19.210  1.00  0.00     0.210 HD
ENDBRANCH   6  25
BRANCH   4  27
HETATM   27  O4  UNL     1      -1.799   1.208  16.521  1.00  0.00    -0.390 OA
ATOM     28  H4  UNL     1      -1.568   1.339  17.433  1.00  0.00     0.210 HD
ENDBRANCH   4  27
BRANCH   5  29
HETATM   29  O5  UNL     1      -2.127  -0.662  18.135  1.00  0.00    -0.339 OA
BRANCH  29  30
HETATM   30  C10 UNL     1      -1.310  -1.775  18.158  1.00  0.00     0.096 A 
HETATM   31  C11 UNL     1      -0.358  -2.070  17.211  1.00  0.00     0.181 A 
HETATM   32  O6  UNL     1       0.229  -3.197  17.546  1.00  0.00    -0.298 OA
HETATM   33  C12 UNL     1      -0.257  -3.692  18.656  1.00  0.00     0.185 A 
HETATM   34  C13 UNL     1      -1.247  -2.800  19.071  1.00  0.00     0.102 A 
BRANCH  33  35
HETATM   35  O7  UNL     1       0.122  -4.870  19.309  1.00  0.00    -0.341 OA
ATOM     36  H7  UNL     1      -0.403  -5.410  19.889  1.00  0.00     0.220 HD
ENDBRANCH  33  35
ENDBRANCH  29  30
ENDBRANCH   5  29
TORSDOF 14
ENDMDL
MODEL 2
REMARK VINA RESULT: -8.466880953      2.626      9.079
REMARK  14 active torsions:
REMARK  status: ('A' for Active; 'I' for Inactive)
REMARK    1  A    between atoms: C3_4  and  O2_5 
REMARK    2  A    between atoms: O2_5  and  C4_6 
REMARK    3  A    between atoms: C4_6  and  C5_7 
REMARK    4  A    between atoms: C7_9  and  O3_10 
REMARK    5  A    between atoms: C8_12  and  O4_13 
REMARK    6  A    between atoms: C9_15  and  O5_16 
REMARK    7  A    between atoms: O5_16  and  C10_17 
REMARK    8  A    between atoms: C12_20  and  O7_21 
REMARK    9  A    between atoms: C14_24  and  O8_25 
REMARK   10  A    between atoms: C18_30  and  O9_31 
REMARK   11  A    between atoms: O9_31  and  C19_32 
REMARK   12  A    between atoms: C19_32  and  C20_33 
REMARK   13  A    between atoms: C20_33  and  C21_34 
REMARK   14  A    between atoms: C21_34  and  O10_35 
ROOT
HETATM    1  C5  UNL     1      -0.782   1.929  15.752  1.00  0.00     0.014 C 
HETATM    2  C6  UNL     1      -1.592   2.840  16.640  1.00  0.00     0.041 C 
HETATM    3  C7  UNL     1      -2.086   4.064  15.905  1.00  0.00     0.150 C 
HETATM    4  C8  UNL     1      -2.369   3.817  14.458  1.00  0.00     0.178 C 
HETATM    5  C9  UNL     1      -3.197   2.559  14.249  1.00  0.00     0.189 C 
HETATM    6  C14 UNL     1      -2.220   1.471  13.817  1.00  0.00     0.150 C 
HETATM    7  C15 UNL     1      -1.633   0.882  15.082  1.00  0.00     0.041 C 
ENDROOT
BRANCH   1   8
HETATM    8  C4  UNL     1       0.238   1.232  16.639  1.00  0.00     0.175 C 
BRANCH   8   9
HETATM    9  O2  UNL     1       0.124  -0.121  16.406  1.00  0.00    -0.361 OA
BRANCH   9  10
HETATM   10  C3  UNL     1      -0.583  -0.804  17.386  1.00  0.00     0.260 C 
HETATM   11  O1  UNL     1      -0.261  -0.418  18.664  1.00  0.00    -0.354 OA
HETATM   12  C2  UNL     1      -1.232  -0.931  19.523  1.00  0.00     0.149 C 
HETATM   13  C1  UNL     1      -2.625  -0.456  19.166  1.00  0.00     0.042 C 
HETATM   14  C18 UNL     1      -1.190  -2.431  19.608  1.00  0.00     0.150 C 
HETATM   15  C17 UNL     1      -0.460  -3.080  18.471  1.00  0.00     0.039 C 
HETATM   16  C16 UNL     1      -0.354  -2.267  17.242  1.00  0.00     0.063 C 
BRANCH  14  17
HETATM   17  O9  UNL     1      -2.503  -2.895  19.620  1.00  0.00    -0.383 OA
BRANCH  17  18
HETATM   18  C19 UNL     1      -2.562  -4.286  19.666  1.00  0.00     0.170 C 
BRANCH  18  19
HETATM   19  C20 UNL     1      -3.741  -4.758  18.821  1.00  0.00     0.052 C 
BRANCH  19  20
HETATM   20  C21 UNL     1      -4.515  -3.575  18.274  1.00  0.00     0.166 C 
BRANCH  20  21
HETATM   21  O10 UNL     1      -3.873  -3.010  17.193  1.00  0.00    -0.401 OA
ATOM     22  H10 UNL     1      -4.396  -2.320  16.801  1.00  0.00     0.209 HD
ENDBRANCH  20  21
ENDBRANCH  19  20
ENDBRANCH  18  19
ENDBRANCH  17  18
ENDBRANCH  14  17
ENDBRANCH   9  10
ENDBRANCH   8   9
ENDBRANCH   1   8
BRANCH   3  23
HETATM   23  O3  UNL     1      -3.262   4.487  16.520  1.00  0.00    -0.393 OA
ATOM     24  H3  UNL     1      -3.980   3.985  16.153  1.00  0.00     0.210 HD
ENDBRANCH   3  23
BRANCH   6  25
HETATM   25  O8  UNL     1      -2.830   0.526  13.014  1.00  0.00    -0.393 OA
ATOM     26  H8  UNL     1      -2.708   0.716  12.091  1.00  0.00     0.210 HD
ENDBRANCH   6  25
BRANCH   4  27
HETATM   27  O4  UNL     1      -3.112   4.882  13.959  1.00  0.00    -0.390 OA
ATOM     28  H4  UNL     1      -2.522   5.603  13.771  1.00  0.00     0.210 HD
ENDBRANCH   4  27
BRANCH   5  29
HETATM   29  O5  UNL     1      -4.225   2.744  13.328  1.00  0.00    -0.339 OA
BRANCH  29  30
HETATM   30  C10 UNL     1      -5.521   2.306  13.512  1.00  0.00     0.096 A 
HETATM   31  C11 UNL     1      -6.492   2.292  12.538  1.00  0.00     0.181 A 
HETATM   32  O6  UNL     1      -7.600   1.815  13.059  1.00  0.00    -0.298 OA
HETATM   33  C12 UNL     1      -7.453   1.504  14.322  1.00  0.00     0.185 A 
HETATM   34  C13 UNL     1      -6.129   1.809  14.641  1.00  0.00     0.102 A 
BRANCH  33  35
HETATM   35  O7  UNL     1      -8.413   0.974  15.193  1.00  0.00    -0.341 OA
ATOM     36  H7  UNL     1      -8.397   0.133  15.635  1.00  0.00     0.220 HD
ENDBRANCH  33  35
ENDBRANCH  29  30
ENDBRANCH   5  29
TORSDOF 14
ENDMDL
MODEL 3
REMARK VINA RESULT: -8.390629939      1.472      2.264
REMARK  14 active torsions:
REMARK  status: ('A' for Active; 'I' for Inactive)
REMARK    1  A    between atoms: C3_4  and  O2_5 
REMARK    2  A    between atoms: O2_5  and  C4_6 
REMARK    3  A    between atoms: C4_6  and  C5_7 
REMARK    4  A    between atoms: C7_9  and  O3_10 
REMARK    5  A    between atoms: C8_12  and  O4_13 
REMARK    6  A    between atoms: C9_15  and  O5_16 
REMARK    7  A    between atoms: O5_16  and  C10_17 
REMARK    8  A    between atoms: C12_20  and  O7_21 
REMARK    9  A    between atoms: C14_24  and  O8_25 
REMARK   10  A    between atoms: C18_30  and  O9_31 
REMARK   11  A    between atoms: O9_31  and  C19_32 
REMARK   12  A    between atoms: C19_32  and  C20_33 
REMARK   13  A    between atoms: C20_33  and  C21_34 
REMARK   14  A    between atoms: C21_34  and  O10_35 
ROOT
HETATM    1  C5  UNL     1      -3.542   2.199  16.427  1.00  0.00     0.014 C 
HETATM    2  C6  UNL     1      -2.131   2.347  15.915  1.00  0.00     0.041 C 
HETATM    3  C7  UNL     1      -1.140   2.583  17.032  1.00  0.00     0.150 C 
HETATM    4  C8  UNL     1      -1.513   1.910  18.313  1.00  0.00     0.178 C 
HETATM    5  C9  UNL     1      -1.907   0.458  18.096  1.00  0.00     0.189 C 
HETATM    6  C14 UNL     1      -3.431   0.421  18.115  1.00  0.00     0.150 C 
HETATM    7  C15 UNL     1      -3.896   0.764  16.715  1.00  0.00     0.041 C 
ENDROOT
BRANCH   1   8
HETATM    8  C4  UNL     1      -4.468   2.719  15.339  1.00  0.00     0.175 C 
BRANCH   8   9
HETATM    9  O2  UNL     1      -5.678   2.078  15.494  1.00  0.00    -0.361 OA
BRANCH   9  10
HETATM   10  C3  UNL     1      -6.568   2.296  14.452  1.00  0.00     0.260 C 
HETATM   11  O1  UNL     1      -7.656   1.459  14.473  1.00  0.00    -0.354 OA
HETATM   12  C2  UNL     1      -8.606   1.967  13.589  1.00  0.00     0.149 C 
HETATM   13  C1  UNL     1      -9.024   3.379  13.943  1.00  0.00     0.042 C 
HETATM   14  C18 UNL     1      -8.158   1.892  12.156  1.00  0.00     0.150 C 
HETATM   15  C17 UNL     1      -6.677   1.719  11.996  1.00  0.00     0.039 C 
HETATM   16  C16 UNL     1      -5.861   2.150  13.150  1.00  0.00     0.063 C 
BRANCH  14  17
HETATM   17  O9  UNL     1      -8.541   3.073  11.526  1.00  0.00    -0.383 OA
BRANCH  17  18
HETATM   18  C19 UNL     1      -7.827   3.289  10.350  1.00  0.00     0.170 C 
BRANCH  18  19
HETATM   19  C20 UNL     1      -8.090   4.712   9.868  1.00  0.00     0.052 C 
BRANCH  19  20
HETATM   20  C21 UNL     1      -7.424   4.955   8.527  1.00  0.00     0.166 C 
BRANCH  20  21
HETATM   21  O10 UNL     1      -8.001   4.194   7.534  1.00  0.00    -0.401 OA
ATOM     22  H10 UNL     1      -8.043   4.670   6.713  1.00  0.00     0.209 HD
ENDBRANCH  20  21
ENDBRANCH  19  20
ENDBRANCH  18  19
ENDBRANCH  17  18
ENDBRANCH  14  17
ENDBRANCH   9  10
ENDBRANCH   8   9
ENDBRANCH   1   8
BRANCH   3  23
HETATM   23  O3  UNL     1       0.096   2.094  16.617  1.00  0.00    -0.393 OA
ATOM     24  H3  UNL     1       0.447   2.698  15.973  1.00  0.00     0.210 HD
ENDBRANCH   3  23
BRANCH   6  25
HETATM   25  O8  UNL     1      -3.908  -0.798  18.559  1.00  0.00    -0.393 OA
ATOM     26  H8  UNL     1      -4.456  -1.219  17.908  1.00  0.00     0.210 HD
ENDBRANCH   6  25
BRANCH   4  27
HETATM   27  O4  UNL     1      -0.407   1.911  19.156  1.00  0.00    -0.390 OA
ATOM     28  H4  UNL     1      -0.710   1.897  20.057  1.00  0.00     0.210 HD
ENDBRANCH   4  27
BRANCH   5  29
HETATM   29  O5  UNL     1      -1.344  -0.395  19.042  1.00  0.00    -0.339 OA
BRANCH  29  30
HETATM   30  C10 UNL     1      -0.857  -1.656  18.759  1.00  0.00     0.096 A 
HETATM   31  C11 UNL     1      -0.189  -2.000  17.608  1.00  0.00     0.181 A 
HETATM   32  O6  UNL     1       0.129  -3.274  17.674  1.00  0.00    -0.298 OA
HETATM   33  C12 UNL     1      -0.276  -3.822  18.791  1.00  0.00     0.185 A 
HETATM   34  C13 UNL     1      -0.913  -2.807  19.507  1.00  0.00     0.102 A 
BRANCH  33  35
HETATM   35  O7  UNL     1      -0.116  -5.150  19.203  1.00  0.00    -0.341 OA
ATOM     36  H7  UNL     1      -0.653  -5.640  19.814  1.00  0.00     0.220 HD
ENDBRANCH  33  35
ENDBRANCH  29  30
ENDBRANCH   5  29
TORSDOF 14
ENDMDL
MODEL 4
REMARK VINA RESULT: -8.336867583      3.703      5.196
REMARK  14 active torsions:
REMARK  status: ('A' for Active; 'I' for Inactive)
REMARK    1  A    between atoms: C3_4  and  O2_5 
REMARK    2  A    between atoms: O2_5  and  C4_6 
REMARK    3  A    between atoms: C4_6  and  C5_7 
REMARK    4  A    between atoms: C7_9  and  O3_10 
REMARK    5  A    between atoms: C8_12  and  O4_13 
REMARK    6  A    between atoms: C9_15  and  O5_16 
REMARK    7  A    between atoms: O5_16  and  C10_17 
REMARK    8  A    between atoms: C12_20  and  O7_21 
REMARK    9  A    between atoms: C14_24  and  O8_25 
REMARK   10  A    between atoms: C18_30  and  O9_31 
REMARK   11  A    between atoms: O9_31  and  C19_32 
REMARK   12  A    between atoms: C19_32  and  C20_33 
REMARK   13  A    between atoms: C20_33  and  C21_34 
REMARK   14  A    between atoms: C21_34  and  O10_35 
ROOT
HETATM    1  C5  UNL     1      -4.755   0.065  16.870  1.00  0.00     0.014 C 
HETATM    2  C6  UNL     1      -3.437  -0.427  16.324  1.00  0.00     0.041 C 
HETATM    3  C7  UNL     1      -2.296  -0.189  17.285  1.00  0.00     0.150 C 
HETATM    4  C8  UNL     1      -2.700  -0.264  18.722  1.00  0.00     0.178 C 
HETATM    5  C9  UNL     1      -3.542  -1.497  19.010  1.00  0.00     0.189 C 
HETATM    6  C14 UNL     1      -4.991  -1.024  19.057  1.00  0.00     0.150 C 
HETATM    7  C15 UNL     1      -5.492  -1.007  17.628  1.00  0.00     0.041 C 
ENDROOT
BRANCH   1   8
HETATM    8  C4  UNL     1      -5.600   0.489  15.680  1.00  0.00     0.175 C 
BRANCH   8   9
HETATM    9  O2  UNL     1      -5.751   1.857  15.755  1.00  0.00    -0.361 OA
BRANCH   9  10
HETATM   10  C3  UNL     1      -4.554   2.557  15.737  1.00  0.00     0.260 C 
HETATM   11  O1  UNL     1      -4.608   3.755  16.406  1.00  0.00    -0.354 OA
HETATM   12  C2  UNL     1      -3.300   4.205  16.585  1.00  0.00     0.149 C 
HETATM   13  C1  UNL     1      -2.450   3.214  17.351  1.00  0.00     0.042 C 
HETATM   14  C18 UNL     1      -2.639   4.579  15.288  1.00  0.00     0.150 C 
HETATM   15  C17 UNL     1      -3.308   3.997  14.079  1.00  0.00     0.039 C 
HETATM   16  C16 UNL     1      -4.135   2.799  14.329  1.00  0.00     0.063 C 
BRANCH  14  17
HETATM   17  O9  UNL     1      -1.323   4.123  15.333  1.00  0.00    -0.383 OA
BRANCH  17  18
HETATM   18  C19 UNL     1      -0.692   4.235  14.097  1.00  0.00     0.170 C 
BRANCH  18  19
HETATM   19  C20 UNL     1      -0.020   2.908  13.764  1.00  0.00     0.052 C 
BRANCH  19  20
HETATM   20  C21 UNL     1      -0.037   1.982  14.965  1.00  0.00     0.166 C 
BRANCH  20  21
HETATM   21  O10 UNL     1      -0.043   0.659  14.580  1.00  0.00    -0.401 OA
ATOM     22  H10 UNL     1       0.773   0.229  14.807  1.00  0.00     0.209 HD
ENDBRANCH  20  21
ENDBRANCH  19  20
ENDBRANCH  18  19
ENDBRANCH  17  18
ENDBRANCH  14  17
ENDBRANCH   9  10
ENDBRANCH   8   9
ENDBRANCH   1   8
BRANCH   3  23
HETATM   23  O3  UNL     1      -1.326  -1.161  17.046  1.00  0.00    -0.393 OA
ATOM     24  H3  UNL     1      -0.898  -0.950  16.225  1.00  0.00     0.210 HD
ENDBRANCH   3  23
BRANCH   6  25
HETATM   25  O8  UNL     1      -5.760  -1.814  19.890  1.00  0.00    -0.393 OA
ATOM     26  H8  UNL     1      -6.312  -2.411  19.398  1.00  0.00     0.210 HD
ENDBRANCH   6  25
BRANCH   4  27
HETATM   27  O4  UNL     1      -1.554  -0.360  19.505  1.00  0.00    -0.390 OA
ATOM     28  H4  UNL     1      -1.797  -0.692  20.361  1.00  0.00     0.210 HD
ENDBRANCH   4  27
BRANCH   5  29
HETATM   29  O5  UNL     1      -3.158  -2.143  20.182  1.00  0.00    -0.339 OA
BRANCH  29  30
HETATM   30  C10 UNL     1      -2.558  -3.386  20.224  1.00  0.00     0.096 A 
HETATM   31  C11 UNL     1      -3.081  -4.490  20.856  1.00  0.00     0.181 A 
HETATM   32  O6  UNL     1      -2.251  -5.496  20.695  1.00  0.00    -0.298 OA
HETATM   33  C12 UNL     1      -1.198  -5.155  19.996  1.00  0.00     0.185 A 
HETATM   34  C13 UNL     1      -1.368  -3.806  19.681  1.00  0.00     0.102 A 
BRANCH  33  35
HETATM   35  O7  UNL     1      -0.113  -5.961  19.630  1.00  0.00    -0.341 OA
ATOM     36  H7  UNL     1      -0.058  -6.909  19.654  1.00  0.00     0.220 HD
ENDBRANCH  33  35
ENDBRANCH  29  30
ENDBRANCH   5  29
TORSDOF 14
ENDMDL
MODEL 5
REMARK VINA RESULT: -8.294337963      1.486      2.158
REMARK  14 active torsions:
REMARK  status: ('A' for Active; 'I' for Inactive)
REMARK    1  A    between atoms: C3_4  and  O2_5 
REMARK    2  A    between atoms: O2_5  and  C4_6 
REMARK    3  A    between atoms: C4_6  and  C5_7 
REMARK    4  A    between atoms: C7_9  and  O3_10 
REMARK    5  A    between atoms: C8_12  and  O4_13 
REMARK    6  A    between atoms: C9_15  and  O5_16 
REMARK    7  A    between atoms: O5_16  and  C10_17 
REMARK    8  A    between atoms: C12_20  and  O7_21 
REMARK    9  A    between atoms: C14_24  and  O8_25 
REMARK   10  A    between atoms: C18_30  and  O9_31 
REMARK   11  A    between atoms: O9_31  and  C19_32 
REMARK   12  A    between atoms: C19_32  and  C20_33 
REMARK   13  A    between atoms: C20_33  and  C21_34 
REMARK   14  A    between atoms: C21_34  and  O10_35 
ROOT
HETATM    1  C5  UNL     1      -3.439   2.161  14.841  1.00  0.00     0.014 C 
HETATM    2  C6  UNL     1      -2.239   1.674  14.066  1.00  0.00     0.041 C 
HETATM    3  C7  UNL     1      -0.940   1.969  14.779  1.00  0.00     0.150 C 
HETATM    4  C8  UNL     1      -1.057   1.941  16.269  1.00  0.00     0.178 C 
HETATM    5  C9  UNL     1      -1.795   0.704  16.755  1.00  0.00     0.189 C 
HETATM    6  C14 UNL     1      -3.219   1.151  17.067  1.00  0.00     0.150 C 
HETATM    7  C15 UNL     1      -3.988   1.105  15.763  1.00  0.00     0.041 C 
ENDROOT
BRANCH   1   8
HETATM    8  C4  UNL     1      -4.509   2.524  13.825  1.00  0.00     0.175 C 
BRANCH   8   9
HETATM    9  O2  UNL     1      -5.718   2.113  14.342  1.00  0.00    -0.361 OA
BRANCH   9  10
HETATM   10  C3  UNL     1      -6.814   2.489  13.579  1.00  0.00     0.260 C 
HETATM   11  O1  UNL     1      -7.924   1.707  13.788  1.00  0.00    -0.354 OA
HETATM   12  C2  UNL     1      -9.019   2.356  13.220  1.00  0.00     0.149 C 
HETATM   13  C1  UNL     1      -9.233   3.738  13.800  1.00  0.00     0.042 C 
HETATM   14  C18 UNL     1      -8.936   2.419  11.721  1.00  0.00     0.150 C 
HETATM   15  C17 UNL     1      -7.555   2.194  11.183  1.00  0.00     0.039 C 
HETATM   16  C16 UNL     1      -6.455   2.454  12.135  1.00  0.00     0.063 C 
BRANCH  14  17
HETATM   17  O9  UNL     1      -9.371   3.680  11.321  1.00  0.00    -0.383 OA
BRANCH  17  18
HETATM   18  C19 UNL     1      -9.338   3.827   9.936  1.00  0.00     0.170 C 
BRANCH  18  19
HETATM   19  C20 UNL     1      -8.673   5.156   9.597  1.00  0.00     0.052 C 
BRANCH  19  20
HETATM   20  C21 UNL     1      -7.589   4.961   8.554  1.00  0.00     0.166 C 
BRANCH  20  21
HETATM   21  O10 UNL     1      -8.069   4.290   7.449  1.00  0.00    -0.401 OA
ATOM     22  H10 UNL     1      -9.004   4.134   7.519  1.00  0.00     0.209 HD
ENDBRANCH  20  21
ENDBRANCH  19  20
ENDBRANCH  18  19
ENDBRANCH  17  18
ENDBRANCH  14  17
ENDBRANCH   9  10
ENDBRANCH   8   9
ENDBRANCH   1   8
BRANCH   3  23
HETATM   23  O3  UNL     1      -0.011   1.007  14.388  1.00  0.00    -0.393 OA
ATOM     24  H3  UNL     1      -0.489   0.268  14.032  1.00  0.00     0.210 HD
ENDBRANCH   3  23
BRANCH   6  25
HETATM   25  O8  UNL     1      -3.793   0.378  18.059  1.00  0.00    -0.393 OA
ATOM     26  H8  UNL     1      -4.741   0.390  18.011  1.00  0.00     0.210 HD
ENDBRANCH   6  25
BRANCH   4  27
HETATM   27  O4  UNL     1       0.221   1.895  16.817  1.00  0.00    -0.390 OA
ATOM     28  H4  UNL     1       0.855   2.035  16.123  1.00  0.00     0.210 HD
ENDBRANCH   4  27
BRANCH   5  29
HETATM   29  O5  UNL     1      -1.176   0.108  17.851  1.00  0.00    -0.339 OA
BRANCH  29  30
HETATM   30  C10 UNL     1      -0.733  -1.199  17.879  1.00  0.00     0.096 A 
HETATM   31  C11 UNL     1      -0.127  -1.845  16.828  1.00  0.00     0.181 A 
HETATM   32  O6  UNL     1       0.162  -3.072  17.202  1.00  0.00    -0.298 OA
HETATM   33  C12 UNL     1      -0.206  -3.307  18.435  1.00  0.00     0.185 A 
HETATM   34  C13 UNL     1      -0.784  -2.123  18.895  1.00  0.00     0.102 A 
BRANCH  33  35
HETATM   35  O7  UNL     1      -0.061  -4.494  19.163  1.00  0.00    -0.341 OA
ATOM     36  H7  UNL     1      -0.706  -5.178  19.297  1.00  0.00     0.220 HD
ENDBRANCH  33  35
ENDBRANCH  29  30
ENDBRANCH   5  29
TORSDOF 14
ENDMDL
