MODEL 1
REMARK VINA RESULT: -8.692818273      0.000      0.000
REMARK  5 active torsions:
REMARK  status: ('A' for Active; 'I' for Inactive)
REMARK    1  A    between atoms: C1_4  and  S1_6 
REMARK    2  A    between atoms: S1_6  and  C2_7 
REMARK    3  A    between atoms: C2_7  and  C3_8 
REMARK    4  A    between atoms: C3_8  and  C4_10 
REMARK    5  A    between atoms: C8_21  and  C9_22 
ROOT
HETATM    1  C4  UNL     1      29.136  12.153  -1.745  1.00  0.00     0.085 C 
HETATM    2  N3  UNL     1      28.165  11.390  -2.059  1.00  0.00    -0.286 N 
ATOM      3  H3  UNL     1      28.044  11.288  -3.067  1.00  0.00     0.188 HD
HETATM    4  N4  UNL     1      27.236  10.668  -1.321  1.00  0.00    -0.247 N 
ATOM      5  H4  UNL     1      26.303  10.748  -1.725  1.00  0.00     0.208 HD
HETATM    6  N5  UNL     1      27.225   9.936  -0.286  1.00  0.00    -0.322 N 
ATOM      7  H5  UNL     1      26.316   9.554  -0.026  1.00  0.00     0.181 HD
HETATM    8  C5  UNL     1      28.344   9.564   0.589  1.00  0.00     0.148 C 
HETATM    9  C6  UNL     1      28.655  10.816   1.369  1.00  0.00     0.100 C 
HETATM   10  C7  UNL     1      29.599  11.713   0.666  1.00  0.00     0.139 C 
HETATM   11  O2  UNL     1      30.678  11.668   1.283  1.00  0.00    -0.297 OA
HETATM   12  C8  UNL     1      29.719  12.619  -0.473  1.00  0.00     0.114 C 
ENDROOT
BRANCH   1  13
HETATM   13  C3  UNL     1      29.831  12.688  -2.911  1.00  0.00     0.183 C 
HETATM   14  O1  UNL     1      29.149  13.044  -3.899  1.00  0.00    -0.290 OA
BRANCH  13  15
HETATM   15  C2  UNL     1      31.318  12.792  -2.891  1.00  0.00     0.167 C 
BRANCH  15  16
HETATM   16  S1  UNL     1      31.964  11.780  -4.242  1.00  0.00    -0.090 SA
BRANCH  16  17
HETATM   17  C1  UNL     1      33.071  12.718  -5.275  1.00  0.00     0.148 C 
HETATM   18  N1  UNL     1      32.683  13.845  -5.735  1.00  0.00    -0.382 N 
ATOM     19  H12 UNL     1      33.318  14.382  -6.327  1.00  0.00     0.157 HD
ATOM     20  H11 UNL     1      31.753  14.198  -5.511  1.00  0.00     0.157 HD
HETATM   21  N2  UNL     1      34.365  12.228  -5.586  1.00  0.00    -0.075 NA
ENDBRANCH  16  17
ENDBRANCH  15  16
ENDBRANCH  13  15
ENDBRANCH   1  13
BRANCH  12  22
HETATM   22  C9  UNL     1      29.290  14.037  -0.166  1.00  0.00     0.003 C 
HETATM   23  C10 UNL     1      28.051  14.175   0.638  1.00  0.00     0.006 C 
HETATM   24  C11 UNL     1      28.173  15.192   1.756  1.00  0.00     0.000 C 
HETATM   25  C12 UNL     1      28.932  16.420   1.398  1.00  0.00     0.000 C 
HETATM   26  C13 UNL     1      30.072  16.242   0.454  1.00  0.00     0.000 C 
HETATM   27  C14 UNL     1      30.471  14.779   0.485  1.00  0.00     0.006 C 
ENDBRANCH  12  22
TORSDOF 5
ENDMDL
MODEL 2
REMARK VINA RESULT: -8.592351831      2.640      3.056
REMARK  5 active torsions:
REMARK  status: ('A' for Active; 'I' for Inactive)
REMARK    1  A    between atoms: C1_4  and  S1_6 
REMARK    2  A    between atoms: S1_6  and  C2_7 
REMARK    3  A    between atoms: C2_7  and  C3_8 
REMARK    4  A    between atoms: C3_8  and  C4_10 
REMARK    5  A    between atoms: C8_21  and  C9_22 
ROOT
HETATM    1  C4  UNL     1      29.239  12.250  -0.362  1.00  0.00     0.085 C 
HETATM    2  N3  UNL     1      28.177  11.675  -0.768  1.00  0.00    -0.286 N 
ATOM      3  H3  UNL     1      28.035  11.758  -1.775  1.00  0.00     0.188 HD
HETATM    4  N4  UNL     1      27.171  10.959  -0.132  1.00  0.00    -0.247 N 
ATOM      5  H4  UNL     1      26.251  11.220  -0.489  1.00  0.00     0.208 HD
HETATM    6  N5  UNL     1      27.076  10.072   0.769  1.00  0.00    -0.322 N 
ATOM      7  H5  UNL     1      26.128   9.767   0.990  1.00  0.00     0.181 HD
HETATM    8  C5  UNL     1      28.147   9.425   1.538  1.00  0.00     0.148 C 
HETATM    9  C6  UNL     1      28.620  10.482   2.503  1.00  0.00     0.100 C 
HETATM   10  C7  UNL     1      29.664  11.361   1.929  1.00  0.00     0.139 C 
HETATM   11  O2  UNL     1      30.734  11.082   2.499  1.00  0.00    -0.297 OA
HETATM   12  C8  UNL     1      29.886  12.422   0.951  1.00  0.00     0.114 C 
ENDROOT
BRANCH   1  13
HETATM   13  C3  UNL     1      29.986  12.882  -1.444  1.00  0.00     0.183 C 
HETATM   14  O1  UNL     1      31.193  12.583  -1.588  1.00  0.00    -0.290 OA
BRANCH  13  15
HETATM   15  C2  UNL     1      29.295  13.857  -2.335  1.00  0.00     0.167 C 
BRANCH  15  16
HETATM   16  S1  UNL     1      29.101  13.084  -3.958  1.00  0.00    -0.090 SA
BRANCH  16  17
HETATM   17  C1  UNL     1      27.409  12.605  -4.243  1.00  0.00     0.148 C 
HETATM   18  N1  UNL     1      26.989  12.500  -5.445  1.00  0.00    -0.382 N 
ATOM     19  H12 UNL     1      26.021  12.226  -5.608  1.00  0.00     0.157 HD
ATOM     20  H11 UNL     1      27.618  12.688  -6.226  1.00  0.00     0.157 HD
HETATM   21  N2  UNL     1      26.535  12.343  -3.157  1.00  0.00    -0.075 NA
ENDBRANCH  16  17
ENDBRANCH  15  16
ENDBRANCH  13  15
ENDBRANCH   1  13
BRANCH  12  22
HETATM   22  C9  UNL     1      29.643  13.811   1.499  1.00  0.00     0.003 C 
HETATM   23  C10 UNL     1      30.636  14.842   1.106  1.00  0.00     0.006 C 
HETATM   24  C11 UNL     1      30.002  16.149   0.674  1.00  0.00     0.000 C 
HETATM   25  C12 UNL     1      28.823  16.565   1.479  1.00  0.00     0.000 C 
HETATM   26  C13 UNL     1      27.948  15.469   1.985  1.00  0.00     0.000 C 
HETATM   27  C14 UNL     1      28.210  14.241   1.136  1.00  0.00     0.006 C 
ENDBRANCH  12  22
TORSDOF 5
ENDMDL
MODEL 3
REMARK VINA RESULT: -8.480896849      1.120      1.607
REMARK  5 active torsions:
REMARK  status: ('A' for Active; 'I' for Inactive)
REMARK    1  A    between atoms: C1_4  and  S1_6 
REMARK    2  A    between atoms: S1_6  and  C2_7 
REMARK    3  A    between atoms: C2_7  and  C3_8 
REMARK    4  A    between atoms: C3_8  and  C4_10 
REMARK    5  A    between atoms: C8_21  and  C9_22 
ROOT
HETATM    1  C4  UNL     1      29.370  12.113  -0.364  1.00  0.00     0.085 C 
HETATM    2  N3  UNL     1      28.309  11.560  -0.802  1.00  0.00    -0.286 N 
ATOM      3  H3  UNL     1      28.216  11.617  -1.816  1.00  0.00     0.188 HD
HETATM    4  N4  UNL     1      27.251  10.897  -0.193  1.00  0.00    -0.247 N 
ATOM      5  H4  UNL     1      26.358  11.176  -0.600  1.00  0.00     0.208 HD
HETATM    6  N5  UNL     1      27.086  10.042   0.728  1.00  0.00    -0.322 N 
ATOM      7  H5  UNL     1      26.119   9.774   0.913  1.00  0.00     0.181 HD
HETATM    8  C5  UNL     1      28.098   9.384   1.564  1.00  0.00     0.148 C 
HETATM    9  C6  UNL     1      28.562  10.454   2.519  1.00  0.00     0.100 C 
HETATM   10  C7  UNL     1      29.660  11.281   1.970  1.00  0.00     0.139 C 
HETATM   11  O2  UNL     1      30.693  10.985   2.596  1.00  0.00    -0.297 OA
HETATM   12  C8  UNL     1      29.962  12.304   0.973  1.00  0.00     0.114 C 
ENDROOT
BRANCH   1  13
HETATM   13  C3  UNL     1      30.186  12.688  -1.428  1.00  0.00     0.183 C 
HETATM   14  O1  UNL     1      29.668  13.546  -2.178  1.00  0.00    -0.290 OA
BRANCH  13  15
HETATM   15  C2  UNL     1      31.598  12.239  -1.588  1.00  0.00     0.167 C 
BRANCH  15  16
HETATM   16  S1  UNL     1      31.755  11.470  -3.216  1.00  0.00    -0.090 SA
BRANCH  16  17
HETATM   17  C1  UNL     1      32.441  12.608  -4.402  1.00  0.00     0.148 C 
HETATM   18  N1  UNL     1      31.936  13.778  -4.501  1.00  0.00    -0.382 N 
ATOM     19  H12 UNL     1      32.329  14.429  -5.181  1.00  0.00     0.157 HD
ATOM     20  H11 UNL     1      31.152  14.050  -3.908  1.00  0.00     0.157 HD
HETATM   21  N2  UNL     1      33.531  12.229  -5.227  1.00  0.00    -0.075 NA
ENDBRANCH  16  17
ENDBRANCH  15  16
ENDBRANCH  13  15
ENDBRANCH   1  13
BRANCH  12  22
HETATM   22  C9  UNL     1      29.741  13.716   1.469  1.00  0.00     0.003 C 
HETATM   23  C10 UNL     1      30.741  14.719   1.025  1.00  0.00     0.006 C 
HETATM   24  C11 UNL     1      30.118  16.016   0.549  1.00  0.00     0.000 C 
HETATM   25  C12 UNL     1      28.953  16.477   1.350  1.00  0.00     0.000 C 
HETATM   26  C13 UNL     1      28.071  15.412   1.908  1.00  0.00     0.000 C 
HETATM   27  C14 UNL     1      28.309  14.149   1.104  1.00  0.00     0.006 C 
ENDBRANCH  12  22
TORSDOF 5
ENDMDL
MODEL 4
REMARK VINA RESULT: -8.465279969      3.448      5.043
REMARK  5 active torsions:
REMARK  status: ('A' for Active; 'I' for Inactive)
REMARK    1  A    between atoms: C1_4  and  S1_6 
REMARK    2  A    between atoms: S1_6  and  C2_7 
REMARK    3  A    between atoms: C2_7  and  C3_8 
REMARK    4  A    between atoms: C3_8  and  C4_10 
REMARK    5  A    between atoms: C8_21  and  C9_22 
ROOT
HETATM    1  C4  UNL     1      29.653  11.748   0.690  1.00  0.00     0.085 C 
HETATM    2  N3  UNL     1      29.791  10.862   1.596  1.00  0.00    -0.286 N 
ATOM      3  H3  UNL     1      29.919  11.257   2.527  1.00  0.00     0.188 HD
HETATM    4  N4  UNL     1      29.806   9.474   1.584  1.00  0.00    -0.247 N 
ATOM      5  H4  UNL     1      30.543   9.108   2.188  1.00  0.00     0.208 HD
HETATM    6  N5  UNL     1      29.158   8.533   1.034  1.00  0.00    -0.322 N 
ATOM      7  H5  UNL     1      29.464   7.589   1.271  1.00  0.00     0.181 HD
HETATM    8  C5  UNL     1      28.027   8.619   0.102  1.00  0.00     0.148 C 
HETATM    9  C6  UNL     1      28.635   9.081  -1.198  1.00  0.00     0.100 C 
HETATM   10  C7  UNL     1      28.733  10.554  -1.297  1.00  0.00     0.139 C 
HETATM   11  O2  UNL     1      27.898  10.923  -2.143  1.00  0.00    -0.297 OA
HETATM   12  C8  UNL     1      29.447  11.714  -0.770  1.00  0.00     0.114 C 
ENDROOT
BRANCH   1  13
HETATM   13  C3  UNL     1      29.711  13.107   1.218  1.00  0.00     0.183 C 
HETATM   14  O1  UNL     1      28.883  13.946   0.795  1.00  0.00    -0.290 OA
BRANCH  13  15
HETATM   15  C2  UNL     1      30.746  13.452   2.233  1.00  0.00     0.167 C 
BRANCH  15  16
HETATM   16  S1  UNL     1      32.367  13.286   1.452  1.00  0.00    -0.090 SA
BRANCH  16  17
HETATM   17  C1  UNL     1      33.230  11.851   2.061  1.00  0.00     0.148 C 
HETATM   18  N1  UNL     1      34.142  12.006   2.943  1.00  0.00    -0.382 N 
ATOM     19  H12 UNL     1      34.636  11.184   3.292  1.00  0.00     0.157 HD
ATOM     20  H11 UNL     1      34.367  12.938   3.291  1.00  0.00     0.157 HD
HETATM   21  N2  UNL     1      32.917  10.555   1.578  1.00  0.00    -0.075 NA
ENDBRANCH  16  17
ENDBRANCH  15  16
ENDBRANCH  13  15
ENDBRANCH   1  13
BRANCH  12  22
HETATM   22  C9  UNL     1      30.731  12.021  -1.507  1.00  0.00     0.003 C 
HETATM   23  C10 UNL     1      31.348  10.880  -2.229  1.00  0.00     0.006 C 
HETATM   24  C11 UNL     1      31.808  11.236  -3.629  1.00  0.00     0.000 C 
HETATM   25  C12 UNL     1      32.430  12.580  -3.756  1.00  0.00     0.000 C 
HETATM   26  C13 UNL     1      31.873  13.652  -2.883  1.00  0.00     0.000 C 
HETATM   27  C14 UNL     1      30.488  13.216  -2.446  1.00  0.00     0.006 C 
ENDBRANCH  12  22
TORSDOF 5
ENDMDL
MODEL 5
REMARK VINA RESULT: -8.453663440      2.537      2.932
REMARK  5 active torsions:
REMARK  status: ('A' for Active; 'I' for Inactive)
REMARK    1  A    between atoms: C1_4  and  S1_6 
REMARK    2  A    between atoms: S1_6  and  C2_7 
REMARK    3  A    between atoms: C2_7  and  C3_8 
REMARK    4  A    between atoms: C3_8  and  C4_10 
REMARK    5  A    between atoms: C8_21  and  C9_22 
ROOT
HETATM    1  C4  UNL     1      31.253  12.441  -1.031  1.00  0.00     0.085 C 
HETATM    2  N3  UNL     1      30.743  11.325  -1.375  1.00  0.00    -0.286 N 
ATOM      3  H3  UNL     1      30.875  11.111  -2.364  1.00  0.00     0.188 HD
HETATM    4  N4  UNL     1      30.045  10.339  -0.691  1.00  0.00    -0.247 N 
ATOM      5  H4  UNL     1      29.256   9.998  -1.241  1.00  0.00     0.208 HD
HETATM    6  N5  UNL     1      30.114   9.743   0.426  1.00  0.00    -0.322 N 
ATOM      7  H5  UNL     1      29.395   9.040   0.596  1.00  0.00     0.181 HD
HETATM    8  C5  UNL     1      31.090   9.929   1.507  1.00  0.00     0.148 C 
HETATM    9  C6  UNL     1      30.723  11.250   2.134  1.00  0.00     0.100 C 
HETATM   10  C7  UNL     1      31.359  12.404   1.460  1.00  0.00     0.139 C 
HETATM   11  O2  UNL     1      32.222  12.853   2.236  1.00  0.00    -0.297 OA
HETATM   12  C8  UNL     1      31.339  13.195   0.233  1.00  0.00     0.114 C 
ENDROOT
BRANCH   1  13
HETATM   13  C3  UNL     1      31.900  13.131  -2.142  1.00  0.00     0.183 C 
HETATM   14  O1  UNL     1      32.927  13.807  -1.906  1.00  0.00    -0.290 OA
BRANCH  13  15
HETATM   15  C2  UNL     1      31.324  13.011  -3.511  1.00  0.00     0.167 C 
BRANCH  15  16
HETATM   16  S1  UNL     1      29.707  13.819  -3.505  1.00  0.00    -0.090 SA
BRANCH  16  17
HETATM   17  C1  UNL     1      28.411  12.668  -3.911  1.00  0.00     0.148 C 
HETATM   18  N1  UNL     1      27.781  12.808  -5.014  1.00  0.00    -0.382 N 
ATOM     19  H12 UNL     1      27.038  12.149  -5.246  1.00  0.00     0.157 HD
ATOM     20  H11 UNL     1      28.022  13.570  -5.649  1.00  0.00     0.157 HD
HETATM   21  N2  UNL     1      28.076  11.609  -3.029  1.00  0.00    -0.075 NA
ENDBRANCH  16  17
ENDBRANCH  15  16
ENDBRANCH  13  15
ENDBRANCH   1  13
BRANCH  12  22
HETATM   22  C9  UNL     1      30.337  14.328   0.259  1.00  0.00     0.003 C 
HETATM   23  C10 UNL     1      29.020  14.009   0.866  1.00  0.00     0.006 C 
HETATM   24  C11 UNL     1      28.526  15.079   1.819  1.00  0.00     0.000 C 
HETATM   25  C12 UNL     1      28.789  16.475   1.378  1.00  0.00     0.000 C 
HETATM   26  C13 UNL     1      30.057  16.703   0.628  1.00  0.00     0.000 C 
HETATM   27  C14 UNL     1      30.989  15.548   0.935  1.00  0.00     0.006 C 
ENDBRANCH  12  22
TORSDOF 5
ENDMDL
