MODEL 1
REMARK VINA RESULT: -8.386828814      0.000      0.000
REMARK  5 active torsions:
REMARK  status: ('A' for Active; 'I' for Inactive)
REMARK    1  A    between atoms: C2_2  and  N1_5 
REMARK       I    between atoms: N1_5  and  C5_7 
REMARK       I    between atoms: C5_7  and  N2_9 
REMARK       I    between atoms: N2_9  and  C6_11 
REMARK    2  A    between atoms: C6_11  and  C7_13 
REMARK    3  A    between atoms: C7_13  and  S1_14 
REMARK    4  A    between atoms: S1_14  and  C8_15 
REMARK    5  A    between atoms: C9_20  and  C10_21 
ROOT
HETATM    1  C7  UNL     1      30.342   8.500   5.058  1.00  0.00     0.186 C 
ENDROOT
BRANCH   1   2
HETATM    2  C6  UNL     1      30.759   9.659   4.238  1.00  0.00     0.235 C 
HETATM    3  N2  UNL     1      31.716   9.606   3.207  1.00  0.00    -0.279 N 
HETATM    4  C5  UNL     1      32.182  10.647   2.394  1.00  0.00     0.323 C 
ATOM      5  H2  UNL     1      32.123   8.688   3.028  1.00  0.00     0.173 HD
HETATM    6  N1  UNL     1      31.801  11.998   2.406  1.00  0.00    -0.335 N 
HETATM    7  O1  UNL     1      33.079  10.353   1.510  1.00  0.00    -0.247 OA
ATOM      8  H1  UNL     1      31.097  12.298   3.081  1.00  0.00     0.165 HD
HETATM    9  O2  UNL     1      30.199  10.752   4.498  1.00  0.00    -0.272 OA
BRANCH   6  10
HETATM   10  C2  UNL     1      32.358  12.989   1.505  1.00  0.00     0.023 C 
HETATM   11  C1  UNL     1      31.736  14.332   1.885  1.00  0.00     0.037 C 
HETATM   12  C3  UNL     1      32.023  12.754   0.059  1.00  0.00     0.037 C 
HETATM   13  C4  UNL     1      33.856  13.053   1.630  1.00  0.00     0.037 C 
ENDBRANCH   6  10
ENDBRANCH   1   2
BRANCH   1  14
HETATM   14  S1  UNL     1      28.898   7.689   4.372  1.00  0.00    -0.075 SA
BRANCH  14  15
HETATM   15  C8  UNL     1      28.305   8.545   2.924  1.00  0.00     0.203 A 
HETATM   16  N3  UNL     1      27.494   9.591   2.869  1.00  0.00    -0.272 N 
HETATM   17  N4  UNL     1      27.267   9.963   1.614  1.00  0.00    -0.281 N 
ATOM     18  H3  UNL     1      27.094  10.052   3.687  1.00  0.00     0.189 HD
HETATM   19  C9  UNL     1      27.971   9.106   0.860  1.00  0.00     0.145 A 
ATOM     20  H4  UNL     1      26.682  10.735   1.292  1.00  0.00     0.189 HD
HETATM   21  O3  UNL     1      28.586   8.264   1.665  1.00  0.00    -0.272 OA
BRANCH  19  22
HETATM   22  C10 UNL     1      28.085   9.051  -0.644  1.00  0.00     0.062 C 
HETATM   23  C11 UNL     1      29.489   8.911  -1.101  1.00  0.00     0.013 C 
HETATM   24  C12 UNL     1      29.637  10.012  -2.169  1.00  0.00     0.001 C 
HETATM   25  C13 UNL     1      28.870  11.120  -1.476  1.00  0.00     0.001 C 
HETATM   26  C14 UNL     1      27.583  10.426  -1.108  1.00  0.00     0.013 C 
ENDBRANCH  19  22
ENDBRANCH  14  15
ENDBRANCH   1  14
TORSDOF 5
ENDMDL
MODEL 2
REMARK VINA RESULT: -8.033555442      2.855      5.569
REMARK  5 active torsions:
REMARK  status: ('A' for Active; 'I' for Inactive)
REMARK    1  A    between atoms: C2_2  and  N1_5 
REMARK       I    between atoms: N1_5  and  C5_7 
REMARK       I    between atoms: C5_7  and  N2_9 
REMARK       I    between atoms: N2_9  and  C6_11 
REMARK    2  A    between atoms: C6_11  and  C7_13 
REMARK    3  A    between atoms: C7_13  and  S1_14 
REMARK    4  A    between atoms: S1_14  and  C8_15 
REMARK    5  A    between atoms: C9_20  and  C10_21 
ROOT
HETATM    1  C7  UNL     1      28.332   8.858  -0.739  1.00  0.00     0.186 C 
ENDROOT
BRANCH   1   2
HETATM    2  C6  UNL     1      28.867  10.149  -1.225  1.00  0.00     0.235 C 
HETATM    3  N2  UNL     1      29.769  10.960  -0.512  1.00  0.00    -0.279 N 
HETATM    4  C5  UNL     1      30.313  12.196  -0.883  1.00  0.00     0.323 C 
ATOM      5  H2  UNL     1      30.067  10.599   0.395  1.00  0.00     0.173 HD
HETATM    6  N1  UNL     1      30.094  12.924  -2.064  1.00  0.00    -0.335 N 
HETATM    7  O1  UNL     1      31.125  12.761  -0.050  1.00  0.00    -0.247 OA
ATOM      8  H1  UNL     1      29.463  12.534  -2.764  1.00  0.00     0.165 HD
HETATM    9  O2  UNL     1      28.474  10.519  -2.359  1.00  0.00    -0.272 OA
BRANCH   6  10
HETATM   10  C2  UNL     1      30.723  14.202  -2.337  1.00  0.00     0.023 C 
HETATM   11  C1  UNL     1      30.319  14.599  -3.757  1.00  0.00     0.037 C 
HETATM   12  C3  UNL     1      32.224  14.160  -2.314  1.00  0.00     0.037 C 
HETATM   13  C4  UNL     1      30.272  15.249  -1.354  1.00  0.00     0.037 C 
ENDBRANCH   6  10
ENDBRANCH   1   2
BRANCH   1  14
HETATM   14  S1  UNL     1      27.673   8.998   0.923  1.00  0.00    -0.075 SA
BRANCH  14  15
HETATM   15  C8  UNL     1      28.869   8.472   2.137  1.00  0.00     0.203 A 
HETATM   16  N3  UNL     1      30.178   8.680   2.137  1.00  0.00    -0.272 N 
HETATM   17  N4  UNL     1      30.754   8.142   3.206  1.00  0.00    -0.281 N 
ATOM     18  H3  UNL     1      30.679   9.190   1.408  1.00  0.00     0.189 HD
HETATM   19  C9  UNL     1      29.754   7.575   3.897  1.00  0.00     0.145 A 
ATOM     20  H4  UNL     1      31.745   8.155   3.449  1.00  0.00     0.189 HD
HETATM   21  O3  UNL     1      28.633   7.785   3.239  1.00  0.00    -0.272 OA
BRANCH  19  22
HETATM   22  C10 UNL     1      29.824   6.815   5.200  1.00  0.00     0.062 C 
HETATM   23  C11 UNL     1      28.486   6.386   5.677  1.00  0.00     0.013 C 
HETATM   24  C12 UNL     1      28.460   6.847   7.147  1.00  0.00     0.001 C 
HETATM   25  C13 UNL     1      29.128   8.197   6.986  1.00  0.00     0.001 C 
HETATM   26  C14 UNL     1      30.366   7.842   6.204  1.00  0.00     0.013 C 
ENDBRANCH  19  22
ENDBRANCH  14  15
ENDBRANCH   1  14
TORSDOF 5
ENDMDL
MODEL 3
REMARK VINA RESULT: -7.974932925      2.775      5.606
REMARK  5 active torsions:
REMARK  status: ('A' for Active; 'I' for Inactive)
REMARK    1  A    between atoms: C2_2  and  N1_5 
REMARK       I    between atoms: N1_5  and  C5_7 
REMARK       I    between atoms: C5_7  and  N2_9 
REMARK       I    between atoms: N2_9  and  C6_11 
REMARK    2  A    between atoms: C6_11  and  C7_13 
REMARK    3  A    between atoms: C7_13  and  S1_14 
REMARK    4  A    between atoms: S1_14  and  C8_15 
REMARK    5  A    between atoms: C9_20  and  C10_21 
ROOT
HETATM    1  C7  UNL     1      27.782   8.884   0.181  1.00  0.00     0.186 C 
ENDROOT
BRANCH   1   2
HETATM    2  C6  UNL     1      28.259   8.692   1.568  1.00  0.00     0.235 C 
HETATM    3  N2  UNL     1      29.613   8.682   1.953  1.00  0.00    -0.279 N 
HETATM    4  C5  UNL     1      30.155   8.492   3.231  1.00  0.00     0.323 C 
ATOM      5  H2  UNL     1      30.287   8.834   1.203  1.00  0.00     0.173 HD
HETATM    6  N1  UNL     1      29.477   8.273   4.441  1.00  0.00    -0.335 N 
HETATM    7  O1  UNL     1      31.444   8.519   3.338  1.00  0.00    -0.247 OA
ATOM      8  H1  UNL     1      28.458   8.240   4.426  1.00  0.00     0.165 HD
HETATM    9  O2  UNL     1      27.372   8.534   2.442  1.00  0.00    -0.272 OA
BRANCH   6  10
HETATM   10  C2  UNL     1      30.155   8.093   5.710  1.00  0.00     0.023 C 
HETATM   11  C1  UNL     1      29.075   7.816   6.754  1.00  0.00     0.037 C 
HETATM   12  C3  UNL     1      30.904   9.308   6.179  1.00  0.00     0.037 C 
HETATM   13  C4  UNL     1      31.127   6.945   5.646  1.00  0.00     0.037 C 
ENDBRANCH   6  10
ENDBRANCH   1   2
BRANCH   1  14
HETATM   14  S1  UNL     1      28.769  10.096  -0.698  1.00  0.00    -0.075 SA
BRANCH  14  15
HETATM   15  C8  UNL     1      28.453  11.745  -0.094  1.00  0.00     0.203 A 
HETATM   16  N3  UNL     1      27.335  12.449  -0.193  1.00  0.00    -0.272 N 
HETATM   17  N4  UNL     1      27.464  13.644   0.375  1.00  0.00    -0.281 N 
ATOM     18  H3  UNL     1      26.484  12.117  -0.647  1.00  0.00     0.189 HD
HETATM   19  C9  UNL     1      28.719  13.677   0.844  1.00  0.00     0.145 A 
ATOM     20  H4  UNL     1      26.759  14.379   0.438  1.00  0.00     0.189 HD
HETATM   21  O3  UNL     1      29.295  12.528   0.553  1.00  0.00    -0.272 OA
BRANCH  19  22
HETATM   22  C10 UNL     1      29.419  14.794   1.582  1.00  0.00     0.062 C 
HETATM   23  C11 UNL     1      28.690  16.082   1.480  1.00  0.00     0.013 C 
HETATM   24  C12 UNL     1      29.780  17.083   1.050  1.00  0.00     0.001 C 
HETATM   25  C13 UNL     1      30.516  16.218   0.047  1.00  0.00     0.001 C 
HETATM   26  C14 UNL     1      30.752  14.956   0.837  1.00  0.00     0.013 C 
ENDBRANCH  19  22
ENDBRANCH  14  15
ENDBRANCH   1  14
TORSDOF 5
ENDMDL
MODEL 4
REMARK VINA RESULT: -7.862243229      0.988      1.419
REMARK  5 active torsions:
REMARK  status: ('A' for Active; 'I' for Inactive)
REMARK    1  A    between atoms: C2_2  and  N1_5 
REMARK       I    between atoms: N1_5  and  C5_7 
REMARK       I    between atoms: C5_7  and  N2_9 
REMARK       I    between atoms: N2_9  and  C6_11 
REMARK    2  A    between atoms: C6_11  and  C7_13 
REMARK    3  A    between atoms: C7_13  and  S1_14 
REMARK    4  A    between atoms: S1_14  and  C8_15 
REMARK    5  A    between atoms: C9_20  and  C10_21 
ROOT
HETATM    1  C7  UNL     1      30.159   8.681   4.682  1.00  0.00     0.186 C 
ENDROOT
BRANCH   1   2
HETATM    2  C6  UNL     1      30.724   9.851   3.976  1.00  0.00     0.235 C 
HETATM    3  N2  UNL     1      31.718   9.782   2.982  1.00  0.00    -0.279 N 
HETATM    4  C5  UNL     1      32.320  10.830   2.275  1.00  0.00     0.323 C 
ATOM      5  H2  UNL     1      32.042   8.844   2.745  1.00  0.00     0.173 HD
HETATM    6  N1  UNL     1      32.072  12.208   2.382  1.00  0.00    -0.335 N 
HETATM    7  O1  UNL     1      33.224  10.517   1.405  1.00  0.00    -0.247 OA
ATOM      8  H1  UNL     1      31.370  12.524   3.051  1.00  0.00     0.165 HD
HETATM    9  O2  UNL     1      30.261  10.972   4.303  1.00  0.00    -0.272 OA
BRANCH   6  10
HETATM   10  C2  UNL     1      32.763  13.204   1.586  1.00  0.00     0.023 C 
HETATM   11  C1  UNL     1      32.278  14.570   2.068  1.00  0.00     0.037 C 
HETATM   12  C3  UNL     1      32.455  13.132   0.118  1.00  0.00     0.037 C 
HETATM   13  C4  UNL     1      34.255  13.090   1.753  1.00  0.00     0.037 C 
ENDBRANCH   6  10
ENDBRANCH   1   2
BRANCH   1  14
HETATM   14  S1  UNL     1      29.087   7.717   3.616  1.00  0.00    -0.075 SA
BRANCH  14  15
HETATM   15  C8  UNL     1      28.424   8.717   2.296  1.00  0.00     0.203 A 
HETATM   16  N3  UNL     1      27.154   8.880   1.954  1.00  0.00    -0.272 N 
HETATM   17  N4  UNL     1      27.034   9.701   0.916  1.00  0.00    -0.281 N 
ATOM     18  H3  UNL     1      26.369   8.432   2.427  1.00  0.00     0.189 HD
HETATM   19  C9  UNL     1      28.287  10.060   0.605  1.00  0.00     0.145 A 
ATOM     20  H4  UNL     1      26.172   9.995   0.455  1.00  0.00     0.189 HD
HETATM   21  O3  UNL     1      29.106   9.460   1.444  1.00  0.00    -0.272 OA
BRANCH  19  22
HETATM   22  C10 UNL     1      28.756  10.980  -0.498  1.00  0.00     0.062 C 
HETATM   23  C11 UNL     1      28.816  12.398  -0.064  1.00  0.00     0.013 C 
HETATM   24  C12 UNL     1      28.060  13.151  -1.176  1.00  0.00     0.001 C 
HETATM   25  C13 UNL     1      26.923  12.173  -1.394  1.00  0.00     0.001 C 
HETATM   26  C14 UNL     1      27.660  10.870  -1.568  1.00  0.00     0.013 C 
ENDBRANCH  19  22
ENDBRANCH  14  15
ENDBRANCH   1  14
TORSDOF 5
ENDMDL
MODEL 5
REMARK VINA RESULT: -7.850974411      2.970      5.452
REMARK  5 active torsions:
REMARK  status: ('A' for Active; 'I' for Inactive)
REMARK    1  A    between atoms: C2_2  and  N1_5 
REMARK       I    between atoms: N1_5  and  C5_7 
REMARK       I    between atoms: C5_7  and  N2_9 
REMARK       I    between atoms: N2_9  and  C6_11 
REMARK    2  A    between atoms: C6_11  and  C7_13 
REMARK    3  A    between atoms: C7_13  and  S1_14 
REMARK    4  A    between atoms: S1_14  and  C8_15 
REMARK    5  A    between atoms: C9_20  and  C10_21 
ROOT
HETATM    1  C7  UNL     1      27.768   8.959   0.164  1.00  0.00     0.186 C 
ENDROOT
BRANCH   1   2
HETATM    2  C6  UNL     1      28.250   8.748   1.547  1.00  0.00     0.235 C 
HETATM    3  N2  UNL     1      29.605   8.740   1.928  1.00  0.00    -0.279 N 
HETATM    4  C5  UNL     1      30.152   8.533   3.201  1.00  0.00     0.323 C 
ATOM      5  H2  UNL     1      30.277   8.907   1.179  1.00  0.00     0.173 HD
HETATM    6  N1  UNL     1      29.479   8.292   4.409  1.00  0.00    -0.335 N 
HETATM    7  O1  UNL     1      31.441   8.566   3.305  1.00  0.00    -0.247 OA
ATOM      8  H1  UNL     1      28.460   8.253   4.397  1.00  0.00     0.165 HD
HETATM    9  O2  UNL     1      27.367   8.572   2.421  1.00  0.00    -0.272 OA
BRANCH   6  10
HETATM   10  C2  UNL     1      30.162   8.096   5.674  1.00  0.00     0.023 C 
HETATM   11  C1  UNL     1      29.085   7.809   6.718  1.00  0.00     0.037 C 
HETATM   12  C3  UNL     1      30.915   9.304   6.153  1.00  0.00     0.037 C 
HETATM   13  C4  UNL     1      31.132   6.947   5.593  1.00  0.00     0.037 C 
ENDBRANCH   6  10
ENDBRANCH   1   2
BRANCH   1  14
HETATM   14  S1  UNL     1      29.118   8.958  -1.016  1.00  0.00    -0.075 SA
BRANCH  14  15
HETATM   15  C8  UNL     1      29.507  10.615  -1.551  1.00  0.00     0.203 A 
HETATM   16  N3  UNL     1      30.368  10.990  -2.486  1.00  0.00    -0.272 N 
HETATM   17  N4  UNL     1      30.396  12.312  -2.617  1.00  0.00    -0.281 N 
ATOM     18  H3  UNL     1      30.936  10.345  -3.037  1.00  0.00     0.189 HD
HETATM   19  C9  UNL     1      29.512  12.773  -1.720  1.00  0.00     0.145 A 
ATOM     20  H4  UNL     1      30.968  12.859  -3.260  1.00  0.00     0.189 HD
HETATM   21  O3  UNL     1      28.990  11.739  -1.092  1.00  0.00    -0.272 OA
BRANCH  19  22
HETATM   22  C10 UNL     1      29.133  14.204  -1.424  1.00  0.00     0.062 C 
HETATM   23  C11 UNL     1      30.293  15.124  -1.500  1.00  0.00     0.013 C 
HETATM   24  C12 UNL     1      30.212  15.923  -0.185  1.00  0.00     0.001 C 
HETATM   25  C13 UNL     1      29.833  14.796   0.755  1.00  0.00     0.001 C 
HETATM   26  C14 UNL     1      28.664  14.171   0.038  1.00  0.00     0.013 C 
ENDBRANCH  19  22
ENDBRANCH  14  15
ENDBRANCH   1  14
TORSDOF 5
ENDMDL
