MODEL 1
REMARK VINA RESULT: -8.190122429      0.000      0.000
REMARK  4 active torsions:
REMARK  status: ('A' for Active; 'I' for Inactive)
REMARK    1  A    between atoms: N2_4  and  C1_6 
REMARK    2  A    between atoms: C6_11  and  C7_12 
REMARK    3  A    between atoms: N4_21  and  N5_22 
REMARK    4  A    between atoms: N5_22  and  N6_24 
ROOT
HETATM    1  C7  UNL     1      29.395  10.003   1.648  1.00  0.00     0.278 C 
HETATM    2  O1  UNL     1      29.351  11.280   2.133  1.00  0.00    -0.259 OA
HETATM    3  N3  UNL     1      28.749  12.074   1.216  1.00  0.00    -0.092 NA
HETATM    4  C8  UNL     1      29.670  12.312   0.119  1.00  0.00     0.127 C 
HETATM    5  C9  UNL     1      29.006  12.979  -1.046  1.00  0.00     0.035 C 
HETATM    6  C10 UNL     1      30.070  13.198  -2.121  1.00  0.00     0.075 C 
HETATM    7  S1  UNL     1      31.754  12.913  -1.449  1.00  0.00    -0.167 SA
HETATM    8  C11 UNL     1      31.763  11.321  -0.519  1.00  0.00     0.097 C 
HETATM    9  C12 UNL     1      30.273  11.008  -0.353  1.00  0.00     0.115 C 
HETATM   10  N4  UNL     1      29.965   9.866   0.389  1.00  0.00    -0.169 NA
ENDROOT
BRANCH   1  11
HETATM   11  C6  UNL     1      29.876   9.051   2.702  1.00  0.00     0.016 A 
HETATM   12  C1  UNL     1      31.173   8.979   3.107  1.00  0.00     0.057 A 
HETATM   13  C2  UNL     1      31.479   8.031   4.090  1.00  0.00     0.031 A 
HETATM   14  C3  UNL     1      30.531   7.201   4.635  1.00  0.00     0.002 A 
HETATM   15  C4  UNL     1      29.223   7.294   4.209  1.00  0.00     0.001 A 
HETATM   16  C5  UNL     1      28.904   8.232   3.232  1.00  0.00     0.013 A 
BRANCH  12  17
HETATM   17  N2  UNL     1      32.194   9.826   2.586  1.00  0.00    -0.307 N 
HETATM   18  N1  UNL     1      32.403  10.996   3.016  1.00  0.00    -0.345 N 
ATOM     19  H12 UNL     1      31.804  11.334   3.770  1.00  0.00     0.176 HD
ATOM     20  H11 UNL     1      33.134  11.602   2.643  1.00  0.00     0.176 HD
ATOM     21  H2  UNL     1      32.783   9.471   1.832  1.00  0.00     0.186 HD
ENDBRANCH  12  17
ENDBRANCH   1  11
BRANCH  10  22
HETATM   22  N5  UNL     1      29.128   9.000  -0.394  1.00  0.00    -0.199 N 
ATOM     23  H5  UNL     1      29.565   8.294  -0.986  1.00  0.00     0.208 HD
BRANCH  22  24
HETATM   24  N6  UNL     1      27.744   9.093  -0.370  1.00  0.00    -0.028 N 
HETATM   25  O2  UNL     1      27.016   8.321   0.300  1.00  0.00    -0.516 OA
HETATM   26  O3  UNL     1      27.090  10.063  -1.102  1.00  0.00    -0.516 OA
ENDBRANCH  22  24
ENDBRANCH  10  22
TORSDOF 4
ENDMDL
MODEL 2
REMARK VINA RESULT: -8.121309704      4.467      6.379
REMARK  4 active torsions:
REMARK  status: ('A' for Active; 'I' for Inactive)
REMARK    1  A    between atoms: N2_4  and  C1_6 
REMARK    2  A    between atoms: C6_11  and  C7_12 
REMARK    3  A    between atoms: N4_21  and  N5_22 
REMARK    4  A    between atoms: N5_22  and  N6_24 
ROOT
HETATM    1  C7  UNL     1      30.385  14.026  -1.995  1.00  0.00     0.278 C 
HETATM    2  O1  UNL     1      30.147  14.921  -0.991  1.00  0.00    -0.259 OA
HETATM    3  N3  UNL     1      31.306  15.547  -0.681  1.00  0.00    -0.092 NA
HETATM    4  C8  UNL     1      32.153  14.634   0.066  1.00  0.00     0.127 C 
HETATM    5  C9  UNL     1      33.543  15.161   0.239  1.00  0.00     0.035 C 
HETATM    6  C10 UNL     1      34.329  14.134   1.053  1.00  0.00     0.075 C 
HETATM    7  S1  UNL     1      33.209  12.881   1.791  1.00  0.00    -0.167 SA
HETATM    8  C11 UNL     1      32.057  12.271   0.487  1.00  0.00     0.097 C 
HETATM    9  C12 UNL     1      32.231  13.297  -0.637  1.00  0.00     0.115 C 
HETATM   10  N4  UNL     1      31.414  13.125  -1.756  1.00  0.00    -0.169 NA
ENDROOT
BRANCH   1  11
HETATM   11  C6  UNL     1      29.099  13.447  -2.507  1.00  0.00     0.016 A 
HETATM   12  C1  UNL     1      28.134  12.939  -1.693  1.00  0.00     0.057 A 
HETATM   13  C2  UNL     1      26.993  12.416  -2.311  1.00  0.00     0.031 A 
HETATM   14  C3  UNL     1      26.831  12.407  -3.675  1.00  0.00     0.002 A 
HETATM   15  C4  UNL     1      27.823  12.928  -4.478  1.00  0.00     0.001 A 
HETATM   16  C5  UNL     1      28.964  13.451  -3.877  1.00  0.00     0.013 A 
BRANCH  12  17
HETATM   17  N2  UNL     1      28.243  12.936  -0.272  1.00  0.00    -0.307 N 
HETATM   18  N1  UNL     1      27.659  13.782   0.464  1.00  0.00    -0.345 N 
ATOM     19  H12 UNL     1      27.088  14.491   0.003  1.00  0.00     0.176 HD
ATOM     20  H11 UNL     1      27.737  13.781   1.481  1.00  0.00     0.176 HD
ATOM     21  H2  UNL     1      28.819  12.220   0.172  1.00  0.00     0.186 HD
ENDBRANCH  12  17
ENDBRANCH   1  11
BRANCH  10  22
HETATM   22  N5  UNL     1      32.231  13.048  -2.935  1.00  0.00    -0.199 N 
ATOM     23  H5  UNL     1      32.724  13.884  -3.250  1.00  0.00     0.208 HD
BRANCH  22  24
HETATM   24  N6  UNL     1      32.371  11.874  -3.660  1.00  0.00    -0.028 N 
HETATM   25  O2  UNL     1      31.995  10.755  -3.233  1.00  0.00    -0.516 OA
HETATM   26  O3  UNL     1      32.947  11.884  -4.914  1.00  0.00    -0.516 OA
ENDBRANCH  22  24
ENDBRANCH  10  22
TORSDOF 4
ENDMDL
MODEL 3
REMARK VINA RESULT: -8.103026730      2.483      6.119
REMARK  4 active torsions:
REMARK  status: ('A' for Active; 'I' for Inactive)
REMARK    1  A    between atoms: N2_4  and  C1_6 
REMARK    2  A    between atoms: C6_11  and  C7_12 
REMARK    3  A    between atoms: N4_21  and  N5_22 
REMARK    4  A    between atoms: N5_22  and  N6_24 
ROOT
HETATM    1  C7  UNL     1      29.638  12.043  -0.258  1.00  0.00     0.278 C 
HETATM    2  O1  UNL     1      28.813  12.587   0.686  1.00  0.00    -0.259 OA
HETATM    3  N3  UNL     1      29.331  12.340   1.912  1.00  0.00    -0.092 NA
HETATM    4  C8  UNL     1      29.115  10.943   2.244  1.00  0.00     0.127 C 
HETATM    5  C9  UNL     1      29.865  10.529   3.472  1.00  0.00     0.035 C 
HETATM    6  C10 UNL     1      29.545   9.058   3.734  1.00  0.00     0.075 C 
HETATM    7  S1  UNL     1      28.133   8.496   2.705  1.00  0.00    -0.167 SA
HETATM    8  C11 UNL     1      28.414   9.035   0.964  1.00  0.00     0.097 C 
HETATM    9  C12 UNL     1      29.547  10.058   1.096  1.00  0.00     0.115 C 
HETATM   10  N4  UNL     1      29.935  10.699  -0.082  1.00  0.00    -0.169 NA
ENDROOT
BRANCH   1  11
HETATM   11  C6  UNL     1      29.212  12.455  -1.636  1.00  0.00     0.016 A 
HETATM   12  C1  UNL     1      28.059  12.029  -2.219  1.00  0.00     0.057 A 
HETATM   13  C2  UNL     1      27.799  12.483  -3.517  1.00  0.00     0.031 A 
HETATM   14  C3  UNL     1      28.653  13.320  -4.191  1.00  0.00     0.002 A 
HETATM   15  C4  UNL     1      29.815  13.739  -3.578  1.00  0.00     0.001 A 
HETATM   16  C5  UNL     1      30.087  13.295  -2.288  1.00  0.00     0.013 A 
BRANCH  12  17
HETATM   17  N2  UNL     1      27.130  11.172  -1.561  1.00  0.00    -0.307 N 
HETATM   18  N1  UNL     1      26.163  11.606  -0.872  1.00  0.00    -0.345 N 
ATOM     19  H12 UNL     1      26.057  12.618  -0.795  1.00  0.00     0.176 HD
ATOM     20  H11 UNL     1      25.498  10.992  -0.401  1.00  0.00     0.176 HD
ATOM     21  H2  UNL     1      27.252  10.162  -1.649  1.00  0.00     0.186 HD
ENDBRANCH  12  17
ENDBRANCH   1  11
BRANCH  10  22
HETATM   22  N5  UNL     1      31.347  10.519  -0.279  1.00  0.00    -0.199 N 
ATOM     23  H5  UNL     1      31.702  10.404  -1.228  1.00  0.00     0.208 HD
BRANCH  22  24
HETATM   24  N6  UNL     1      32.243  10.496   0.780  1.00  0.00    -0.028 N 
HETATM   25  O2  UNL     1      32.635   9.435   1.323  1.00  0.00    -0.516 OA
HETATM   26  O3  UNL     1      32.754  11.669   1.296  1.00  0.00    -0.516 OA
ENDBRANCH  22  24
ENDBRANCH  10  22
TORSDOF 4
ENDMDL
MODEL 4
REMARK VINA RESULT: -8.073363938      2.021      5.317
REMARK  4 active torsions:
REMARK  status: ('A' for Active; 'I' for Inactive)
REMARK    1  A    between atoms: N2_4  and  C1_6 
REMARK    2  A    between atoms: C6_11  and  C7_12 
REMARK    3  A    between atoms: N4_21  and  N5_22 
REMARK    4  A    between atoms: N5_22  and  N6_24 
ROOT
HETATM    1  C7  UNL     1      30.841  10.923  -0.014  1.00  0.00     0.278 C 
HETATM    2  O1  UNL     1      31.988  11.275   0.641  1.00  0.00    -0.259 OA
HETATM    3  N3  UNL     1      32.511  10.172   1.226  1.00  0.00    -0.092 NA
HETATM    4  C8  UNL     1      31.714   9.832   2.392  1.00  0.00     0.127 C 
HETATM    5  C9  UNL     1      32.077   8.494   2.957  1.00  0.00     0.035 C 
HETATM    6  C10 UNL     1      31.197   8.256   4.183  1.00  0.00     0.075 C 
HETATM    7  S1  UNL     1      30.337   9.797   4.687  1.00  0.00    -0.167 SA
HETATM    8  C11 UNL     1      29.574  10.567   3.196  1.00  0.00     0.097 C 
HETATM    9  C12 UNL     1      30.244   9.821   2.038  1.00  0.00     0.115 C 
HETATM   10  N4  UNL     1      29.902  10.248   0.753  1.00  0.00    -0.169 NA
ENDROOT
BRANCH   1  11
HETATM   11  C6  UNL     1      30.328  12.066  -0.839  1.00  0.00     0.016 A 
HETATM   12  C1  UNL     1      29.849  13.219  -0.298  1.00  0.00     0.057 A 
HETATM   13  C2  UNL     1      29.389  14.195  -1.190  1.00  0.00     0.031 A 
HETATM   14  C3  UNL     1      29.410  14.019  -2.551  1.00  0.00     0.002 A 
HETATM   15  C4  UNL     1      29.902  12.842  -3.075  1.00  0.00     0.001 A 
HETATM   16  C5  UNL     1      30.363  11.863  -2.200  1.00  0.00     0.013 A 
BRANCH  12  17
HETATM   17  N2  UNL     1      29.817  13.460   1.106  1.00  0.00    -0.307 N 
HETATM   18  N1  UNL     1      30.802  13.928   1.746  1.00  0.00    -0.345 N 
ATOM     19  H12 UNL     1      31.650  14.136   1.219  1.00  0.00     0.176 HD
ATOM     20  H11 UNL     1      30.779  14.100   2.751  1.00  0.00     0.176 HD
ATOM     21  H2  UNL     1      28.960  13.246   1.618  1.00  0.00     0.186 HD
ENDBRANCH  12  17
ENDBRANCH   1  11
BRANCH  10  22
HETATM   22  N5  UNL     1      29.417   9.130  -0.007  1.00  0.00    -0.199 N 
ATOM     23  H5  UNL     1      30.070   8.392  -0.272  1.00  0.00     0.208 HD
BRANCH  22  24
HETATM   24  N6  UNL     1      28.088   9.020  -0.391  1.00  0.00    -0.028 N 
HETATM   25  O2  UNL     1      27.217   8.448   0.309  1.00  0.00    -0.516 OA
HETATM   26  O3  UNL     1      27.656   9.547  -1.590  1.00  0.00    -0.516 OA
ENDBRANCH  22  24
ENDBRANCH  10  22
TORSDOF 4
ENDMDL
MODEL 5
REMARK VINA RESULT: -8.062274837      1.283      1.457
REMARK  4 active torsions:
REMARK  status: ('A' for Active; 'I' for Inactive)
REMARK    1  A    between atoms: N2_4  and  C1_6 
REMARK    2  A    between atoms: C6_11  and  C7_12 
REMARK    3  A    between atoms: N4_21  and  N5_22 
REMARK    4  A    between atoms: N5_22  and  N6_24 
ROOT
HETATM    1  C7  UNL     1      29.303  11.012   0.928  1.00  0.00     0.278 C 
HETATM    2  O1  UNL     1      28.979  12.211   1.498  1.00  0.00    -0.259 OA
HETATM    3  N3  UNL     1      28.503  13.036   0.536  1.00  0.00    -0.092 NA
HETATM    4  C8  UNL     1      29.611  13.499  -0.281  1.00  0.00     0.127 C 
HETATM    5  C9  UNL     1      29.148  14.221  -1.508  1.00  0.00     0.035 C 
HETATM    6  C10 UNL     1      30.391  14.677  -2.271  1.00  0.00     0.075 C 
HETATM    7  S1  UNL     1      31.899  14.501  -1.241  1.00  0.00    -0.167 SA
HETATM    8  C11 UNL     1      31.906  12.822  -0.479  1.00  0.00     0.097 C 
HETATM    9  C12 UNL     1      30.473  12.332  -0.706  1.00  0.00     0.115 C 
HETATM   10  N4  UNL     1      30.158  11.085  -0.162  1.00  0.00    -0.169 NA
ENDROOT
BRANCH   1  11
HETATM   11  C6  UNL     1      29.651  10.001   1.980  1.00  0.00     0.016 A 
HETATM   12  C1  UNL     1      30.731  10.119   2.799  1.00  0.00     0.057 A 
HETATM   13  C2  UNL     1      30.942   9.090   3.724  1.00  0.00     0.031 A 
HETATM   14  C3  UNL     1      30.110   8.002   3.820  1.00  0.00     0.002 A 
HETATM   15  C4  UNL     1      29.021   7.906   2.980  1.00  0.00     0.001 A 
HETATM   16  C5  UNL     1      28.799   8.922   2.055  1.00  0.00     0.013 A 
BRANCH  12  17
HETATM   17  N2  UNL     1      31.620  11.232   2.753  1.00  0.00    -0.307 N 
HETATM   18  N1  UNL     1      32.877  11.108   2.724  1.00  0.00    -0.345 N 
ATOM     19  H12 UNL     1      33.257  10.161   2.736  1.00  0.00     0.176 HD
ATOM     20  H11 UNL     1      33.513  11.905   2.691  1.00  0.00     0.176 HD
ATOM     21  H2  UNL     1      31.222  12.172   2.742  1.00  0.00     0.186 HD
ENDBRANCH  12  17
ENDBRANCH   1  11
BRANCH  10  22
HETATM   22  N5  UNL     1      29.645  10.230  -1.197  1.00  0.00    -0.199 N 
ATOM     23  H5  UNL     1      30.249   9.505  -1.583  1.00  0.00     0.208 HD
BRANCH  22  24
HETATM   24  N6  UNL     1      28.353  10.359  -1.687  1.00  0.00    -0.028 N 
HETATM   25  O2  UNL     1      27.376   9.724  -1.221  1.00  0.00    -0.516 OA
HETATM   26  O3  UNL     1      28.080  11.213  -2.736  1.00  0.00    -0.516 OA
ENDBRANCH  22  24
ENDBRANCH  10  22
TORSDOF 4
ENDMDL
