MODEL 1
REMARK VINA RESULT: -7.376094324      0.000      0.000
REMARK  14 active torsions:
REMARK  status: ('A' for Active; 'I' for Inactive)
REMARK    1  A    between atoms: O1_2  and  C2_3 
REMARK    2  A    between atoms: C3_4  and  O2_5 
REMARK    3  A    between atoms: C5_9  and  N1_10 
REMARK    4  A    between atoms: N1_10  and  C6_11 
REMARK    5  A    between atoms: N1_10  and  C14_19 
REMARK    6  A    between atoms: C6_11  and  C7_12 
REMARK    7  A    between atoms: C7_12  and  C8_13 
REMARK    8  A    between atoms: C8_13  and  C9_14 
REMARK    9  A    between atoms: C14_19  and  C15_20 
REMARK   10  A    between atoms: C14_19  and  C16_23 
REMARK   11  A    between atoms: C15_20  and  O3_21 
REMARK   12  A    between atoms: C16_23  and  O4_24 
REMARK   13  A    between atoms: C18_30  and  C19_31 
REMARK   14  A    between atoms: C19_31  and  O6_32 
ROOT
HETATM    1  C2  UNL     1      27.669  11.945  -1.302  1.00  0.00     0.168 C 
HETATM    2  C3  UNL     1      28.193  10.632  -0.805  1.00  0.00     0.166 C 
HETATM    3  C4  UNL     1      28.637  10.541   0.564  1.00  0.00     0.135 C 
HETATM    4  S1  UNL     1      30.277   9.678   0.752  1.00  0.00    -0.082 SA
HETATM    5  C5  UNL     1      30.516  10.366   2.374  1.00  0.00     0.141 C 
HETATM    6  N2  UNL     1      29.794  11.378   2.433  1.00  0.00    -0.343 N 
ATOM      7  H2  UNL     1      29.772  11.937   3.286  1.00  0.00     0.164 HD
HETATM    8  C17 UNL     1      28.998  11.761   1.314  1.00  0.00     0.239 C 
HETATM    9  O5  UNL     1      29.783  12.659   0.603  1.00  0.00    -0.357 OA
HETATM   10  C18 UNL     1      29.140  13.597  -0.132  1.00  0.00     0.165 C 
HETATM   11  C20 UNL     1      28.754  12.987  -1.461  1.00  0.00     0.121 C 
HETATM   12  S2  UNL     1      30.184  12.169  -2.211  1.00  0.00    -0.087 SA
ENDROOT
BRANCH   5  13
HETATM   13  N1  UNL     1      31.384   9.836   3.394  1.00  0.00    -0.353 N 
BRANCH  13  14
HETATM   14  C6  UNL     1      32.773  10.142   3.350  1.00  0.00     0.125 C 
BRANCH  14  15
HETATM   15  C7  UNL     1      33.329  10.786   2.136  1.00  0.00     0.020 C 
BRANCH  15  16
HETATM   16  C8  UNL     1      33.877  12.195   2.480  1.00  0.00     0.006 C 
BRANCH  16  17
HETATM   17  C9  UNL     1      33.327  13.224   1.548  1.00  0.00    -0.014 C 
HETATM   18  C10 UNL     1      34.354  14.175   1.023  1.00  0.00     0.004 C 
HETATM   19  C11 UNL     1      33.849  15.579   1.244  1.00  0.00     0.000 C 
HETATM   20  C12 UNL     1      32.430  15.455   1.722  1.00  0.00     0.000 C 
HETATM   21  C13 UNL     1      32.350  14.082   2.359  1.00  0.00     0.004 C 
ENDBRANCH  16  17
ENDBRANCH  15  16
ENDBRANCH  14  15
ENDBRANCH  13  14
BRANCH  13  22
HETATM   22  C14 UNL     1      30.753   8.992   4.382  1.00  0.00     0.133 C 
BRANCH  22  23
HETATM   23  C15 UNL     1      30.947   7.526   4.053  1.00  0.00     0.191 C 
BRANCH  23  24
HETATM   24  O3  UNL     1      31.332   6.752   5.125  1.00  0.00    -0.399 OA
ATOM     25  H3  UNL     1      31.795   5.957   4.885  1.00  0.00     0.209 HD
ENDBRANCH  23  24
ENDBRANCH  22  23
BRANCH  22  26
HETATM   26  C16 UNL     1      31.042   9.259   5.804  1.00  0.00     0.191 C 
BRANCH  26  27
HETATM   27  O4  UNL     1      29.850   8.996   6.545  1.00  0.00    -0.399 OA
ATOM     28  H4  UNL     1      30.044   9.140   7.464  1.00  0.00     0.209 HD
ENDBRANCH  26  27
ENDBRANCH  22  26
ENDBRANCH  13  22
ENDBRANCH   5  13
BRANCH   2  29
HETATM   29  O2  UNL     1      27.167   9.686  -1.039  1.00  0.00    -0.392 OA
ATOM     30  H2  UNL     1      26.983   9.283  -0.198  1.00  0.00     0.210 HD
ENDBRANCH   2  29
BRANCH   1  31
HETATM   31  O1  UNL     1      27.180  11.714  -2.589  1.00  0.00    -0.387 OA
HETATM   32  C1  UNL     1      26.752  12.889  -3.199  1.00  0.00     0.202 C 
ENDBRANCH   1  31
BRANCH  10  33
HETATM   33  C19 UNL     1      28.022  14.338   0.497  1.00  0.00     0.197 C 
BRANCH  33  34
HETATM   34  O6  UNL     1      28.608  15.275   1.386  1.00  0.00    -0.398 OA
ATOM     35  H6  UNL     1      29.123  14.772   2.006  1.00  0.00     0.209 HD
ENDBRANCH  33  34
ENDBRANCH  10  33
TORSDOF 14
ENDMDL
MODEL 2
REMARK VINA RESULT: -7.323887107      2.521      5.448
REMARK  14 active torsions:
REMARK  status: ('A' for Active; 'I' for Inactive)
REMARK    1  A    between atoms: O1_2  and  C2_3 
REMARK    2  A    between atoms: C3_4  and  O2_5 
REMARK    3  A    between atoms: C5_9  and  N1_10 
REMARK    4  A    between atoms: N1_10  and  C6_11 
REMARK    5  A    between atoms: N1_10  and  C14_19 
REMARK    6  A    between atoms: C6_11  and  C7_12 
REMARK    7  A    between atoms: C7_12  and  C8_13 
REMARK    8  A    between atoms: C8_13  and  C9_14 
REMARK    9  A    between atoms: C14_19  and  C15_20 
REMARK   10  A    between atoms: C14_19  and  C16_23 
REMARK   11  A    between atoms: C15_20  and  O3_21 
REMARK   12  A    between atoms: C16_23  and  O4_24 
REMARK   13  A    between atoms: C18_30  and  C19_31 
REMARK   14  A    between atoms: C19_31  and  O6_32 
ROOT
HETATM    1  C2  UNL     1      31.230  15.968   0.359  1.00  0.00     0.168 C 
HETATM    2  C3  UNL     1      31.732  15.033   1.416  1.00  0.00     0.166 C 
HETATM    3  C4  UNL     1      31.784  13.622   1.120  1.00  0.00     0.135 C 
HETATM    4  S1  UNL     1      31.089  12.556   2.480  1.00  0.00    -0.082 SA
HETATM    5  C5  UNL     1      30.898  11.175   1.376  1.00  0.00     0.141 C 
HETATM    6  N2  UNL     1      30.863  11.651   0.226  1.00  0.00    -0.343 N 
ATOM      7  H2  UNL     1      30.759  11.031  -0.577  1.00  0.00     0.164 HD
HETATM    8  C17 UNL     1      30.969  13.058   0.025  1.00  0.00     0.239 C 
HETATM    9  O5  UNL     1      29.658  13.518  -0.006  1.00  0.00    -0.357 OA
HETATM   10  C18 UNL     1      29.411  14.636  -0.728  1.00  0.00     0.165 C 
HETATM   11  C20 UNL     1      29.741  15.842   0.124  1.00  0.00     0.121 C 
HETATM   12  S2  UNL     1      28.948  15.697   1.744  1.00  0.00    -0.087 SA
ENDROOT
BRANCH   5  13
HETATM   13  N1  UNL     1      30.800   9.792   1.765  1.00  0.00    -0.353 N 
BRANCH  13  14
HETATM   14  C6  UNL     1      31.946   9.140   2.299  1.00  0.00     0.125 C 
BRANCH  14  15
HETATM   15  C7  UNL     1      32.469   9.569   3.617  1.00  0.00     0.020 C 
BRANCH  15  16
HETATM   16  C8  UNL     1      32.992   8.344   4.411  1.00  0.00     0.006 C 
BRANCH  16  17
HETATM   17  C9  UNL     1      32.217   8.157   5.674  1.00  0.00    -0.014 C 
HETATM   18  C10 UNL     1      31.455   6.872   5.730  1.00  0.00     0.004 C 
HETATM   19  C11 UNL     1      30.028   7.189   6.103  1.00  0.00     0.000 C 
HETATM   20  C12 UNL     1      29.992   8.647   6.461  1.00  0.00     0.000 C 
HETATM   21  C13 UNL     1      31.158   9.263   5.714  1.00  0.00     0.004 C 
ENDBRANCH  16  17
ENDBRANCH  15  16
ENDBRANCH  14  15
ENDBRANCH  13  14
BRANCH  13  22
HETATM   22  C14 UNL     1      29.518   9.165   1.544  1.00  0.00     0.133 C 
BRANCH  22  23
HETATM   23  C15 UNL     1      28.660   9.218   2.792  1.00  0.00     0.191 C 
BRANCH  23  24
HETATM   24  O3  UNL     1      27.702  10.208   2.777  1.00  0.00    -0.399 OA
ATOM     25  H3  UNL     1      27.039  10.119   3.453  1.00  0.00     0.209 HD
ENDBRANCH  23  24
ENDBRANCH  22  23
BRANCH  22  26
HETATM   26  C16 UNL     1      28.747   9.568   0.353  1.00  0.00     0.191 C 
BRANCH  26  27
HETATM   27  O4  UNL     1      27.548   8.793   0.328  1.00  0.00    -0.399 OA
ATOM     28  H4  UNL     1      27.577   8.242  -0.445  1.00  0.00     0.209 HD
ENDBRANCH  26  27
ENDBRANCH  22  26
ENDBRANCH  13  22
ENDBRANCH   5  13
BRANCH   2  29
HETATM   29  O2  UNL     1      33.022  15.495   1.770  1.00  0.00    -0.392 OA
ATOM     30  H2  UNL     1      33.619  14.780   1.582  1.00  0.00     0.210 HD
ENDBRANCH   2  29
BRANCH   1  31
HETATM   31  O1  UNL     1      31.423  17.261   0.851  1.00  0.00    -0.387 OA
HETATM   32  C1  UNL     1      31.190  18.225  -0.125  1.00  0.00     0.202 C 
ENDBRANCH   1  31
BRANCH  10  33
HETATM   33  C19 UNL     1      29.982  14.734  -2.092  1.00  0.00     0.197 C 
BRANCH  33  34
HETATM   34  O6  UNL     1      29.184  13.907  -2.923  1.00  0.00    -0.398 OA
ATOM     35  H6  UNL     1      29.670  13.785  -3.729  1.00  0.00     0.209 HD
ENDBRANCH  33  34
ENDBRANCH  10  33
TORSDOF 14
ENDMDL
MODEL 3
REMARK VINA RESULT: -7.265030151      2.422      5.132
REMARK  14 active torsions:
REMARK  status: ('A' for Active; 'I' for Inactive)
REMARK    1  A    between atoms: O1_2  and  C2_3 
REMARK    2  A    between atoms: C3_4  and  O2_5 
REMARK    3  A    between atoms: C5_9  and  N1_10 
REMARK    4  A    between atoms: N1_10  and  C6_11 
REMARK    5  A    between atoms: N1_10  and  C14_19 
REMARK    6  A    between atoms: C6_11  and  C7_12 
REMARK    7  A    between atoms: C7_12  and  C8_13 
REMARK    8  A    between atoms: C8_13  and  C9_14 
REMARK    9  A    between atoms: C14_19  and  C15_20 
REMARK   10  A    between atoms: C14_19  and  C16_23 
REMARK   11  A    between atoms: C15_20  and  O3_21 
REMARK   12  A    between atoms: C16_23  and  O4_24 
REMARK   13  A    between atoms: C18_30  and  C19_31 
REMARK   14  A    between atoms: C19_31  and  O6_32 
ROOT
HETATM    1  C2  UNL     1      31.562  15.992   0.364  1.00  0.00     0.168 C 
HETATM    2  C3  UNL     1      31.883  15.239   1.618  1.00  0.00     0.166 C 
HETATM    3  C4  UNL     1      31.868  13.798   1.579  1.00  0.00     0.135 C 
HETATM    4  S1  UNL     1      30.959  13.030   3.013  1.00  0.00    -0.082 SA
HETATM    5  C5  UNL     1      30.790  11.484   2.151  1.00  0.00     0.141 C 
HETATM    6  N2  UNL     1      30.911  11.746   0.940  1.00  0.00    -0.343 N 
ATOM      7  H2  UNL     1      30.849  10.997   0.250  1.00  0.00     0.164 HD
HETATM    8  C17 UNL     1      31.135  13.087   0.512  1.00  0.00     0.239 C 
HETATM    9  O5  UNL     1      29.870  13.598   0.248  1.00  0.00    -0.357 OA
HETATM   10  C18 UNL     1      29.780  14.579  -0.680  1.00  0.00     0.165 C 
HETATM   11  C20 UNL     1      30.101  15.900  -0.018  1.00  0.00     0.121 C 
HETATM   12  S2  UNL     1      29.133  16.090   1.499  1.00  0.00    -0.087 SA
ENDROOT
BRANCH   5  13
HETATM   13  N1  UNL     1      30.555  10.201   2.761  1.00  0.00    -0.353 N 
BRANCH  13  14
HETATM   14  C6  UNL     1      29.347   9.508   2.474  1.00  0.00     0.125 C 
BRANCH  14  15
HETATM   15  C7  UNL     1      29.193   8.845   1.157  1.00  0.00     0.020 C 
BRANCH  15  16
HETATM   16  C8  UNL     1      27.794   9.151   0.563  1.00  0.00     0.006 C 
BRANCH  16  17
HETATM   17  C9  UNL     1      27.891   9.469  -0.894  1.00  0.00    -0.014 C 
HETATM   18  C10 UNL     1      29.271   9.326  -1.452  1.00  0.00     0.004 C 
HETATM   19  C11 UNL     1      29.609  10.595  -2.194  1.00  0.00     0.000 C 
HETATM   20  C12 UNL     1      28.351  11.414  -2.242  1.00  0.00     0.000 C 
HETATM   21  C13 UNL     1      27.538  10.952  -1.049  1.00  0.00     0.004 C 
ENDBRANCH  16  17
ENDBRANCH  15  16
ENDBRANCH  14  15
ENDBRANCH  13  14
BRANCH  13  22
HETATM   22  C14 UNL     1      31.584   9.733   3.660  1.00  0.00     0.133 C 
BRANCH  22  23
HETATM   23  C15 UNL     1      31.018   9.440   5.035  1.00  0.00     0.191 C 
BRANCH  23  24
HETATM   24  O3  UNL     1      31.844   9.804   6.075  1.00  0.00    -0.399 OA
ATOM     25  H3  UNL     1      31.559   9.492   6.926  1.00  0.00     0.209 HD
ENDBRANCH  23  24
ENDBRANCH  22  23
BRANCH  22  26
HETATM   26  C16 UNL     1      32.456   8.636   3.201  1.00  0.00     0.191 C 
BRANCH  26  27
HETATM   27  O4  UNL     1      33.479   8.455   4.181  1.00  0.00    -0.399 OA
ATOM     28  H4  UNL     1      34.247   8.932   3.888  1.00  0.00     0.209 HD
ENDBRANCH  26  27
ENDBRANCH  22  26
ENDBRANCH  13  22
ENDBRANCH   5  13
BRANCH   2  29
HETATM   29  O2  UNL     1      33.157  15.693   2.034  1.00  0.00    -0.392 OA
ATOM     30  H2  UNL     1      33.012  16.199   2.825  1.00  0.00     0.210 HD
ENDBRANCH   2  29
BRANCH   1  31
HETATM   31  O1  UNL     1      31.792  17.341   0.642  1.00  0.00    -0.387 OA
HETATM   32  C1  UNL     1      31.418  18.160  -0.419  1.00  0.00     0.202 C 
ENDBRANCH   1  31
BRANCH  10  33
HETATM   33  C19 UNL     1      30.497  14.400  -1.964  1.00  0.00     0.197 C 
BRANCH  33  34
HETATM   34  O6  UNL     1      29.519  14.486  -2.987  1.00  0.00    -0.398 OA
ATOM     35  H6  UNL     1      29.815  13.923  -3.692  1.00  0.00     0.209 HD
ENDBRANCH  33  34
ENDBRANCH  10  33
TORSDOF 14
ENDMDL
MODEL 4
REMARK VINA RESULT: -7.207744507      2.379      4.958
REMARK  14 active torsions:
REMARK  status: ('A' for Active; 'I' for Inactive)
REMARK    1  A    between atoms: O1_2  and  C2_3 
REMARK    2  A    between atoms: C3_4  and  O2_5 
REMARK    3  A    between atoms: C5_9  and  N1_10 
REMARK    4  A    between atoms: N1_10  and  C6_11 
REMARK    5  A    between atoms: N1_10  and  C14_19 
REMARK    6  A    between atoms: C6_11  and  C7_12 
REMARK    7  A    between atoms: C7_12  and  C8_13 
REMARK    8  A    between atoms: C8_13  and  C9_14 
REMARK    9  A    between atoms: C14_19  and  C15_20 
REMARK   10  A    between atoms: C14_19  and  C16_23 
REMARK   11  A    between atoms: C15_20  and  O3_21 
REMARK   12  A    between atoms: C16_23  and  O4_24 
REMARK   13  A    between atoms: C18_30  and  C19_31 
REMARK   14  A    between atoms: C19_31  and  O6_32 
ROOT
HETATM    1  C2  UNL     1      30.837  15.924   1.071  1.00  0.00     0.168 C 
HETATM    2  C3  UNL     1      29.742  15.011   1.530  1.00  0.00     0.166 C 
HETATM    3  C4  UNL     1      30.093  13.849   2.308  1.00  0.00     0.135 C 
HETATM    4  S1  UNL     1      29.247  12.292   1.734  1.00  0.00    -0.082 SA
HETATM    5  C5  UNL     1      30.428  11.270   2.584  1.00  0.00     0.141 C 
HETATM    6  N2  UNL     1      31.442  11.973   2.748  1.00  0.00    -0.343 N 
ATOM      7  H2  UNL     1      32.257  11.585   3.223  1.00  0.00     0.164 HD
HETATM    8  C17 UNL     1      31.471  13.318   2.276  1.00  0.00     0.239 C 
HETATM    9  O5  UNL     1      32.025  13.242   1.004  1.00  0.00    -0.357 OA
HETATM   10  C18 UNL     1      32.696  14.328   0.556  1.00  0.00     0.165 C 
HETATM   11  C20 UNL     1      31.696  15.311  -0.013  1.00  0.00     0.121 C 
HETATM   12  S2  UNL     1      30.586  14.472  -1.171  1.00  0.00    -0.087 SA
ENDROOT
BRANCH   5  13
HETATM   13  N1  UNL     1      30.224   9.902   2.985  1.00  0.00    -0.353 N 
BRANCH  13  14
HETATM   14  C6  UNL     1      29.286   9.104   2.273  1.00  0.00     0.125 C 
BRANCH  14  15
HETATM   15  C7  UNL     1      29.377   9.033   0.796  1.00  0.00     0.020 C 
BRANCH  15  16
HETATM   16  C8  UNL     1      27.960   9.100   0.168  1.00  0.00     0.006 C 
BRANCH  16  17
HETATM   17  C9  UNL     1      28.024   9.584  -1.243  1.00  0.00    -0.014 C 
HETATM   18  C10 UNL     1      29.415   9.700  -1.780  1.00  0.00     0.004 C 
HETATM   19  C11 UNL     1      29.575  11.077  -2.374  1.00  0.00     0.000 C 
HETATM   20  C12 UNL     1      28.213  11.709  -2.367  1.00  0.00     0.000 C 
HETATM   21  C13 UNL     1      27.464  11.010  -1.250  1.00  0.00     0.004 C 
ENDBRANCH  16  17
ENDBRANCH  15  16
ENDBRANCH  14  15
ENDBRANCH  13  14
BRANCH  13  22
HETATM   22  C14 UNL     1      30.989   9.460   4.128  1.00  0.00     0.133 C 
BRANCH  22  23
HETATM   23  C15 UNL     1      30.149   8.599   5.049  1.00  0.00     0.191 C 
BRANCH  23  24
HETATM   24  O3  UNL     1      29.965   9.131   6.306  1.00  0.00    -0.399 OA
ATOM     25  H3  UNL     1      30.300   8.589   7.012  1.00  0.00     0.209 HD
ENDBRANCH  23  24
ENDBRANCH  22  23
BRANCH  22  26
HETATM   26  C16 UNL     1      32.305   8.842   3.880  1.00  0.00     0.191 C 
BRANCH  26  27
HETATM   27  O4  UNL     1      33.296   9.863   4.011  1.00  0.00    -0.399 OA
ATOM     28  H4  UNL     1      34.071   9.575   3.543  1.00  0.00     0.209 HD
ENDBRANCH  26  27
ENDBRANCH  22  26
ENDBRANCH  13  22
ENDBRANCH   5  13
BRANCH   2  29
HETATM   29  O2  UNL     1      28.837  15.819   2.259  1.00  0.00    -0.392 OA
ATOM     30  H2  UNL     1      28.012  15.347   2.270  1.00  0.00     0.210 HD
ENDBRANCH   2  29
BRANCH   1  31
HETATM   31  O1  UNL     1      30.214  17.024   0.479  1.00  0.00    -0.387 OA
HETATM   32  C1  UNL     1      31.122  18.035   0.180  1.00  0.00     0.202 C 
ENDBRANCH   1  31
BRANCH  10  33
HETATM   33  C19 UNL     1      33.673  14.976   1.461  1.00  0.00     0.197 C 
BRANCH  33  34
HETATM   34  O6  UNL     1      34.756  14.072   1.599  1.00  0.00    -0.398 OA
ATOM     35  H6  UNL     1      35.546  14.568   1.424  1.00  0.00     0.209 HD
ENDBRANCH  33  34
ENDBRANCH  10  33
TORSDOF 14
ENDMDL
MODEL 5
REMARK VINA RESULT: -7.132330275      2.910      5.768
REMARK  14 active torsions:
REMARK  status: ('A' for Active; 'I' for Inactive)
REMARK    1  A    between atoms: O1_2  and  C2_3 
REMARK    2  A    between atoms: C3_4  and  O2_5 
REMARK    3  A    between atoms: C5_9  and  N1_10 
REMARK    4  A    between atoms: N1_10  and  C6_11 
REMARK    5  A    between atoms: N1_10  and  C14_19 
REMARK    6  A    between atoms: C6_11  and  C7_12 
REMARK    7  A    between atoms: C7_12  and  C8_13 
REMARK    8  A    between atoms: C8_13  and  C9_14 
REMARK    9  A    between atoms: C14_19  and  C15_20 
REMARK   10  A    between atoms: C14_19  and  C16_23 
REMARK   11  A    between atoms: C15_20  and  O3_21 
REMARK   12  A    between atoms: C16_23  and  O4_24 
REMARK   13  A    between atoms: C18_30  and  C19_31 
REMARK   14  A    between atoms: C19_31  and  O6_32 
ROOT
HETATM    1  C2  UNL     1      31.484  15.627   0.602  1.00  0.00     0.168 C 
HETATM    2  C3  UNL     1      31.791  14.484   1.520  1.00  0.00     0.166 C 
HETATM    3  C4  UNL     1      31.583  13.140   1.041  1.00  0.00     0.135 C 
HETATM    4  S1  UNL     1      30.686  12.052   2.259  1.00  0.00    -0.082 SA
HETATM    5  C5  UNL     1      30.253  10.889   0.986  1.00  0.00     0.141 C 
HETATM    6  N2  UNL     1      30.321  11.509  -0.091  1.00  0.00    -0.343 N 
ATOM      7  H2  UNL     1      30.111  11.030  -0.967  1.00  0.00     0.164 HD
HETATM    8  C17 UNL     1      30.689  12.887  -0.107  1.00  0.00     0.239 C 
HETATM    9  O5  UNL     1      29.487  13.582  -0.059  1.00  0.00    -0.357 OA
HETATM   10  C18 UNL     1      29.461  14.811  -0.625  1.00  0.00     0.165 C 
HETATM   11  C20 UNL     1      30.000  15.812   0.373  1.00  0.00     0.121 C 
HETATM   12  S2  UNL     1      29.177  15.606   1.971  1.00  0.00    -0.087 SA
ENDROOT
BRANCH   5  13
HETATM   13  N1  UNL     1      29.895   9.509   1.193  1.00  0.00    -0.353 N 
BRANCH  13  14
HETATM   14  C6  UNL     1      30.322   8.853   2.380  1.00  0.00     0.125 C 
BRANCH  14  15
HETATM   15  C7  UNL     1      29.440   8.876   3.571  1.00  0.00     0.020 C 
BRANCH  15  16
HETATM   16  C8  UNL     1      29.553   7.538   4.347  1.00  0.00     0.006 C 
BRANCH  16  17
HETATM   17  C9  UNL     1      30.510   7.662   5.487  1.00  0.00    -0.014 C 
HETATM   18  C10 UNL     1      30.808   9.075   5.875  1.00  0.00     0.004 C 
HETATM   19  C11 UNL     1      32.307   9.239   5.929  1.00  0.00     0.000 C 
HETATM   20  C12 UNL     1      32.896   7.867   5.765  1.00  0.00     0.000 C 
HETATM   21  C13 UNL     1      31.844   7.078   5.012  1.00  0.00     0.004 C 
ENDBRANCH  16  17
ENDBRANCH  15  16
ENDBRANCH  14  15
ENDBRANCH  13  14
BRANCH  13  22
HETATM   22  C14 UNL     1      29.139   8.889   0.130  1.00  0.00     0.133 C 
BRANCH  22  23
HETATM   23  C15 UNL     1      27.660   9.183   0.267  1.00  0.00     0.191 C 
BRANCH  23  24
HETATM   24  O3  UNL     1      27.350  10.525   0.286  1.00  0.00    -0.399 OA
ATOM     25  H3  UNL     1      26.447  10.713   0.516  1.00  0.00     0.209 HD
ENDBRANCH  23  24
ENDBRANCH  22  23
BRANCH  22  26
HETATM   26  C16 UNL     1      29.596   9.100  -1.257  1.00  0.00     0.191 C 
BRANCH  26  27
HETATM   27  O4  UNL     1      28.488   9.597  -2.008  1.00  0.00    -0.399 OA
ATOM     28  H4  UNL     1      28.239   8.927  -2.634  1.00  0.00     0.209 HD
ENDBRANCH  26  27
ENDBRANCH  22  26
ENDBRANCH  13  22
ENDBRANCH   5  13
BRANCH   2  29
HETATM   29  O2  UNL     1      33.141  14.648   1.913  1.00  0.00    -0.392 OA
ATOM     30  H2  UNL     1      33.567  13.815   1.747  1.00  0.00     0.210 HD
ENDBRANCH   2  29
BRANCH   1  31
HETATM   31  O1  UNL     1      31.910  16.785   1.256  1.00  0.00    -0.387 OA
HETATM   32  C1  UNL     1      31.841  17.902   0.428  1.00  0.00     0.202 C 
ENDBRANCH   1  31
BRANCH  10  33
HETATM   33  C19 UNL     1      30.054  14.979  -1.972  1.00  0.00     0.197 C 
BRANCH  33  34
HETATM   34  O6  UNL     1      29.314  14.143  -2.846  1.00  0.00    -0.398 OA
ATOM     35  H6  UNL     1      29.888  13.423  -3.080  1.00  0.00     0.209 HD
ENDBRANCH  33  34
ENDBRANCH  10  33
TORSDOF 14
ENDMDL
