MODEL 1
REMARK VINA RESULT: -8.254839623      0.000      0.000
REMARK  16 active torsions:
REMARK  status: ('A' for Active; 'I' for Inactive)
REMARK    1  A    between atoms: C2_2  and  O1_3 
REMARK    2  A    between atoms: C2_2  and  O2_5 
REMARK    3  A    between atoms: O2_5  and  C3_6 
REMARK    4  A    between atoms: C5_8  and  O3_9 
REMARK    5  A    between atoms: O3_9  and  C6_10 
REMARK    6  A    between atoms: C11_15  and  O4_16 
REMARK    7  A    between atoms: O4_16  and  C12_17 
REMARK    8  A    between atoms: C15_20  and  O5_21 
REMARK    9  A    between atoms: O5_21  and  C16_22 
REMARK   10  A    between atoms: C16_22  and  C17_23 
REMARK   11  A    between atoms: C17_23  and  C18_24 
REMARK   12  A    between atoms: C18_24  and  N1_25 
REMARK   13  A    between atoms: C19_28  and  O6_29 
REMARK   14  A    between atoms: C20_31  and  O7_32 
REMARK   15  A    between atoms: C21_35  and  C22_36 
REMARK   16  A    between atoms: C22_36  and  O9_37 
ROOT
HETATM    1  C6  UNL     1      32.054  12.608   1.173  1.00  0.00     0.157 C 
HETATM    2  C7  UNL     1      33.196  13.565   0.887  1.00  0.00     0.061 C 
HETATM    3  C8  UNL     1      33.293  14.462   2.071  1.00  0.00    -0.028 C 
HETATM    4  C9  UNL     1      32.286  14.681   2.905  1.00  0.00    -0.028 C 
HETATM    5  C10 UNL     1      30.949  14.066   2.763  1.00  0.00     0.061 C 
HETATM    6  C11 UNL     1      30.813  13.491   1.363  1.00  0.00     0.154 C 
ENDROOT
BRANCH   6   7
HETATM    7  O4  UNL     1      29.650  12.760   1.213  1.00  0.00    -0.375 OA
BRANCH   7   8
HETATM    8  C12 UNL     1      29.263  12.555  -0.082  1.00  0.00     0.153 C 
HETATM    9  C13 UNL     1      28.210  13.504  -0.578  1.00  0.00     0.037 C 
HETATM   10  C14 UNL     1      28.265  13.441  -2.114  1.00  0.00     0.037 C 
HETATM   11  C15 UNL     1      27.748  12.027  -2.446  1.00  0.00     0.152 C 
HETATM   12  C19 UNL     1      28.692  11.018  -1.880  1.00  0.00     0.178 C 
HETATM   13  C20 UNL     1      28.780  11.144  -0.354  1.00  0.00     0.178 C 
BRANCH  11  14
HETATM   14  O5  UNL     1      27.601  11.854  -3.796  1.00  0.00    -0.382 OA
BRANCH  14  15
HETATM   15  C16 UNL     1      28.006  12.951  -4.556  1.00  0.00     0.181 C 
BRANCH  15  16
HETATM   16  C17 UNL     1      26.942  13.509  -5.412  1.00  0.00     0.130 C 
BRANCH  16  17
HETATM   17  C18 UNL     1      26.270  12.761  -6.238  1.00  0.00    -0.076 C 
BRANCH  17  18
HETATM   18  N1  UNL     1      25.443  12.229  -7.066  1.00  0.00    -0.370 N 
ATOM     19  H12 UNL     1      25.389  13.104  -7.587  1.00  0.00     0.165 HD
ATOM     20  H11 UNL     1      24.810  11.636  -7.603  1.00  0.00     0.165 HD
ENDBRANCH  17  18
ENDBRANCH  16  17
ENDBRANCH  15  16
ENDBRANCH  14  15
ENDBRANCH  11  14
BRANCH  12  21
HETATM   21  O6  UNL     1      28.328   9.756  -2.279  1.00  0.00    -0.390 OA
ATOM     22  H6  UNL     1      28.526   9.636  -3.200  1.00  0.00     0.210 HD
ENDBRANCH  12  21
BRANCH  13  23
HETATM   23  O7  UNL     1      27.496  10.946   0.125  1.00  0.00    -0.390 OA
ATOM     24  H7  UNL     1      27.426  10.132   0.609  1.00  0.00     0.210 HD
ENDBRANCH  13  23
ENDBRANCH   7   8
ENDBRANCH   6   7
BRANCH   1  25
HETATM   25  O3  UNL     1      32.386  12.005   2.407  1.00  0.00    -0.353 OA
BRANCH  25  26
HETATM   26  C5  UNL     1      32.685  10.675   2.276  1.00  0.00     0.263 C 
HETATM   27  C4  UNL     1      33.001   9.985   3.584  1.00  0.00     0.095 C 
HETATM   28  C3  UNL     1      31.615   9.398   3.978  1.00  0.00     0.160 C 
HETATM   29  C21 UNL     1      30.723  10.005   2.960  1.00  0.00     0.177 C 
HETATM   30  O8  UNL     1      31.550  10.021   1.801  1.00  0.00    -0.351 OA
BRANCH  28  31
HETATM   31  O2  UNL     1      31.310   9.872   5.257  1.00  0.00    -0.354 OA
BRANCH  31  32
HETATM   32  C2  UNL     1      31.063   8.870   6.178  1.00  0.00     0.253 C 
HETATM   33  C1  UNL     1      31.228   7.526   5.565  1.00  0.00     0.070 C 
BRANCH  32  34
HETATM   34  O1  UNL     1      29.674   9.012   6.487  1.00  0.00    -0.372 OA
ATOM     35  H1  UNL     1      29.318   8.134   6.556  1.00  0.00     0.212 HD
ENDBRANCH  32  34
ENDBRANCH  31  32
ENDBRANCH  28  31
BRANCH  29  36
HETATM   36  C22 UNL     1      29.472   9.204   2.648  1.00  0.00     0.198 C 
BRANCH  36  37
HETATM   37  O9  UNL     1      28.631   9.177   3.742  1.00  0.00    -0.398 OA
ATOM     38  H9  UNL     1      27.843   8.687   3.542  1.00  0.00     0.209 HD
ENDBRANCH  36  37
ENDBRANCH  29  36
ENDBRANCH  25  26
ENDBRANCH   1  25
TORSDOF 16
ENDMDL
MODEL 2
REMARK VINA RESULT: -7.964044603      2.972      7.938
REMARK  16 active torsions:
REMARK  status: ('A' for Active; 'I' for Inactive)
REMARK    1  A    between atoms: C2_2  and  O1_3 
REMARK    2  A    between atoms: C2_2  and  O2_5 
REMARK    3  A    between atoms: O2_5  and  C3_6 
REMARK    4  A    between atoms: C5_8  and  O3_9 
REMARK    5  A    between atoms: O3_9  and  C6_10 
REMARK    6  A    between atoms: C11_15  and  O4_16 
REMARK    7  A    between atoms: O4_16  and  C12_17 
REMARK    8  A    between atoms: C15_20  and  O5_21 
REMARK    9  A    between atoms: O5_21  and  C16_22 
REMARK   10  A    between atoms: C16_22  and  C17_23 
REMARK   11  A    between atoms: C17_23  and  C18_24 
REMARK   12  A    between atoms: C18_24  and  N1_25 
REMARK   13  A    between atoms: C19_28  and  O6_29 
REMARK   14  A    between atoms: C20_31  and  O7_32 
REMARK   15  A    between atoms: C21_35  and  C22_36 
REMARK   16  A    between atoms: C22_36  and  O9_37 
ROOT
HETATM    1  C6  UNL     1      29.782  13.269   1.218  1.00  0.00     0.157 C 
HETATM    2  C7  UNL     1      29.629  14.666   1.789  1.00  0.00     0.061 C 
HETATM    3  C8  UNL     1      30.265  15.588   0.808  1.00  0.00    -0.028 C 
HETATM    4  C9  UNL     1      31.185  15.202  -0.066  1.00  0.00    -0.028 C 
HETATM    5  C10 UNL     1      31.689  13.817  -0.174  1.00  0.00     0.061 C 
HETATM    6  C11 UNL     1      31.294  13.045   1.073  1.00  0.00     0.154 C 
ENDROOT
BRANCH   6   7
HETATM    7  O4  UNL     1      31.594  11.700   0.968  1.00  0.00    -0.375 OA
BRANCH   7   8
HETATM    8  C12 UNL     1      31.570  11.012   2.150  1.00  0.00     0.153 C 
HETATM    9  C13 UNL     1      32.703  10.042   2.331  1.00  0.00     0.037 C 
HETATM   10  C14 UNL     1      32.780   9.749   3.839  1.00  0.00     0.037 C 
HETATM   11  C15 UNL     1      31.492   8.952   4.128  1.00  0.00     0.152 C 
HETATM   12  C19 UNL     1      30.309   9.823   3.856  1.00  0.00     0.178 C 
HETATM   13  C20 UNL     1      30.275  10.261   2.387  1.00  0.00     0.178 C 
BRANCH  11  14
HETATM   14  O5  UNL     1      31.472   8.488   5.415  1.00  0.00    -0.382 OA
BRANCH  14  15
HETATM   15  C16 UNL     1      31.368   7.101   5.517  1.00  0.00     0.181 C 
BRANCH  15  16
HETATM   16  C17 UNL     1      30.259   6.648   6.379  1.00  0.00     0.130 C 
BRANCH  16  17
HETATM   17  C18 UNL     1      29.396   7.485   6.875  1.00  0.00    -0.076 C 
BRANCH  17  18
HETATM   18  N1  UNL     1      28.607   8.460   7.156  1.00  0.00    -0.370 N 
ATOM     19  H12 UNL     1      29.179   8.700   7.966  1.00  0.00     0.165 HD
ATOM     20  H11 UNL     1      27.877   9.170   7.209  1.00  0.00     0.165 HD
ENDBRANCH  17  18
ENDBRANCH  16  17
ENDBRANCH  15  16
ENDBRANCH  14  15
ENDBRANCH  11  14
BRANCH  12  21
HETATM   21  O6  UNL     1      29.156   9.182   4.236  1.00  0.00    -0.390 OA
ATOM     22  H6  UNL     1      28.485   9.819   4.449  1.00  0.00     0.210 HD
ENDBRANCH  12  21
BRANCH  13  23
HETATM   23  O7  UNL     1      30.218   9.097   1.638  1.00  0.00    -0.390 OA
ATOM     24  H7  UNL     1      29.668   9.204   0.871  1.00  0.00     0.210 HD
ENDBRANCH  13  23
ENDBRANCH   7   8
ENDBRANCH   6   7
BRANCH   1  25
HETATM   25  O3  UNL     1      29.200  13.336  -0.068  1.00  0.00    -0.353 OA
BRANCH  25  26
HETATM   26  C5  UNL     1      28.043  12.609  -0.157  1.00  0.00     0.263 C 
HETATM   27  C4  UNL     1      27.351  12.719  -1.498  1.00  0.00     0.095 C 
HETATM   28  C3  UNL     1      27.916  11.480  -2.251  1.00  0.00     0.160 C 
HETATM   29  C21 UNL     1      28.959  10.999  -1.313  1.00  0.00     0.177 C 
HETATM   30  O8  UNL     1      28.371  11.259  -0.043  1.00  0.00    -0.351 OA
BRANCH  28  31
HETATM   31  O2  UNL     1      28.487  11.941  -3.441  1.00  0.00    -0.354 OA
BRANCH  31  32
HETATM   32  C2  UNL     1      27.938  13.126  -3.900  1.00  0.00     0.253 C 
HETATM   33  C1  UNL     1      27.117  12.898  -5.117  1.00  0.00     0.070 C 
BRANCH  32  34
HETATM   34  O1  UNL     1      29.070  13.900  -4.307  1.00  0.00    -0.372 OA
ATOM     35  H1  UNL     1      29.007  14.734  -3.856  1.00  0.00     0.212 HD
ENDBRANCH  32  34
ENDBRANCH  31  32
ENDBRANCH  28  31
BRANCH  29  36
HETATM   36  C22 UNL     1      29.265   9.515  -1.406  1.00  0.00     0.198 C 
BRANCH  36  37
HETATM   37  O9  UNL     1      28.135   8.812  -1.770  1.00  0.00    -0.398 OA
ATOM     38  H9  UNL     1      28.306   8.287  -2.542  1.00  0.00     0.209 HD
ENDBRANCH  36  37
ENDBRANCH  29  36
ENDBRANCH  25  26
ENDBRANCH   1  25
TORSDOF 16
ENDMDL
MODEL 3
REMARK VINA RESULT: -7.954102829      3.115      6.959
REMARK  16 active torsions:
REMARK  status: ('A' for Active; 'I' for Inactive)
REMARK    1  A    between atoms: C2_2  and  O1_3 
REMARK    2  A    between atoms: C2_2  and  O2_5 
REMARK    3  A    between atoms: O2_5  and  C3_6 
REMARK    4  A    between atoms: C5_8  and  O3_9 
REMARK    5  A    between atoms: O3_9  and  C6_10 
REMARK    6  A    between atoms: C11_15  and  O4_16 
REMARK    7  A    between atoms: O4_16  and  C12_17 
REMARK    8  A    between atoms: C15_20  and  O5_21 
REMARK    9  A    between atoms: O5_21  and  C16_22 
REMARK   10  A    between atoms: C16_22  and  C17_23 
REMARK   11  A    between atoms: C17_23  and  C18_24 
REMARK   12  A    between atoms: C18_24  and  N1_25 
REMARK   13  A    between atoms: C19_28  and  O6_29 
REMARK   14  A    between atoms: C20_31  and  O7_32 
REMARK   15  A    between atoms: C21_35  and  C22_36 
REMARK   16  A    between atoms: C22_36  and  O9_37 
ROOT
HETATM    1  C6  UNL     1      29.710  12.524  -1.260  1.00  0.00     0.157 C 
HETATM    2  C7  UNL     1      30.775  13.165  -2.130  1.00  0.00     0.061 C 
HETATM    3  C8  UNL     1      30.050  13.868  -3.224  1.00  0.00    -0.028 C 
HETATM    4  C9  UNL     1      28.821  13.549  -3.608  1.00  0.00    -0.028 C 
HETATM    5  C10 UNL     1      28.024  12.462  -3.001  1.00  0.00     0.061 C 
HETATM    6  C11 UNL     1      28.942  11.569  -2.185  1.00  0.00     0.154 C 
ENDROOT
BRANCH   6   7
HETATM    7  O4  UNL     1      28.239  10.626  -1.460  1.00  0.00    -0.375 OA
BRANCH   7   8
HETATM    8  C12 UNL     1      28.733  10.376  -0.209  1.00  0.00     0.153 C 
HETATM    9  C13 UNL     1      29.776   9.297  -0.154  1.00  0.00     0.037 C 
HETATM   10  C14 UNL     1      30.528   9.495   1.173  1.00  0.00     0.037 C 
HETATM   11  C15 UNL     1      29.486   9.129   2.249  1.00  0.00     0.152 C 
HETATM   12  C19 UNL     1      28.352  10.098   2.177  1.00  0.00     0.178 C 
HETATM   13  C20 UNL     1      27.662  10.038   0.809  1.00  0.00     0.178 C 
BRANCH  11  14
HETATM   14  O5  UNL     1      30.042   9.119   3.499  1.00  0.00    -0.382 OA
BRANCH  14  15
HETATM   15  C16 UNL     1      30.393   7.849   3.955  1.00  0.00     0.181 C 
BRANCH  15  16
HETATM   16  C17 UNL     1      31.801   7.735   4.379  1.00  0.00     0.130 C 
BRANCH  16  17
HETATM   17  C18 UNL     1      32.655   8.695   4.170  1.00  0.00    -0.076 C 
BRANCH  17  18
HETATM   18  N1  UNL     1      33.289   9.771   3.865  1.00  0.00    -0.370 N 
ATOM     19  H12 UNL     1      33.234   9.532   2.874  1.00  0.00     0.165 HD
ATOM     20  H11 UNL     1      33.793  10.656   3.829  1.00  0.00     0.165 HD
ENDBRANCH  17  18
ENDBRANCH  16  17
ENDBRANCH  15  16
ENDBRANCH  14  15
ENDBRANCH  11  14
BRANCH  12  21
HETATM   21  O6  UNL     1      27.477   9.877   3.212  1.00  0.00    -0.390 OA
ATOM     22  H6  UNL     1      26.741  10.474   3.150  1.00  0.00     0.210 HD
ENDBRANCH  12  21
BRANCH  13  23
HETATM   23  O7  UNL     1      27.213   8.736   0.660  1.00  0.00    -0.390 OA
ATOM     24  H7  UNL     1      26.818   8.410   1.460  1.00  0.00     0.210 HD
ENDBRANCH  13  23
ENDBRANCH   7   8
ENDBRANCH   6   7
BRANCH   1  25
HETATM   25  O3  UNL     1      28.858  13.587  -0.885  1.00  0.00    -0.353 OA
BRANCH  25  26
HETATM   26  C5  UNL     1      28.748  13.713   0.474  1.00  0.00     0.263 C 
HETATM   27  C4  UNL     1      29.975  13.258   1.234  1.00  0.00     0.095 C 
HETATM   28  C3  UNL     1      30.758  14.592   1.405  1.00  0.00     0.160 C 
HETATM   29  C21 UNL     1      29.968  15.523   0.562  1.00  0.00     0.177 C 
HETATM   30  O8  UNL     1      28.634  15.069   0.775  1.00  0.00    -0.351 OA
BRANCH  28  31
HETATM   31  O2  UNL     1      32.035  14.396   0.871  1.00  0.00    -0.354 OA
BRANCH  31  32
HETATM   32  C2  UNL     1      33.041  14.393   1.821  1.00  0.00     0.253 C 
HETATM   33  C1  UNL     1      33.691  13.059   1.907  1.00  0.00     0.070 C 
BRANCH  32  34
HETATM   34  O1  UNL     1      32.354  14.595   3.059  1.00  0.00    -0.372 OA
ATOM     35  H1  UNL     1      33.009  14.549   3.745  1.00  0.00     0.212 HD
ENDBRANCH  32  34
ENDBRANCH  31  32
ENDBRANCH  28  31
BRANCH  29  36
HETATM   36  C22 UNL     1      30.051  16.982   0.972  1.00  0.00     0.198 C 
BRANCH  36  37
HETATM   37  O9  UNL     1      31.344  17.446   0.837  1.00  0.00    -0.398 OA
ATOM     38  H9  UNL     1      31.451  18.267   1.303  1.00  0.00     0.209 HD
ENDBRANCH  36  37
ENDBRANCH  29  36
ENDBRANCH  25  26
ENDBRANCH   1  25
TORSDOF 16
ENDMDL
MODEL 4
REMARK VINA RESULT: -7.896154291      3.244      7.084
REMARK  16 active torsions:
REMARK  status: ('A' for Active; 'I' for Inactive)
REMARK    1  A    between atoms: C2_2  and  O1_3 
REMARK    2  A    between atoms: C2_2  and  O2_5 
REMARK    3  A    between atoms: O2_5  and  C3_6 
REMARK    4  A    between atoms: C5_8  and  O3_9 
REMARK    5  A    between atoms: O3_9  and  C6_10 
REMARK    6  A    between atoms: C11_15  and  O4_16 
REMARK    7  A    between atoms: O4_16  and  C12_17 
REMARK    8  A    between atoms: C15_20  and  O5_21 
REMARK    9  A    between atoms: O5_21  and  C16_22 
REMARK   10  A    between atoms: C16_22  and  C17_23 
REMARK   11  A    between atoms: C17_23  and  C18_24 
REMARK   12  A    between atoms: C18_24  and  N1_25 
REMARK   13  A    between atoms: C19_28  and  O6_29 
REMARK   14  A    between atoms: C20_31  and  O7_32 
REMARK   15  A    between atoms: C21_35  and  C22_36 
REMARK   16  A    between atoms: C22_36  and  O9_37 
ROOT
HETATM    1  C6  UNL     1      29.378  12.526  -1.100  1.00  0.00     0.157 C 
HETATM    2  C7  UNL     1      30.184  12.650  -2.379  1.00  0.00     0.061 C 
HETATM    3  C8  UNL     1      29.263  13.226  -3.398  1.00  0.00    -0.028 C 
HETATM    4  C9  UNL     1      27.942  13.142  -3.317  1.00  0.00    -0.028 C 
HETATM    5  C10 UNL     1      27.225  12.471  -2.213  1.00  0.00     0.061 C 
HETATM    6  C11 UNL     1      28.202  11.600  -1.442  1.00  0.00     0.154 C 
ENDROOT
BRANCH   6   7
HETATM    7  O4  UNL     1      27.635  11.068  -0.300  1.00  0.00    -0.375 OA
BRANCH   7   8
HETATM    8  C12 UNL     1      28.514  10.450   0.545  1.00  0.00     0.153 C 
HETATM    9  C13 UNL     1      29.233   9.273  -0.052  1.00  0.00     0.037 C 
HETATM   10  C14 UNL     1      30.470   9.034   0.829  1.00  0.00     0.037 C 
HETATM   11  C15 UNL     1      29.884   8.535   2.165  1.00  0.00     0.152 C 
HETATM   12  C19 UNL     1      29.054   9.621   2.768  1.00  0.00     0.178 C 
HETATM   13  C20 UNL     1      27.886   9.996   1.848  1.00  0.00     0.178 C 
BRANCH  11  14
HETATM   14  O5  UNL     1      30.871   8.140   3.026  1.00  0.00    -0.382 OA
BRANCH  14  15
HETATM   15  C16 UNL     1      32.041   8.892   2.932  1.00  0.00     0.181 C 
BRANCH  15  16
HETATM   16  C17 UNL     1      32.604   9.285   4.239  1.00  0.00     0.130 C 
BRANCH  16  17
HETATM   17  C18 UNL     1      31.887   9.257   5.325  1.00  0.00    -0.076 C 
BRANCH  17  18
HETATM   18  N1  UNL     1      30.975   9.226   6.230  1.00  0.00    -0.370 N 
ATOM     19  H12 UNL     1      30.264   9.444   5.532  1.00  0.00     0.165 HD
ATOM     20  H11 UNL     1      30.411   9.156   7.076  1.00  0.00     0.165 HD
ENDBRANCH  17  18
ENDBRANCH  16  17
ENDBRANCH  15  16
ENDBRANCH  14  15
ENDBRANCH  11  14
BRANCH  12  21
HETATM   21  O6  UNL     1      28.633   9.251   4.021  1.00  0.00    -0.390 OA
ATOM     22  H6  UNL     1      28.871   9.918   4.654  1.00  0.00     0.210 HD
ENDBRANCH  12  21
BRANCH  13  23
HETATM   23  O7  UNL     1      27.143   8.839   1.677  1.00  0.00    -0.390 OA
ATOM     24  H7  UNL     1      27.273   8.232   2.396  1.00  0.00     0.210 HD
ENDBRANCH  13  23
ENDBRANCH   7   8
ENDBRANCH   6   7
BRANCH   1  25
HETATM   25  O3  UNL     1      28.884  13.827  -0.854  1.00  0.00    -0.353 OA
BRANCH  25  26
HETATM   26  C5  UNL     1      28.873  14.139   0.479  1.00  0.00     0.263 C 
HETATM   27  C4  UNL     1      29.989  13.492   1.269  1.00  0.00     0.095 C 
HETATM   28  C3  UNL     1      31.077  14.604   1.254  1.00  0.00     0.160 C 
HETATM   29  C21 UNL     1      30.495  15.592   0.314  1.00  0.00     0.177 C 
HETATM   30  O8  UNL     1      29.103  15.507   0.605  1.00  0.00    -0.351 OA
BRANCH  28  31
HETATM   31  O2  UNL     1      32.242  14.039   0.728  1.00  0.00    -0.354 OA
BRANCH  31  32
HETATM   32  C2  UNL     1      33.251  13.874   1.660  1.00  0.00     0.253 C 
HETATM   33  C1  UNL     1      33.438  12.439   1.999  1.00  0.00     0.070 C 
BRANCH  32  34
HETATM   34  O1  UNL     1      32.748  14.511   2.837  1.00  0.00    -0.372 OA
ATOM     35  H1  UNL     1      32.545  15.408   2.597  1.00  0.00     0.212 HD
ENDBRANCH  32  34
ENDBRANCH  31  32
ENDBRANCH  28  31
BRANCH  29  36
HETATM   36  C22 UNL     1      30.946  17.024   0.532  1.00  0.00     0.198 C 
BRANCH  36  37
HETATM   37  O9  UNL     1      32.207  17.052   1.092  1.00  0.00    -0.398 OA
ATOM     38  H9  UNL     1      32.804  17.542   0.540  1.00  0.00     0.209 HD
ENDBRANCH  36  37
ENDBRANCH  29  36
ENDBRANCH  25  26
ENDBRANCH   1  25
TORSDOF 16
ENDMDL
MODEL 5
REMARK VINA RESULT: -7.861435142      1.361      1.970
REMARK  16 active torsions:
REMARK  status: ('A' for Active; 'I' for Inactive)
REMARK    1  A    between atoms: C2_2  and  O1_3 
REMARK    2  A    between atoms: C2_2  and  O2_5 
REMARK    3  A    between atoms: O2_5  and  C3_6 
REMARK    4  A    between atoms: C5_8  and  O3_9 
REMARK    5  A    between atoms: O3_9  and  C6_10 
REMARK    6  A    between atoms: C11_15  and  O4_16 
REMARK    7  A    between atoms: O4_16  and  C12_17 
REMARK    8  A    between atoms: C15_20  and  O5_21 
REMARK    9  A    between atoms: O5_21  and  C16_22 
REMARK   10  A    between atoms: C16_22  and  C17_23 
REMARK   11  A    between atoms: C17_23  and  C18_24 
REMARK   12  A    between atoms: C18_24  and  N1_25 
REMARK   13  A    between atoms: C19_28  and  O6_29 
REMARK   14  A    between atoms: C20_31  and  O7_32 
REMARK   15  A    between atoms: C21_35  and  C22_36 
REMARK   16  A    between atoms: C22_36  and  O9_37 
ROOT
HETATM    1  C6  UNL     1      32.591  12.661   1.259  1.00  0.00     0.157 C 
HETATM    2  C7  UNL     1      33.216  13.928   1.810  1.00  0.00     0.061 C 
HETATM    3  C8  UNL     1      32.198  14.537   2.710  1.00  0.00    -0.028 C 
HETATM    4  C9  UNL     1      30.898  14.290   2.615  1.00  0.00    -0.028 C 
HETATM    5  C10 UNL     1      30.304  13.384   1.609  1.00  0.00     0.061 C 
HETATM    6  C11 UNL     1      31.325  13.114   0.518  1.00  0.00     0.154 C 
ENDROOT
BRANCH   6   7
HETATM    7  O4  UNL     1      30.892  12.149  -0.371  1.00  0.00    -0.375 OA
BRANCH   7   8
HETATM    8  C12 UNL     1      30.059  12.605  -1.355  1.00  0.00     0.153 C 
HETATM    9  C13 UNL     1      29.144  11.563  -1.932  1.00  0.00     0.037 C 
HETATM   10  C14 UNL     1      28.006  12.329  -2.626  1.00  0.00     0.037 C 
HETATM   11  C15 UNL     1      28.692  13.002  -3.832  1.00  0.00     0.152 C 
HETATM   12  C19 UNL     1      29.707  13.977  -3.333  1.00  0.00     0.178 C 
HETATM   13  C20 UNL     1      30.788  13.270  -2.506  1.00  0.00     0.178 C 
BRANCH  11  14
HETATM   14  O5  UNL     1      27.780  13.619  -4.644  1.00  0.00    -0.382 OA
BRANCH  14  15
HETATM   15  C16 UNL     1      26.859  12.749  -5.228  1.00  0.00     0.181 C 
BRANCH  15  16
HETATM   16  C17 UNL     1      26.329  13.223  -6.521  1.00  0.00     0.130 C 
BRANCH  16  17
HETATM   17  C18 UNL     1      25.518  12.495  -7.233  1.00  0.00    -0.076 C 
BRANCH  17  18
HETATM   18  N1  UNL     1      24.571  11.996  -7.944  1.00  0.00    -0.370 N 
ATOM     19  H12 UNL     1      24.447  11.243  -7.266  1.00  0.00     0.165 HD
ATOM     20  H11 UNL     1      23.860  11.761  -8.636  1.00  0.00     0.165 HD
ENDBRANCH  17  18
ENDBRANCH  16  17
ENDBRANCH  15  16
ENDBRANCH  14  15
ENDBRANCH  11  14
BRANCH  12  21
HETATM   21  O6  UNL     1      30.235  14.686  -4.383  1.00  0.00    -0.390 OA
ATOM     22  H6  UNL     1      30.179  15.618  -4.207  1.00  0.00     0.210 HD
ENDBRANCH  12  21
BRANCH  13  23
HETATM   23  O7  UNL     1      31.368  12.335  -3.347  1.00  0.00    -0.390 OA
ATOM     24  H7  UNL     1      31.165  12.513  -4.258  1.00  0.00     0.210 HD
ENDBRANCH  13  23
ENDBRANCH   7   8
ENDBRANCH   6   7
BRANCH   1  25
HETATM   25  O3  UNL     1      32.215  11.915   2.399  1.00  0.00    -0.353 OA
BRANCH  25  26
HETATM   26  C5  UNL     1      32.569  10.596   2.300  1.00  0.00     0.263 C 
HETATM   27  C4  UNL     1      32.893   9.946   3.627  1.00  0.00     0.095 C 
HETATM   28  C3  UNL     1      31.526   9.313   4.015  1.00  0.00     0.160 C 
HETATM   29  C21 UNL     1      30.625   9.862   2.974  1.00  0.00     0.177 C 
HETATM   30  O8  UNL     1      31.466   9.888   1.825  1.00  0.00    -0.351 OA
BRANCH  28  31
HETATM   31  O2  UNL     1      31.186   9.801   5.280  1.00  0.00    -0.354 OA
BRANCH  31  32
HETATM   32  C2  UNL     1      30.973   8.810   6.222  1.00  0.00     0.253 C 
HETATM   33  C1  UNL     1      31.168   7.460   5.631  1.00  0.00     0.070 C 
BRANCH  32  34
HETATM   34  O1  UNL     1      29.583   8.922   6.540  1.00  0.00    -0.372 OA
ATOM     35  H1  UNL     1      29.372   9.848   6.517  1.00  0.00     0.212 HD
ENDBRANCH  32  34
ENDBRANCH  31  32
ENDBRANCH  28  31
BRANCH  29  36
HETATM   36  C22 UNL     1      29.411   9.006   2.663  1.00  0.00     0.198 C 
BRANCH  36  37
HETATM   37  O9  UNL     1      28.549   8.984   3.740  1.00  0.00    -0.398 OA
ATOM     38  H9  UNL     1      27.650   8.904   3.444  1.00  0.00     0.209 HD
ENDBRANCH  36  37
ENDBRANCH  29  36
ENDBRANCH  25  26
ENDBRANCH   1  25
TORSDOF 16
ENDMDL
