MODEL 1
REMARK VINA RESULT: -8.517176700      0.000      0.000
REMARK  14 active torsions:
REMARK  status: ('A' for Active; 'I' for Inactive)
REMARK    1  A    between atoms: C2_2  and  C3_3 
REMARK    2  A    between atoms: C3_3  and  C4_4 
REMARK    3  A    between atoms: C3_3  and  S1_6 
REMARK    4  A    between atoms: S1_6  and  S2_7 
REMARK    5  A    between atoms: S2_7  and  C6_8 
REMARK    6  A    between atoms: C9_12  and  C10_13 
REMARK    7  A    between atoms: C10_13  and  O2_14 
REMARK    8  A    between atoms: O2_14  and  C11_15 
REMARK    9  A    between atoms: C12_17  and  C13_18 
REMARK   10  A    between atoms: C13_18  and  O4_19 
REMARK   11  A    between atoms: C14_21  and  O5_22 
REMARK   12  A    between atoms: C15_24  and  O6_25 
REMARK   13  A    between atoms: C16_27  and  O7_28 
REMARK   14  A    between atoms: C17_30  and  O8_31 
ROOT
HETATM    1  C6  UNL     1      29.814  12.195  -0.272  1.00  0.00     0.093 C 
HETATM    2  C7  UNL     1      30.678  11.804   0.878  1.00  0.00     0.133 C 
HETATM    3  C8  UNL     1      31.899  12.552   1.154  1.00  0.00     0.041 C 
HETATM    4  O1  UNL     1      29.833  11.613   1.955  1.00  0.00    -0.375 OA
HETATM    5  C9  UNL     1      28.832  10.679   1.729  1.00  0.00     0.174 C 
HETATM    6  C17 UNL     1      28.504  10.273   0.372  1.00  0.00     0.154 C 
HETATM    7  C18 UNL     1      29.253  10.873  -0.789  1.00  0.00     0.030 C 
HETATM    8  C19 UNL     1      28.372  11.033  -1.978  1.00  0.00     0.014 C 
ENDROOT
BRANCH   5   9
HETATM    9  C10 UNL     1      29.009   9.506   2.708  1.00  0.00     0.205 C 
BRANCH   9  10
HETATM   10  O2  UNL     1      30.251   8.965   2.504  1.00  0.00    -0.356 OA
BRANCH  10  11
HETATM   11  C11 UNL     1      30.901   8.656   3.707  1.00  0.00     0.291 C 
HETATM   12  O3  UNL     1      31.016   7.245   3.767  1.00  0.00    -0.348 OA
HETATM   13  C12 UNL     1      31.444   6.793   4.982  1.00  0.00     0.179 C 
HETATM   14  C14 UNL     1      32.727   7.404   5.451  1.00  0.00     0.180 C 
HETATM   15  C15 UNL     1      33.002   8.760   4.943  1.00  0.00     0.183 C 
HETATM   16  C16 UNL     1      32.302   9.194   3.703  1.00  0.00     0.204 C 
BRANCH  13  17
HETATM   17  C13 UNL     1      30.357   6.804   6.042  1.00  0.00     0.198 C 
BRANCH  17  18
HETATM   18  O4  UNL     1      29.142   6.395   5.446  1.00  0.00    -0.398 OA
ATOM     19  H4  UNL     1      29.253   5.516   5.104  1.00  0.00     0.209 HD
ENDBRANCH  17  18
ENDBRANCH  13  17
BRANCH  14  20
HETATM   20  O5  UNL     1      33.830   6.554   5.219  1.00  0.00    -0.390 OA
ATOM     21  H5  UNL     1      34.656   6.991   5.391  1.00  0.00     0.210 HD
ENDBRANCH  14  20
BRANCH  15  22
HETATM   22  O6  UNL     1      32.755   9.748   5.928  1.00  0.00    -0.390 OA
ATOM     23  H6  UNL     1      33.418   9.738   6.609  1.00  0.00     0.210 HD
ENDBRANCH  15  22
BRANCH  16  24
HETATM   24  O7  UNL     1      32.338  10.593   3.646  1.00  0.00    -0.388 OA
ATOM     25  H7  UNL     1      33.150  10.920   3.278  1.00  0.00     0.210 HD
ENDBRANCH  16  24
ENDBRANCH  10  11
ENDBRANCH   9  10
ENDBRANCH   5   9
BRANCH   6  26
HETATM   26  O8  UNL     1      28.611   8.884   0.213  1.00  0.00    -0.393 OA
ATOM     27  H8  UNL     1      27.892   8.537  -0.302  1.00  0.00     0.210 HD
ENDBRANCH   6  26
BRANCH   1  28
HETATM   28  S2  UNL     1      30.327  13.355  -1.456  1.00  0.00    -0.089 SA
BRANCH  28  29
HETATM   29  S1  UNL     1      29.983  15.317  -1.034  1.00  0.00    -0.092 SA
BRANCH  29  30
HETATM   30  C3  UNL     1      30.492  16.131   0.392  1.00  0.00     0.058 C 
BRANCH  30  31
HETATM   31  C2  UNL     1      31.349  17.349   0.350  1.00  0.00     0.011 C 
HETATM   32  C1  UNL     1      32.712  17.005   1.007  1.00  0.00     0.006 C 
ENDBRANCH  30  31
BRANCH  30  33
HETATM   33  C4  UNL     1      29.343  16.373   1.409  1.00  0.00     0.011 C 
HETATM   34  C5  UNL     1      28.527  15.122   1.529  1.00  0.00     0.006 C 
ENDBRANCH  30  33
ENDBRANCH  29  30
ENDBRANCH  28  29
ENDBRANCH   1  28
TORSDOF 14
ENDMDL
MODEL 2
REMARK VINA RESULT: -8.227883310      0.618      1.501
REMARK  14 active torsions:
REMARK  status: ('A' for Active; 'I' for Inactive)
REMARK    1  A    between atoms: C2_2  and  C3_3 
REMARK    2  A    between atoms: C3_3  and  C4_4 
REMARK    3  A    between atoms: C3_3  and  S1_6 
REMARK    4  A    between atoms: S1_6  and  S2_7 
REMARK    5  A    between atoms: S2_7  and  C6_8 
REMARK    6  A    between atoms: C9_12  and  C10_13 
REMARK    7  A    between atoms: C10_13  and  O2_14 
REMARK    8  A    between atoms: O2_14  and  C11_15 
REMARK    9  A    between atoms: C12_17  and  C13_18 
REMARK   10  A    between atoms: C13_18  and  O4_19 
REMARK   11  A    between atoms: C14_21  and  O5_22 
REMARK   12  A    between atoms: C15_24  and  O6_25 
REMARK   13  A    between atoms: C16_27  and  O7_28 
REMARK   14  A    between atoms: C17_30  and  O8_31 
ROOT
HETATM    1  C6  UNL     1      29.800  12.054  -0.351  1.00  0.00     0.093 C 
HETATM    2  C7  UNL     1      30.645  11.694   0.823  1.00  0.00     0.133 C 
HETATM    3  C8  UNL     1      31.863  12.448   1.096  1.00  0.00     0.041 C 
HETATM    4  O1  UNL     1      29.783  11.536   1.891  1.00  0.00    -0.375 OA
HETATM    5  C9  UNL     1      28.783  10.598   1.677  1.00  0.00     0.174 C 
HETATM    6  C17 UNL     1      28.475  10.154   0.326  1.00  0.00     0.154 C 
HETATM    7  C18 UNL     1      29.244  10.720  -0.839  1.00  0.00     0.030 C 
HETATM    8  C19 UNL     1      28.382  10.848  -2.046  1.00  0.00     0.014 C 
ENDROOT
BRANCH   5   9
HETATM    9  C10 UNL     1      28.942   9.452   2.691  1.00  0.00     0.205 C 
BRANCH   9  10
HETATM   10  O2  UNL     1      30.193   8.917   2.536  1.00  0.00    -0.356 OA
BRANCH  10  11
HETATM   11  C11 UNL     1      30.811   8.645   3.764  1.00  0.00     0.291 C 
HETATM   12  O3  UNL     1      30.875   7.236   3.894  1.00  0.00    -0.348 OA
HETATM   13  C12 UNL     1      31.266   6.829   5.137  1.00  0.00     0.179 C 
HETATM   14  C14 UNL     1      32.562   7.417   5.600  1.00  0.00     0.180 C 
HETATM   15  C15 UNL     1      32.894   8.736   5.032  1.00  0.00     0.183 C 
HETATM   16  C16 UNL     1      32.230   9.133   3.760  1.00  0.00     0.204 C 
BRANCH  13  17
HETATM   17  C13 UNL     1      30.162   6.929   6.175  1.00  0.00     0.198 C 
BRANCH  17  18
HETATM   18  O4  UNL     1      30.136   8.248   6.681  1.00  0.00    -0.398 OA
ATOM     19  H4  UNL     1      29.725   8.237   7.537  1.00  0.00     0.209 HD
ENDBRANCH  17  18
ENDBRANCH  13  17
BRANCH  14  20
HETATM   20  O5  UNL     1      33.638   6.519   5.430  1.00  0.00    -0.390 OA
ATOM     21  H5  UNL     1      34.265   6.578   6.141  1.00  0.00     0.210 HD
ENDBRANCH  14  20
BRANCH  15  22
HETATM   22  O6  UNL     1      32.666   9.779   5.963  1.00  0.00    -0.390 OA
ATOM     23  H6  UNL     1      33.261   9.726   6.702  1.00  0.00     0.210 HD
ENDBRANCH  15  22
BRANCH  16  24
HETATM   24  O7  UNL     1      32.317  10.525   3.636  1.00  0.00    -0.388 OA
ATOM     25  H7  UNL     1      32.187  10.819   2.743  1.00  0.00     0.210 HD
ENDBRANCH  16  24
ENDBRANCH  10  11
ENDBRANCH   9  10
ENDBRANCH   5   9
BRANCH   6  26
HETATM   26  O8  UNL     1      28.582   8.761   0.208  1.00  0.00    -0.393 OA
ATOM     27  H8  UNL     1      27.936   8.414  -0.396  1.00  0.00     0.210 HD
ENDBRANCH   6  26
BRANCH   1  28
HETATM   28  S2  UNL     1      30.334  13.180  -1.559  1.00  0.00    -0.089 SA
BRANCH  28  29
HETATM   29  S1  UNL     1      29.898  15.145  -1.246  1.00  0.00    -0.092 SA
BRANCH  29  30
HETATM   30  C3  UNL     1      29.993  15.955   0.267  1.00  0.00     0.058 C 
BRANCH  30  31
HETATM   31  C2  UNL     1      29.471  15.353   1.525  1.00  0.00     0.011 C 
HETATM   32  C1  UNL     1      28.111  14.674   1.209  1.00  0.00     0.006 C 
ENDBRANCH  30  31
BRANCH  30  33
HETATM   33  C4  UNL     1      31.393  16.562   0.555  1.00  0.00     0.011 C 
HETATM   34  C5  UNL     1      31.343  18.040   0.313  1.00  0.00     0.006 C 
ENDBRANCH  30  33
ENDBRANCH  29  30
ENDBRANCH  28  29
ENDBRANCH   1  28
TORSDOF 14
ENDMDL
MODEL 3
REMARK VINA RESULT: -8.016503883      1.106      2.277
REMARK  14 active torsions:
REMARK  status: ('A' for Active; 'I' for Inactive)
REMARK    1  A    between atoms: C2_2  and  C3_3 
REMARK    2  A    between atoms: C3_3  and  C4_4 
REMARK    3  A    between atoms: C3_3  and  S1_6 
REMARK    4  A    between atoms: S1_6  and  S2_7 
REMARK    5  A    between atoms: S2_7  and  C6_8 
REMARK    6  A    between atoms: C9_12  and  C10_13 
REMARK    7  A    between atoms: C10_13  and  O2_14 
REMARK    8  A    between atoms: O2_14  and  C11_15 
REMARK    9  A    between atoms: C12_17  and  C13_18 
REMARK   10  A    between atoms: C13_18  and  O4_19 
REMARK   11  A    between atoms: C14_21  and  O5_22 
REMARK   12  A    between atoms: C15_24  and  O6_25 
REMARK   13  A    between atoms: C16_27  and  O7_28 
REMARK   14  A    between atoms: C17_30  and  O8_31 
ROOT
HETATM    1  C6  UNL     1      29.623  12.209  -0.552  1.00  0.00     0.093 C 
HETATM    2  C7  UNL     1      30.318  11.727   0.675  1.00  0.00     0.133 C 
HETATM    3  C8  UNL     1      31.505  12.425   1.156  1.00  0.00     0.041 C 
HETATM    4  O1  UNL     1      29.334  11.495   1.616  1.00  0.00    -0.375 OA
HETATM    5  C9  UNL     1      28.355  10.603   1.202  1.00  0.00     0.174 C 
HETATM    6  C17 UNL     1      28.203  10.288  -0.211  1.00  0.00     0.154 C 
HETATM    7  C18 UNL     1      29.112  10.937  -1.222  1.00  0.00     0.030 C 
HETATM    8  C19 UNL     1      28.400  11.192  -2.504  1.00  0.00     0.014 C 
ENDROOT
BRANCH   5   9
HETATM    9  C10 UNL     1      28.377   9.368   2.119  1.00  0.00     0.205 C 
BRANCH   9  10
HETATM   10  O2  UNL     1      28.759   9.775   3.370  1.00  0.00    -0.356 OA
BRANCH  10  11
HETATM   11  C11 UNL     1      30.009   9.261   3.739  1.00  0.00     0.291 C 
HETATM   12  O3  UNL     1      30.853  10.369   3.998  1.00  0.00    -0.348 OA
HETATM   13  C12 UNL     1      32.162  10.017   4.167  1.00  0.00     0.179 C 
HETATM   14  C14 UNL     1      32.392   8.977   5.217  1.00  0.00     0.180 C 
HETATM   15  C15 UNL     1      31.265   8.055   5.449  1.00  0.00     0.183 C 
HETATM   16  C16 UNL     1      29.908   8.497   5.027  1.00  0.00     0.204 C 
BRANCH  13  17
HETATM   17  C13 UNL     1      32.873   9.713   2.860  1.00  0.00     0.198 C 
BRANCH  17  18
HETATM   18  O4  UNL     1      32.865   8.314   2.657  1.00  0.00    -0.398 OA
ATOM     19  H4  UNL     1      33.763   8.010   2.601  1.00  0.00     0.209 HD
ENDBRANCH  17  18
ENDBRANCH  13  17
BRANCH  14  20
HETATM   20  O5  UNL     1      32.827   9.544   6.434  1.00  0.00    -0.390 OA
ATOM     21  H5  UNL     1      33.212   8.895   7.011  1.00  0.00     0.210 HD
ENDBRANCH  14  20
BRANCH  15  22
HETATM   22  O6  UNL     1      31.494   6.789   4.857  1.00  0.00    -0.390 OA
ATOM     23  H6  UNL     1      32.204   6.324   5.285  1.00  0.00     0.210 HD
ENDBRANCH  15  22
BRANCH  16  24
HETATM   24  O7  UNL     1      29.094   7.363   4.913  1.00  0.00    -0.388 OA
ATOM     25  H7  UNL     1      28.196   7.533   5.173  1.00  0.00     0.210 HD
ENDBRANCH  16  24
ENDBRANCH  10  11
ENDBRANCH   9  10
ENDBRANCH   5   9
BRANCH   6  26
HETATM   26  O8  UNL     1      28.305   8.909  -0.441  1.00  0.00    -0.393 OA
ATOM     27  H8  UNL     1      28.987   8.713  -1.073  1.00  0.00     0.210 HD
ENDBRANCH   6  26
BRANCH   1  28
HETATM   28  S2  UNL     1      30.310  13.425  -1.583  1.00  0.00    -0.089 SA
BRANCH  28  29
HETATM   29  S1  UNL     1      30.008  15.367  -1.047  1.00  0.00    -0.092 SA
BRANCH  29  30
HETATM   30  C3  UNL     1      30.042  15.970   0.562  1.00  0.00     0.058 C 
BRANCH  30  31
HETATM   31  C2  UNL     1      30.208  17.420   0.864  1.00  0.00     0.011 C 
HETATM   32  C1  UNL     1      31.162  18.029  -0.199  1.00  0.00     0.006 C 
ENDBRANCH  30  31
BRANCH  30  33
HETATM   33  C4  UNL     1      28.902  15.410   1.455  1.00  0.00     0.011 C 
HETATM   34  C5  UNL     1      28.363  16.517   2.310  1.00  0.00     0.006 C 
ENDBRANCH  30  33
ENDBRANCH  29  30
ENDBRANCH  28  29
ENDBRANCH   1  28
TORSDOF 14
ENDMDL
MODEL 4
REMARK VINA RESULT: -8.004592248      1.783      4.433
REMARK  14 active torsions:
REMARK  status: ('A' for Active; 'I' for Inactive)
REMARK    1  A    between atoms: C2_2  and  C3_3 
REMARK    2  A    between atoms: C3_3  and  C4_4 
REMARK    3  A    between atoms: C3_3  and  S1_6 
REMARK    4  A    between atoms: S1_6  and  S2_7 
REMARK    5  A    between atoms: S2_7  and  C6_8 
REMARK    6  A    between atoms: C9_12  and  C10_13 
REMARK    7  A    between atoms: C10_13  and  O2_14 
REMARK    8  A    between atoms: O2_14  and  C11_15 
REMARK    9  A    between atoms: C12_17  and  C13_18 
REMARK   10  A    between atoms: C13_18  and  O4_19 
REMARK   11  A    between atoms: C14_21  and  O5_22 
REMARK   12  A    between atoms: C15_24  and  O6_25 
REMARK   13  A    between atoms: C16_27  and  O7_28 
REMARK   14  A    between atoms: C17_30  and  O8_31 
ROOT
HETATM    1  C6  UNL     1      30.812  14.159   0.012  1.00  0.00     0.093 C 
HETATM    2  C7  UNL     1      30.171  13.007   0.706  1.00  0.00     0.133 C 
HETATM    3  C8  UNL     1      28.818  12.605   0.342  1.00  0.00     0.041 C 
HETATM    4  O1  UNL     1      31.112  11.996   0.736  1.00  0.00    -0.375 OA
HETATM    5  C9  UNL     1      32.308  12.355   1.342  1.00  0.00     0.174 C 
HETATM    6  C17 UNL     1      32.634  13.758   1.544  1.00  0.00     0.154 C 
HETATM    7  C18 UNL     1      31.668  14.821   1.089  1.00  0.00     0.030 C 
HETATM    8  C19 UNL     1      32.385  16.033   0.607  1.00  0.00     0.014 C 
ENDROOT
BRANCH   5   9
HETATM    9  C10 UNL     1      32.524  11.477   2.587  1.00  0.00     0.205 C 
BRANCH   9  10
HETATM   10  O2  UNL     1      31.307  11.276   3.183  1.00  0.00    -0.356 OA
BRANCH  10  11
HETATM   11  C11 UNL     1      31.185   9.987   3.721  1.00  0.00     0.291 C 
HETATM   12  O3  UNL     1      30.788  10.138   5.072  1.00  0.00    -0.348 OA
HETATM   13  C12 UNL     1      30.832   8.969   5.777  1.00  0.00     0.179 C 
HETATM   14  C14 UNL     1      30.052   7.849   5.165  1.00  0.00     0.180 C 
HETATM   15  C15 UNL     1      29.902   7.911   3.699  1.00  0.00     0.183 C 
HETATM   16  C16 UNL     1      30.081   9.233   3.038  1.00  0.00     0.204 C 
BRANCH  13  17
HETATM   17  C13 UNL     1      32.239   8.565   6.179  1.00  0.00     0.198 C 
BRANCH  17  18
HETATM   18  O4  UNL     1      32.934   9.718   6.610  1.00  0.00    -0.398 OA
ATOM     19  H4  UNL     1      33.754   9.447   7.006  1.00  0.00     0.209 HD
ENDBRANCH  17  18
ENDBRANCH  13  17
BRANCH  14  20
HETATM   20  O5  UNL     1      28.794   7.683   5.784  1.00  0.00    -0.390 OA
ATOM     21  H5  UNL     1      28.754   6.886   6.299  1.00  0.00     0.210 HD
ENDBRANCH  14  20
BRANCH  15  22
HETATM   22  O6  UNL     1      30.766   6.998   3.046  1.00  0.00    -0.390 OA
ATOM     23  H6  UNL     1      31.595   7.402   2.816  1.00  0.00     0.210 HD
ENDBRANCH  15  22
BRANCH  16  24
HETATM   24  O7  UNL     1      30.345   9.011   1.681  1.00  0.00    -0.388 OA
ATOM     25  H7  UNL     1      29.969   9.683   1.124  1.00  0.00     0.210 HD
ENDBRANCH  16  24
ENDBRANCH  10  11
ENDBRANCH   9  10
ENDBRANCH   5   9
BRANCH   6  26
HETATM   26  O8  UNL     1      32.891  14.035   2.894  1.00  0.00    -0.393 OA
ATOM     27  H8  UNL     1      33.741  13.703   3.160  1.00  0.00     0.210 HD
ENDBRANCH   6  26
BRANCH   1  28
HETATM   28  S2  UNL     1      29.923  15.208  -1.048  1.00  0.00    -0.089 SA
BRANCH  28  29
HETATM   29  S1  UNL     1      29.680  14.585  -2.971  1.00  0.00    -0.092 SA
BRANCH  29  30
HETATM   30  C3  UNL     1      29.492  12.951  -3.471  1.00  0.00     0.058 C 
BRANCH  30  31
HETATM   31  C2  UNL     1      30.371  11.859  -2.967  1.00  0.00     0.011 C 
HETATM   32  C1  UNL     1      29.466  10.727  -2.411  1.00  0.00     0.006 C 
ENDBRANCH  30  31
BRANCH  30  33
HETATM   33  C4  UNL     1      28.020  12.458  -3.427  1.00  0.00     0.011 C 
HETATM   34  C5  UNL     1      27.322  12.894  -4.679  1.00  0.00     0.006 C 
ENDBRANCH  30  33
ENDBRANCH  29  30
ENDBRANCH  28  29
ENDBRANCH   1  28
TORSDOF 14
ENDMDL
MODEL 5
REMARK VINA RESULT: -7.932662055      2.116      4.294
REMARK  14 active torsions:
REMARK  status: ('A' for Active; 'I' for Inactive)
REMARK    1  A    between atoms: C2_2  and  C3_3 
REMARK    2  A    between atoms: C3_3  and  C4_4 
REMARK    3  A    between atoms: C3_3  and  S1_6 
REMARK    4  A    between atoms: S1_6  and  S2_7 
REMARK    5  A    between atoms: S2_7  and  C6_8 
REMARK    6  A    between atoms: C9_12  and  C10_13 
REMARK    7  A    between atoms: C10_13  and  O2_14 
REMARK    8  A    between atoms: O2_14  and  C11_15 
REMARK    9  A    between atoms: C12_17  and  C13_18 
REMARK   10  A    between atoms: C13_18  and  O4_19 
REMARK   11  A    between atoms: C14_21  and  O5_22 
REMARK   12  A    between atoms: C15_24  and  O6_25 
REMARK   13  A    between atoms: C16_27  and  O7_28 
REMARK   14  A    between atoms: C17_30  and  O8_31 
ROOT
HETATM    1  C6  UNL     1      29.048  12.775   0.229  1.00  0.00     0.093 C 
HETATM    2  C7  UNL     1      29.174  11.437   0.874  1.00  0.00     0.133 C 
HETATM    3  C8  UNL     1      28.184  10.403   0.593  1.00  0.00     0.041 C 
HETATM    4  O1  UNL     1      30.495  11.059   0.736  1.00  0.00    -0.375 OA
HETATM    5  C9  UNL     1      31.401  11.967   1.266  1.00  0.00     0.174 C 
HETATM    6  C17 UNL     1      30.984  13.329   1.559  1.00  0.00     0.154 C 
HETATM    7  C18 UNL     1      29.565  13.752   1.282  1.00  0.00     0.030 C 
HETATM    8  C19 UNL     1      29.499  15.174   0.848  1.00  0.00     0.014 C 
ENDROOT
BRANCH   5   9
HETATM    9  C10 UNL     1      32.180  11.292   2.408  1.00  0.00     0.205 C 
BRANCH   9  10
HETATM   10  O2  UNL     1      32.274   9.954   2.127  1.00  0.00    -0.356 OA
BRANCH  10  11
HETATM   11  C11 UNL     1      31.856   9.155   3.200  1.00  0.00     0.291 C 
HETATM   12  O3  UNL     1      32.090   9.895   4.385  1.00  0.00    -0.348 OA
HETATM   13  C12 UNL     1      31.922   9.156   5.521  1.00  0.00     0.179 C 
HETATM   14  C14 UNL     1      30.592   8.479   5.627  1.00  0.00     0.180 C 
HETATM   15  C15 UNL     1      29.944   8.157   4.342  1.00  0.00     0.183 C 
HETATM   16  C16 UNL     1      30.376   8.916   3.136  1.00  0.00     0.204 C 
BRANCH  13  17
HETATM   17  C13 UNL     1      33.088   8.226   5.808  1.00  0.00     0.198 C 
BRANCH  17  18
HETATM   18  O4  UNL     1      32.605   6.899   5.855  1.00  0.00    -0.398 OA
ATOM     19  H4  UNL     1      32.276   6.727   6.730  1.00  0.00     0.209 HD
ENDBRANCH  17  18
ENDBRANCH  13  17
BRANCH  14  20
HETATM   20  O5  UNL     1      29.705   9.190   6.464  1.00  0.00    -0.390 OA
ATOM     21  H5  UNL     1      29.861  10.126   6.433  1.00  0.00     0.210 HD
ENDBRANCH  14  20
BRANCH  15  22
HETATM   22  O6  UNL     1      30.058   6.780   4.030  1.00  0.00    -0.390 OA
ATOM     23  H6  UNL     1      30.799   6.609   3.461  1.00  0.00     0.210 HD
ENDBRANCH  15  22
BRANCH  16  24
HETATM   24  O7  UNL     1      30.000   8.186   2.002  1.00  0.00    -0.388 OA
ATOM     25  H7  UNL     1      30.505   8.424   1.233  1.00  0.00     0.210 HD
ENDBRANCH  16  24
ENDBRANCH  10  11
ENDBRANCH   9  10
ENDBRANCH   5   9
BRANCH   6  26
HETATM   26  O8  UNL     1      31.220  13.660   2.901  1.00  0.00    -0.393 OA
ATOM     27  H8  UNL     1      31.707  14.472   2.978  1.00  0.00     0.210 HD
ENDBRANCH   6  26
BRANCH   1  28
HETATM   28  S2  UNL     1      27.630  13.242  -0.656  1.00  0.00    -0.089 SA
BRANCH  28  29
HETATM   29  S1  UNL     1      27.446  12.519  -2.551  1.00  0.00    -0.092 SA
BRANCH  29  30
HETATM   30  C3  UNL     1      28.382  13.022  -3.902  1.00  0.00     0.058 C 
BRANCH  30  31
HETATM   31  C2  UNL     1      27.771  13.676  -5.093  1.00  0.00     0.011 C 
HETATM   32  C1  UNL     1      26.616  12.772  -5.603  1.00  0.00     0.006 C 
ENDBRANCH  30  31
BRANCH  30  33
HETATM   33  C4  UNL     1      29.659  13.812  -3.508  1.00  0.00     0.011 C 
HETATM   34  C5  UNL     1      30.698  12.848  -3.020  1.00  0.00     0.006 C 
ENDBRANCH  30  33
ENDBRANCH  29  30
ENDBRANCH  28  29
ENDBRANCH   1  28
TORSDOF 14
ENDMDL
