MODEL 1
REMARK VINA RESULT: -7.955627385      0.000      0.000
REMARK  17 active torsions:
REMARK  status: ('A' for Active; 'I' for Inactive)
REMARK    1  A    between atoms: C2_2  and  C3_3 
REMARK    2  A    between atoms: C3_3  and  C4_4 
REMARK    3  A    between atoms: C4_4  and  C5_5 
REMARK    4  A    between atoms: C5_5  and  N1_6 
REMARK    5  A    between atoms: N1_6  and  C6_8 
REMARK    6  A    between atoms: C6_8  and  O1_10 
REMARK    7  A    between atoms: O1_10  and  C7_11 
REMARK    8  A    between atoms: C8_12  and  O2_13 
REMARK    9  A    between atoms: O2_13  and  C9_14 
REMARK   10  A    between atoms: C10_16  and  C11_17 
REMARK   11  A    between atoms: C11_17  and  O4_18 
REMARK   12  A    between atoms: C12_20  and  O5_21 
REMARK   13  A    between atoms: C13_23  and  O6_24 
REMARK   14  A    between atoms: C14_26  and  O7_27 
REMARK   15  A    between atoms: C18_33  and  N2_34 
REMARK   16  A    between atoms: N2_34  and  N3_36 
REMARK   17  A    between atoms: N3_36  and  N4_37 
ROOT
HETATM    1  C7  UNL     1      29.782  11.786   1.067  1.00  0.00     0.214 C 
HETATM    2  C8  UNL     1      30.919  11.228   1.853  1.00  0.00     0.295 C 
HETATM    3  O8  UNL     1      31.999  12.003   1.438  1.00  0.00    -0.346 OA
HETATM    4  C15 UNL     1      31.519  13.322   1.410  1.00  0.00     0.082 C 
HETATM    5  C16 UNL     1      31.480  13.932   2.774  1.00  0.00     0.048 C 
HETATM    6  C17 UNL     1      32.392  14.119   0.453  1.00  0.00     0.048 C 
HETATM    7  C18 UNL     1      30.120  13.245   0.871  1.00  0.00     0.182 C 
ENDROOT
BRANCH   2   8
HETATM    8  O2  UNL     1      30.670  11.424   3.209  1.00  0.00    -0.326 OA
BRANCH   8   9
HETATM    9  C9  UNL     1      31.061  10.353   3.993  1.00  0.00     0.294 C 
HETATM   10  O3  UNL     1      30.028   9.458   4.242  1.00  0.00    -0.348 OA
HETATM   11  C10 UNL     1      30.293   8.819   5.456  1.00  0.00     0.179 C 
HETATM   12  C12 UNL     1      31.723   8.336   5.507  1.00  0.00     0.180 C 
HETATM   13  C13 UNL     1      32.327   8.262   4.119  1.00  0.00     0.183 C 
HETATM   14  C14 UNL     1      32.243   9.620   3.477  1.00  0.00     0.204 C 
BRANCH  11  15
HETATM   15  C11 UNL     1      29.370   7.668   5.706  1.00  0.00     0.198 C 
BRANCH  15  16
HETATM   16  O4  UNL     1      29.190   6.845   4.606  1.00  0.00    -0.398 OA
ATOM     17  H4  UNL     1      29.882   6.911   3.958  1.00  0.00     0.209 HD
ENDBRANCH  15  16
ENDBRANCH  11  15
BRANCH  12  18
HETATM   18  O5  UNL     1      31.731   7.036   5.994  1.00  0.00    -0.390 OA
ATOM     19  H5  UNL     1      32.404   6.547   5.534  1.00  0.00     0.210 HD
ENDBRANCH  12  18
BRANCH  13  20
HETATM   20  O6  UNL     1      33.666   7.902   4.288  1.00  0.00    -0.390 OA
ATOM     21  H6  UNL     1      33.682   6.957   4.377  1.00  0.00     0.210 HD
ENDBRANCH  13  20
BRANCH  14  22
HETATM   22  O7  UNL     1      33.436  10.334   3.604  1.00  0.00    -0.388 OA
ATOM     23  H7  UNL     1      33.591  10.940   2.889  1.00  0.00     0.210 HD
ENDBRANCH  14  22
ENDBRANCH   8   9
ENDBRANCH   2   8
BRANCH   1  24
HETATM   24  O1  UNL     1      29.472  11.126  -0.111  1.00  0.00    -0.314 OA
BRANCH  24  25
HETATM   25  C6  UNL     1      28.261  10.658  -0.543  1.00  0.00     0.210 C 
HETATM   26  S1  UNL     1      28.095   9.055  -0.785  1.00  0.00    -0.033 SA
BRANCH  25  27
HETATM   27  N1  UNL     1      27.144  11.494  -0.790  1.00  0.00    -0.361 N 
ATOM     28  H1  UNL     1      26.225  11.196  -0.465  1.00  0.00     0.162 HD
BRANCH  27  29
HETATM   29  C5  UNL     1      27.261  12.761  -1.490  1.00  0.00     0.122 C 
BRANCH  29  30
HETATM   30  C4  UNL     1      27.100  12.626  -2.964  1.00  0.00     0.020 C 
BRANCH  30  31
HETATM   31  C3  UNL     1      28.484  12.742  -3.590  1.00  0.00     0.001 C 
BRANCH  31  32
HETATM   32  C2  UNL     1      29.361  13.691  -2.800  1.00  0.00    -0.004 C 
HETATM   33  C1  UNL     1      30.760  13.109  -2.812  1.00  0.00     0.005 C 
ENDBRANCH  31  32
ENDBRANCH  30  31
ENDBRANCH  29  30
ENDBRANCH  27  29
ENDBRANCH  25  27
ENDBRANCH  24  25
ENDBRANCH   1  24
BRANCH   7  34
HETATM   34  N2  UNL     1      29.180  14.114   1.509  1.00  0.00    -0.242 N 
ATOM     35  H2  UNL     1      28.543  13.693   2.185  1.00  0.00     0.197 HD
BRANCH  34  36
HETATM   36  N3  UNL     1      29.071  15.315   1.318  1.00  0.00    -0.248 NA
BRANCH  36  37
HETATM   37  N4  UNL     1      29.260  16.528   1.344  1.00  0.00    -0.261 N 
ATOM     38  H42 UNL     1      29.622  16.539   2.297  1.00  0.00     0.193 HD
ATOM     39  H41 UNL     1      29.305  17.512   1.081  1.00  0.00     0.193 HD
ENDBRANCH  36  37
ENDBRANCH  34  36
ENDBRANCH   7  34
TORSDOF 17
ENDMDL
MODEL 2
REMARK VINA RESULT: -7.758229292      0.810      1.969
REMARK  17 active torsions:
REMARK  status: ('A' for Active; 'I' for Inactive)
REMARK    1  A    between atoms: C2_2  and  C3_3 
REMARK    2  A    between atoms: C3_3  and  C4_4 
REMARK    3  A    between atoms: C4_4  and  C5_5 
REMARK    4  A    between atoms: C5_5  and  N1_6 
REMARK    5  A    between atoms: N1_6  and  C6_8 
REMARK    6  A    between atoms: C6_8  and  O1_10 
REMARK    7  A    between atoms: O1_10  and  C7_11 
REMARK    8  A    between atoms: C8_12  and  O2_13 
REMARK    9  A    between atoms: O2_13  and  C9_14 
REMARK   10  A    between atoms: C10_16  and  C11_17 
REMARK   11  A    between atoms: C11_17  and  O4_18 
REMARK   12  A    between atoms: C12_20  and  O5_21 
REMARK   13  A    between atoms: C13_23  and  O6_24 
REMARK   14  A    between atoms: C14_26  and  O7_27 
REMARK   15  A    between atoms: C18_33  and  N2_34 
REMARK   16  A    between atoms: N2_34  and  N3_36 
REMARK   17  A    between atoms: N3_36  and  N4_37 
ROOT
HETATM    1  C7  UNL     1      29.774  11.905   0.854  1.00  0.00     0.214 C 
HETATM    2  C8  UNL     1      31.073  11.388   1.372  1.00  0.00     0.295 C 
HETATM    3  O8  UNL     1      31.989  12.341   0.933  1.00  0.00    -0.346 OA
HETATM    4  C15 UNL     1      31.379  13.582   1.181  1.00  0.00     0.082 C 
HETATM    5  C16 UNL     1      31.498  13.985   2.616  1.00  0.00     0.048 C 
HETATM    6  C17 UNL     1      32.002  14.606   0.247  1.00  0.00     0.048 C 
HETATM    7  C18 UNL     1      29.928  13.407   0.843  1.00  0.00     0.182 C 
ENDROOT
BRANCH   2   8
HETATM    8  O2  UNL     1      31.026  11.360   2.764  1.00  0.00    -0.326 OA
BRANCH   8   9
HETATM    9  C9  UNL     1      30.997  10.076   3.280  1.00  0.00     0.294 C 
HETATM   10  O3  UNL     1      32.072   9.805   4.116  1.00  0.00    -0.348 OA
HETATM   11  C10 UNL     1      32.312   8.429   4.078  1.00  0.00     0.179 C 
HETATM   12  C12 UNL     1      31.026   7.655   4.246  1.00  0.00     0.180 C 
HETATM   13  C13 UNL     1      29.938   8.523   4.847  1.00  0.00     0.183 C 
HETATM   14  C14 UNL     1      29.730   9.724   3.965  1.00  0.00     0.204 C 
BRANCH  11  15
HETATM   15  C11 UNL     1      33.293   7.994   5.121  1.00  0.00     0.198 C 
BRANCH  15  16
HETATM   16  O4  UNL     1      34.173   7.014   4.691  1.00  0.00    -0.398 OA
ATOM     17  H4  UNL     1      33.968   6.145   5.014  1.00  0.00     0.209 HD
ENDBRANCH  15  16
ENDBRANCH  11  15
BRANCH  12  18
HETATM   18  O5  UNL     1      31.243   6.633   5.160  1.00  0.00    -0.390 OA
ATOM     19  H5  UNL     1      30.953   5.816   4.772  1.00  0.00     0.210 HD
ENDBRANCH  12  18
BRANCH  13  20
HETATM   20  O6  UNL     1      28.777   7.746   4.867  1.00  0.00    -0.390 OA
ATOM     21  H6  UNL     1      28.835   7.196   5.640  1.00  0.00     0.210 HD
ENDBRANCH  13  20
BRANCH  14  22
HETATM   22  O7  UNL     1      28.656   9.551   3.090  1.00  0.00    -0.388 OA
ATOM     23  H7  UNL     1      28.217   8.714   3.194  1.00  0.00     0.210 HD
ENDBRANCH  14  22
ENDBRANCH   8   9
ENDBRANCH   2   8
BRANCH   1  24
HETATM   24  O1  UNL     1      29.347  11.383  -0.356  1.00  0.00    -0.314 OA
BRANCH  24  25
HETATM   25  C6  UNL     1      28.164  10.767  -0.659  1.00  0.00     0.210 C 
HETATM   26  S1  UNL     1      28.082   9.145  -0.528  1.00  0.00    -0.033 SA
BRANCH  25  27
HETATM   27  N1  UNL     1      27.005  11.466  -1.079  1.00  0.00    -0.361 N 
ATOM     28  H1  UNL     1      26.092  11.032  -0.945  1.00  0.00     0.162 HD
BRANCH  27  29
HETATM   29  C5  UNL     1      27.071  12.781  -1.694  1.00  0.00     0.122 C 
BRANCH  29  30
HETATM   30  C4  UNL     1      26.974  12.730  -3.179  1.00  0.00     0.020 C 
BRANCH  30  31
HETATM   31  C3  UNL     1      28.392  12.791  -3.734  1.00  0.00     0.001 C 
BRANCH  31  32
HETATM   32  C2  UNL     1      29.237  13.781  -2.960  1.00  0.00    -0.004 C 
HETATM   33  C1  UNL     1      30.658  13.256  -2.979  1.00  0.00     0.005 C 
ENDBRANCH  31  32
ENDBRANCH  30  31
ENDBRANCH  29  30
ENDBRANCH  27  29
ENDBRANCH  25  27
ENDBRANCH  24  25
ENDBRANCH   1  24
BRANCH   7  34
HETATM   34  N2  UNL     1      29.019  14.056   1.739  1.00  0.00    -0.242 N 
ATOM     35  H2  UNL     1      28.589  13.479   2.462  1.00  0.00     0.197 HD
BRANCH  34  36
HETATM   36  N3  UNL     1      28.711  15.237   1.715  1.00  0.00    -0.248 NA
BRANCH  36  37
HETATM   37  N4  UNL     1      28.443  16.385   2.056  1.00  0.00    -0.261 N 
ATOM     38  H42 UNL     1      27.545  16.412   1.575  1.00  0.00     0.193 HD
ATOM     39  H41 UNL     1      28.493  17.313   2.478  1.00  0.00     0.193 HD
ENDBRANCH  36  37
ENDBRANCH  34  36
ENDBRANCH   7  34
TORSDOF 17
ENDMDL
MODEL 3
REMARK VINA RESULT: -7.737231861      1.799      2.882
REMARK  17 active torsions:
REMARK  status: ('A' for Active; 'I' for Inactive)
REMARK    1  A    between atoms: C2_2  and  C3_3 
REMARK    2  A    between atoms: C3_3  and  C4_4 
REMARK    3  A    between atoms: C4_4  and  C5_5 
REMARK    4  A    between atoms: C5_5  and  N1_6 
REMARK    5  A    between atoms: N1_6  and  C6_8 
REMARK    6  A    between atoms: C6_8  and  O1_10 
REMARK    7  A    between atoms: O1_10  and  C7_11 
REMARK    8  A    between atoms: C8_12  and  O2_13 
REMARK    9  A    between atoms: O2_13  and  C9_14 
REMARK   10  A    between atoms: C10_16  and  C11_17 
REMARK   11  A    between atoms: C11_17  and  O4_18 
REMARK   12  A    between atoms: C12_20  and  O5_21 
REMARK   13  A    between atoms: C13_23  and  O6_24 
REMARK   14  A    between atoms: C14_26  and  O7_27 
REMARK   15  A    between atoms: C18_33  and  N2_34 
REMARK   16  A    between atoms: N2_34  and  N3_36 
REMARK   17  A    between atoms: N3_36  and  N4_37 
ROOT
HETATM    1  C7  UNL     1      31.071  13.202   0.365  1.00  0.00     0.214 C 
HETATM    2  C8  UNL     1      32.073  12.640   1.314  1.00  0.00     0.295 C 
HETATM    3  O8  UNL     1      32.951  13.703   1.512  1.00  0.00    -0.346 OA
HETATM    4  C15 UNL     1      32.132  14.833   1.673  1.00  0.00     0.082 C 
HETATM    5  C16 UNL     1      31.561  14.918   3.052  1.00  0.00     0.048 C 
HETATM    6  C17 UNL     1      32.953  16.062   1.318  1.00  0.00     0.048 C 
HETATM    7  C18 UNL     1      31.009  14.676   0.690  1.00  0.00     0.182 C 
ENDROOT
BRANCH   2   8
HETATM    8  O2  UNL     1      31.432  12.307   2.504  1.00  0.00    -0.326 OA
BRANCH   8   9
HETATM    9  C9  UNL     1      31.219  10.947   2.643  1.00  0.00     0.294 C 
HETATM   10  O3  UNL     1      31.922  10.394   3.706  1.00  0.00    -0.348 OA
HETATM   11  C10 UNL     1      32.159   9.048   3.414  1.00  0.00     0.179 C 
HETATM   12  C12 UNL     1      30.897   8.375   2.928  1.00  0.00     0.180 C 
HETATM   13  C13 UNL     1      29.667   9.175   3.308  1.00  0.00     0.183 C 
HETATM   14  C14 UNL     1      29.790  10.561   2.736  1.00  0.00     0.204 C 
BRANCH  11  15
HETATM   15  C11 UNL     1      32.700   8.298   4.591  1.00  0.00     0.198 C 
BRANCH  15  16
HETATM   16  O4  UNL     1      33.840   7.563   4.312  1.00  0.00    -0.398 OA
ATOM     17  H4  UNL     1      34.620   8.093   4.194  1.00  0.00     0.209 HD
ENDBRANCH  15  16
ENDBRANCH  11  15
BRANCH  12  18
HETATM   18  O5  UNL     1      30.771   7.155   3.577  1.00  0.00    -0.390 OA
ATOM     19  H5  UNL     1      31.059   7.261   4.476  1.00  0.00     0.210 HD
ENDBRANCH  12  18
BRANCH  13  20
HETATM   20  O6  UNL     1      28.575   8.521   2.731  1.00  0.00    -0.390 OA
ATOM     21  H6  UNL     1      28.859   8.228   1.873  1.00  0.00     0.210 HD
ENDBRANCH  13  20
BRANCH  14  22
HETATM   22  O7  UNL     1      29.102  10.691   1.528  1.00  0.00    -0.388 OA
ATOM     23  H7  UNL     1      29.222   9.950   0.944  1.00  0.00     0.210 HD
ENDBRANCH  14  22
ENDBRANCH   8   9
ENDBRANCH   2   8
BRANCH   1  24
HETATM   24  O1  UNL     1      31.286  12.940  -0.978  1.00  0.00    -0.314 OA
BRANCH  24  25
HETATM   25  C6  UNL     1      30.450  12.348  -1.885  1.00  0.00     0.210 C 
HETATM   26  S1  UNL     1      30.875  12.372  -3.458  1.00  0.00    -0.033 SA
BRANCH  25  27
HETATM   27  N1  UNL     1      29.234  11.714  -1.527  1.00  0.00    -0.361 N 
ATOM     28  H1  UNL     1      29.142  11.318  -0.592  1.00  0.00     0.162 HD
BRANCH  27  29
HETATM   29  C5  UNL     1      28.113  11.608  -2.444  1.00  0.00     0.122 C 
BRANCH  29  30
HETATM   30  C4  UNL     1      27.023  12.575  -2.141  1.00  0.00     0.020 C 
BRANCH  30  31
HETATM   31  C3  UNL     1      26.448  13.051  -3.470  1.00  0.00     0.001 C 
BRANCH  31  32
HETATM   32  C2  UNL     1      27.412  12.784  -4.607  1.00  0.00    -0.004 C 
HETATM   33  C1  UNL     1      26.852  13.479  -5.831  1.00  0.00     0.005 C 
ENDBRANCH  31  32
ENDBRANCH  30  31
ENDBRANCH  29  30
ENDBRANCH  27  29
ENDBRANCH  25  27
ENDBRANCH  24  25
ENDBRANCH   1  24
BRANCH   7  34
HETATM   34  N2  UNL     1      29.723  15.074   1.176  1.00  0.00    -0.242 N 
ATOM     35  H2  UNL     1      29.670  15.962   1.675  1.00  0.00     0.197 HD
BRANCH  34  36
HETATM   36  N3  UNL     1      28.683  14.448   1.046  1.00  0.00    -0.248 NA
BRANCH  36  37
HETATM   37  N4  UNL     1      27.796  13.609   1.176  1.00  0.00    -0.261 N 
ATOM     38  H42 UNL     1      28.434  12.837   1.366  1.00  0.00     0.193 HD
ATOM     39  H41 UNL     1      26.884  13.156   1.224  1.00  0.00     0.193 HD
ENDBRANCH  36  37
ENDBRANCH  34  36
ENDBRANCH   7  34
TORSDOF 17
ENDMDL
MODEL 4
REMARK VINA RESULT: -7.701506178      2.862      6.860
REMARK  17 active torsions:
REMARK  status: ('A' for Active; 'I' for Inactive)
REMARK    1  A    between atoms: C2_2  and  C3_3 
REMARK    2  A    between atoms: C3_3  and  C4_4 
REMARK    3  A    between atoms: C4_4  and  C5_5 
REMARK    4  A    between atoms: C5_5  and  N1_6 
REMARK    5  A    between atoms: N1_6  and  C6_8 
REMARK    6  A    between atoms: C6_8  and  O1_10 
REMARK    7  A    between atoms: O1_10  and  C7_11 
REMARK    8  A    between atoms: C8_12  and  O2_13 
REMARK    9  A    between atoms: O2_13  and  C9_14 
REMARK   10  A    between atoms: C10_16  and  C11_17 
REMARK   11  A    between atoms: C11_17  and  O4_18 
REMARK   12  A    between atoms: C12_20  and  O5_21 
REMARK   13  A    between atoms: C13_23  and  O6_24 
REMARK   14  A    between atoms: C14_26  and  O7_27 
REMARK   15  A    between atoms: C18_33  and  N2_34 
REMARK   16  A    between atoms: N2_34  and  N3_36 
REMARK   17  A    between atoms: N3_36  and  N4_37 
ROOT
HETATM    1  C7  UNL     1      30.245  10.889   0.908  1.00  0.00     0.214 C 
HETATM    2  C8  UNL     1      30.100   9.556   0.259  1.00  0.00     0.295 C 
HETATM    3  O8  UNL     1      29.816   8.713   1.330  1.00  0.00    -0.346 OA
HETATM    4  C15 UNL     1      28.881   9.412   2.112  1.00  0.00     0.082 C 
HETATM    5  C16 UNL     1      27.500   9.321   1.547  1.00  0.00     0.048 C 
HETATM    6  C17 UNL     1      28.955   8.867   3.530  1.00  0.00     0.048 C 
HETATM    7  C18 UNL     1      29.319  10.847   2.100  1.00  0.00     0.182 C 
ENDROOT
BRANCH   2   8
HETATM    8  O2  UNL     1      29.027   9.599  -0.627  1.00  0.00    -0.326 OA
BRANCH   8   9
HETATM    9  C9  UNL     1      28.997  10.755  -1.387  1.00  0.00     0.294 C 
HETATM   10  O3  UNL     1      29.915  10.742  -2.429  1.00  0.00    -0.348 OA
HETATM   11  C10 UNL     1      30.259  12.065  -2.719  1.00  0.00     0.179 C 
HETATM   12  C12 UNL     1      29.024  12.928  -2.828  1.00  0.00     0.180 C 
HETATM   13  C13 UNL     1      27.782  12.086  -3.044  1.00  0.00     0.183 C 
HETATM   14  C14 UNL     1      27.654  11.106  -1.910  1.00  0.00     0.204 C 
BRANCH  11  15
HETATM   15  C11 UNL     1      31.058  12.182  -3.979  1.00  0.00     0.198 C 
BRANCH  15  16
HETATM   16  O4  UNL     1      31.910  13.273  -4.004  1.00  0.00    -0.398 OA
ATOM     17  H4  UNL     1      32.599  13.209  -4.655  1.00  0.00     0.209 HD
ENDBRANCH  15  16
ENDBRANCH  11  15
BRANCH  12  18
HETATM   18  O5  UNL     1      29.143  13.726  -3.957  1.00  0.00    -0.390 OA
ATOM     19  H5  UNL     1      28.833  13.232  -4.708  1.00  0.00     0.210 HD
ENDBRANCH  12  18
BRANCH  13  20
HETATM   20  O6  UNL     1      26.699  12.967  -3.032  1.00  0.00    -0.390 OA
ATOM     21  H6  UNL     1      25.918  12.435  -3.129  1.00  0.00     0.210 HD
ENDBRANCH  13  20
BRANCH  14  22
HETATM   22  O7  UNL     1      26.777  11.561  -0.923  1.00  0.00    -0.388 OA
ATOM     23  H7  UNL     1      26.335  12.370  -1.155  1.00  0.00     0.210 HD
ENDBRANCH  14  22
ENDBRANCH   8   9
ENDBRANCH   2   8
BRANCH   1  24
HETATM   24  O1  UNL     1      31.537  11.278   1.224  1.00  0.00    -0.314 OA
BRANCH  24  25
HETATM   25  C6  UNL     1      32.057  12.540   1.319  1.00  0.00     0.210 C 
HETATM   26  S1  UNL     1      33.534  12.718   1.985  1.00  0.00    -0.033 SA
BRANCH  25  27
HETATM   27  N1  UNL     1      31.379  13.700   0.869  1.00  0.00    -0.361 N 
ATOM     28  H1  UNL     1      30.940  13.687  -0.052  1.00  0.00     0.162 HD
BRANCH  27  29
HETATM   29  C5  UNL     1      31.287  14.908   1.671  1.00  0.00     0.122 C 
BRANCH  29  30
HETATM   30  C4  UNL     1      31.820  16.109   0.972  1.00  0.00     0.020 C 
BRANCH  30  31
HETATM   31  C3  UNL     1      30.632  16.986   0.594  1.00  0.00     0.001 C 
BRANCH  31  32
HETATM   32  C2  UNL     1      31.085  18.228  -0.144  1.00  0.00    -0.004 C 
HETATM   33  C1  UNL     1      32.535  18.457   0.229  1.00  0.00     0.005 C 
ENDBRANCH  31  32
ENDBRANCH  30  31
ENDBRANCH  29  30
ENDBRANCH  27  29
ENDBRANCH  25  27
ENDBRANCH  24  25
ENDBRANCH   1  24
BRANCH   7  34
HETATM   34  N2  UNL     1      28.256  11.800   2.000  1.00  0.00    -0.242 N 
ATOM     35  H2  UNL     1      27.419  11.623   2.557  1.00  0.00     0.197 HD
BRANCH  34  36
HETATM   36  N3  UNL     1      28.260  12.807   1.310  1.00  0.00    -0.248 NA
BRANCH  36  37
HETATM   37  N4  UNL     1      27.899  13.783   0.659  1.00  0.00    -0.261 N 
ATOM     38  H42 UNL     1      27.118  14.013   1.272  1.00  0.00     0.193 HD
ATOM     39  H41 UNL     1      27.838  14.510  -0.054  1.00  0.00     0.193 HD
ENDBRANCH  36  37
ENDBRANCH  34  36
ENDBRANCH   7  34
TORSDOF 17
ENDMDL
MODEL 5
REMARK VINA RESULT: -7.633656609      2.731      4.653
REMARK  17 active torsions:
REMARK  status: ('A' for Active; 'I' for Inactive)
REMARK    1  A    between atoms: C2_2  and  C3_3 
REMARK    2  A    between atoms: C3_3  and  C4_4 
REMARK    3  A    between atoms: C4_4  and  C5_5 
REMARK    4  A    between atoms: C5_5  and  N1_6 
REMARK    5  A    between atoms: N1_6  and  C6_8 
REMARK    6  A    between atoms: C6_8  and  O1_10 
REMARK    7  A    between atoms: O1_10  and  C7_11 
REMARK    8  A    between atoms: C8_12  and  O2_13 
REMARK    9  A    between atoms: O2_13  and  C9_14 
REMARK   10  A    between atoms: C10_16  and  C11_17 
REMARK   11  A    between atoms: C11_17  and  O4_18 
REMARK   12  A    between atoms: C12_20  and  O5_21 
REMARK   13  A    between atoms: C13_23  and  O6_24 
REMARK   14  A    between atoms: C14_26  and  O7_27 
REMARK   15  A    between atoms: C18_33  and  N2_34 
REMARK   16  A    between atoms: N2_34  and  N3_36 
REMARK   17  A    between atoms: N3_36  and  N4_37 
ROOT
HETATM    1  C7  UNL     1      30.559  12.234  -0.333  1.00  0.00     0.214 C 
HETATM    2  C8  UNL     1      29.809  11.503   0.727  1.00  0.00     0.295 C 
HETATM    3  O8  UNL     1      28.491  11.897   0.509  1.00  0.00    -0.346 OA
HETATM    4  C15 UNL     1      28.315  11.843  -0.884  1.00  0.00     0.082 C 
HETATM    5  C16 UNL     1      28.080  10.446  -1.364  1.00  0.00     0.048 C 
HETATM    6  C17 UNL     1      27.168  12.772  -1.249  1.00  0.00     0.048 C 
HETATM    7  C18 UNL     1      29.590  12.356  -1.485  1.00  0.00     0.182 C 
ENDROOT
BRANCH   2   8
HETATM    8  O2  UNL     1      29.949  10.133   0.519  1.00  0.00    -0.326 OA
BRANCH   8   9
HETATM    9  C9  UNL     1      30.173   9.427   1.688  1.00  0.00     0.294 C 
HETATM   10  O3  UNL     1      31.369   9.769   2.306  1.00  0.00    -0.348 OA
HETATM   11  C10 UNL     1      31.804   8.665   3.044  1.00  0.00     0.179 C 
HETATM   12  C12 UNL     1      30.676   8.095   3.872  1.00  0.00     0.180 C 
HETATM   13  C13 UNL     1      29.551   9.098   4.032  1.00  0.00     0.183 C 
HETATM   14  C14 UNL     1      29.063   9.506   2.668  1.00  0.00     0.204 C 
BRANCH  11  15
HETATM   15  C11 UNL     1      32.957   8.999   3.939  1.00  0.00     0.198 C 
BRANCH  15  16
HETATM   16  O4  UNL     1      33.717   7.901   4.308  1.00  0.00    -0.398 OA
ATOM     17  H4  UNL     1      34.451   8.114   4.871  1.00  0.00     0.209 HD
ENDBRANCH  15  16
ENDBRANCH  11  15
BRANCH  12  18
HETATM   18  O5  UNL     1      31.151   7.849   5.152  1.00  0.00    -0.390 OA
ATOM     19  H5  UNL     1      31.388   8.679   5.549  1.00  0.00     0.210 HD
ENDBRANCH  12  18
BRANCH  13  20
HETATM   20  O6  UNL     1      28.530   8.440   4.722  1.00  0.00    -0.390 OA
ATOM     21  H6  UNL     1      27.933   8.105   4.064  1.00  0.00     0.210 HD
ENDBRANCH  13  20
BRANCH  14  22
HETATM   22  O7  UNL     1      27.930   8.787   2.282  1.00  0.00    -0.388 OA
ATOM     23  H7  UNL     1      27.456   8.408   3.014  1.00  0.00     0.210 HD
ENDBRANCH  14  22
ENDBRANCH   8   9
ENDBRANCH   2   8
BRANCH   1  24
HETATM   24  O1  UNL     1      31.128  13.440   0.042  1.00  0.00    -0.314 OA
BRANCH  24  25
HETATM   25  C6  UNL     1      31.441  13.892   1.295  1.00  0.00     0.210 C 
HETATM   26  S1  UNL     1      32.891  13.491   1.922  1.00  0.00    -0.033 SA
BRANCH  25  27
HETATM   27  N1  UNL     1      30.569  14.692   2.076  1.00  0.00    -0.361 N 
ATOM     28  H1  UNL     1      30.783  14.834   3.062  1.00  0.00     0.162 HD
BRANCH  27  29
HETATM   29  C5  UNL     1      29.381  15.316   1.521  1.00  0.00     0.122 C 
BRANCH  29  30
HETATM   30  C4  UNL     1      29.514  16.792   1.380  1.00  0.00     0.020 C 
BRANCH  30  31
HETATM   31  C3  UNL     1      30.420  17.059   0.184  1.00  0.00     0.001 C 
BRANCH  31  32
HETATM   32  C2  UNL     1      31.467  18.101   0.516  1.00  0.00    -0.004 C 
HETATM   33  C1  UNL     1      32.758  17.356   0.789  1.00  0.00     0.005 C 
ENDBRANCH  31  32
ENDBRANCH  30  31
ENDBRANCH  29  30
ENDBRANCH  27  29
ENDBRANCH  25  27
ENDBRANCH  24  25
ENDBRANCH   1  24
BRANCH   7  34
HETATM   34  N2  UNL     1      30.034  11.651  -2.649  1.00  0.00    -0.242 N 
ATOM     35  H2  UNL     1      29.581  10.760  -2.853  1.00  0.00     0.197 HD
BRANCH  34  36
HETATM   36  N3  UNL     1      30.904  12.021  -3.421  1.00  0.00    -0.248 NA
BRANCH  36  37
HETATM   37  N4  UNL     1      31.764  12.037  -4.297  1.00  0.00    -0.261 N 
ATOM     38  H42 UNL     1      31.277  11.384  -4.910  1.00  0.00     0.193 HD
ATOM     39  H41 UNL     1      32.610  12.245  -4.828  1.00  0.00     0.193 HD
ENDBRANCH  36  37
ENDBRANCH  34  36
ENDBRANCH   7  34
TORSDOF 17
ENDMDL
