MODEL 1
REMARK VINA RESULT: -9.179666645      0.000      0.000
REMARK  18 active torsions:
REMARK  status: ('A' for Active; 'I' for Inactive)
REMARK    1  A    between atoms: O1_2  and  C2_3 
REMARK    2  A    between atoms: C2_3  and  C3_4 
REMARK    3  A    between atoms: C2_3  and  C5_10 
REMARK    4  A    between atoms: C3_4  and  O2_5 
REMARK    5  A    between atoms: C3_4  and  C4_7 
REMARK    6  A    between atoms: C4_7  and  O3_8 
REMARK    7  A    between atoms: C5_10  and  O4_11 
REMARK    8  A    between atoms: C5_10  and  C16_50 
REMARK    9  A    between atoms: O4_11  and  N1_12 
REMARK   10  A    between atoms: C6_13  and  N2_14 
REMARK   11  A    between atoms: N2_14  and  C7_16 
REMARK   12  A    between atoms: C10_19  and  S1_20 
REMARK   13  A    between atoms: S1_20  and  N3_23 
REMARK   14  A    between atoms: N3_23  and  C11_25 
REMARK   15  A    between atoms: C12_30  and  S2_31 
REMARK   16  A    between atoms: S2_31  and  N6_32 
REMARK   17  A    between atoms: C14_43  and  O9_44 
REMARK   18  A    between atoms: C18_53  and  N10_54 
ROOT
HETATM    1  N1  UNL     1      96.237  17.949   6.629  1.00  0.00    -0.152 N 
HETATM    2  C6  UNL     1      95.476  18.847   7.255  1.00  0.00     0.144 A 
HETATM    3  C13 UNL     1      95.969  20.119   7.576  1.00  0.00     0.107 A 
HETATM    4  C14 UNL     1      97.254  20.442   7.240  1.00  0.00     0.147 A 
HETATM    5  N9  UNL     1      97.973  19.502   6.612  1.00  0.00    -0.287 N 
ATOM      6  H9  UNL     1      98.933  19.734   6.356  1.00  0.00     0.172 HD
HETATM    7  C15 UNL     1      97.528  18.291   6.297  1.00  0.00     0.354 A 
HETATM    8  O10 UNL     1      98.291  17.469   5.698  1.00  0.00    -0.244 OA
ENDROOT
BRANCH   2   9
HETATM    9  N2  UNL     1      94.262  18.660   7.611  1.00  0.00    -0.326 N 
ATOM     10  H2  UNL     1      93.943  17.692   7.645  1.00  0.00     0.169 HD
BRANCH   9  11
HETATM   11  C7  UNL     1      93.323  19.638   7.959  1.00  0.00     0.121 A 
HETATM   12  C8  UNL     1      92.616  19.554   9.139  1.00  0.00     0.053 A 
HETATM   13  C9  UNL     1      91.707  20.533   9.439  1.00  0.00     0.049 A 
HETATM   14  C10 UNL     1      91.534  21.566   8.550  1.00  0.00     0.164 A 
HETATM   15  N7  UNL     1      92.244  21.612   7.411  1.00  0.00    -0.287 N 
HETATM   16  N8  UNL     1      93.110  20.672   7.132  1.00  0.00    -0.284 N 
ATOM     17  H7  UNL     1      92.106  22.384   6.759  1.00  0.00     0.188 HD
ATOM     18  H8  UNL     1      93.638  20.727   6.261  1.00  0.00     0.188 HD
BRANCH  14  19
HETATM   19  S1  UNL     1      90.394  22.868   8.841  1.00  0.00     0.281 S 
HETATM   20  O5  UNL     1      90.159  22.901  10.335  1.00  0.00    -0.199 OA
HETATM   21  O6  UNL     1      91.038  24.141   8.368  1.00  0.00    -0.199 OA
BRANCH  19  22
HETATM   22  N3  UNL     1      88.952  22.533   7.961  1.00  0.00    -0.257 N 
ATOM     23  H3  UNL     1      88.967  21.924   7.142  1.00  0.00     0.181 HD
BRANCH  22  24
HETATM   24  C11 UNL     1      87.835  23.082   8.370  1.00  0.00     0.175 A 
HETATM   25  N4  UNL     1      87.639  23.897   9.412  1.00  0.00    -0.278 N 
HETATM   26  N5  UNL     1      86.468  24.321   9.644  1.00  0.00    -0.281 N 
ATOM     27  H4  UNL     1      88.419  24.172  10.009  1.00  0.00     0.189 HD
HETATM   28  C12 UNL     1      85.459  23.958   8.865  1.00  0.00     0.208 A 
ATOM     29  H5  UNL     1      86.301  24.945  10.434  1.00  0.00     0.188 HD
HETATM   30  S3  UNL     1      86.250  22.950   7.735  1.00  0.00    -0.019 SA
BRANCH  28  31
HETATM   31  S2  UNL     1      83.752  24.418   8.997  1.00  0.00     0.280 S 
HETATM   32  O7  UNL     1      83.267  24.070  10.371  1.00  0.00    -0.199 OA
HETATM   33  O8  UNL     1      82.955  23.774   7.915  1.00  0.00    -0.199 OA
BRANCH  31  34
HETATM   34  N6  UNL     1      83.655  26.152   8.839  1.00  0.00    -0.323 N 
ATOM     35  H62 UNL     1      83.560  26.660   7.960  1.00  0.00     0.169 HD
ATOM     36  H61 UNL     1      83.708  26.554   9.775  1.00  0.00     0.169 HD
ENDBRANCH  31  34
ENDBRANCH  28  31
ENDBRANCH  22  24
ENDBRANCH  19  22
ENDBRANCH  14  19
ENDBRANCH   9  11
ENDBRANCH   2   9
BRANCH   1  37
HETATM   37  O4  UNL     1      95.836  16.737   6.295  1.00  0.00    -0.253 OA
BRANCH  37  38
HETATM   38  C5  UNL     1      95.744  16.059   5.121  1.00  0.00     0.234 C 
BRANCH  38  39
HETATM   39  C2  UNL     1      95.831  14.556   5.208  1.00  0.00     0.189 C 
BRANCH  39  40
HETATM   40  O1  UNL     1      94.564  14.057   5.522  1.00  0.00    -0.385 OA
HETATM   41  C1  UNL     1      94.198  12.960   4.785  1.00  0.00     0.202 C 
ENDBRANCH  39  40
BRANCH  39  42
HETATM   42  C3  UNL     1      96.882  14.029   6.129  1.00  0.00     0.173 C 
BRANCH  42  43
HETATM   43  O2  UNL     1      97.967  14.852   6.163  1.00  0.00    -0.391 OA
ATOM     44  H2  UNL     1      97.943  15.421   6.923  1.00  0.00     0.210 HD
ENDBRANCH  42  43
BRANCH  42  45
HETATM   45  C4  UNL     1      96.372  13.626   7.494  1.00  0.00     0.198 C 
BRANCH  45  46
HETATM   46  O3  UNL     1      96.068  14.803   8.218  1.00  0.00    -0.398 OA
ATOM     47  H3  UNL     1      95.479  15.332   7.692  1.00  0.00     0.209 HD
ENDBRANCH  45  46
ENDBRANCH  42  45
ENDBRANCH  39  42
ENDBRANCH  38  39
BRANCH  38  48
HETATM   48  C16 UNL     1      94.338  16.352   4.541  1.00  0.00     0.052 A 
HETATM   49  C17 UNL     1      94.164  16.478   3.197  1.00  0.00     0.081 A 
HETATM   50  S4  UNL     1      92.488  16.806   3.080  1.00  0.00    -0.064 SA
HETATM   51  C18 UNL     1      92.116  16.761   4.744  1.00  0.00     0.142 A 
HETATM   52  N11 UNL     1      93.288  16.498   5.314  1.00  0.00    -0.338 N 
ATOM     53  H11 UNL     1      93.369  16.412   6.327  1.00  0.00     0.168 HD
BRANCH  51  54
HETATM   54  N10 UNL     1      90.942  16.947   5.308  1.00  0.00    -0.380 N 
ATOM     55 2H10 UNL     1      90.405  16.313   5.900  1.00  0.00     0.158 HD
ATOM     56 1H10 UNL     1      90.350  17.776   5.253  1.00  0.00     0.158 HD
ENDBRANCH  51  54
ENDBRANCH  38  48
ENDBRANCH  37  38
ENDBRANCH   1  37
BRANCH   4  57
HETATM   57  O9  UNL     1      97.805  21.700   7.534  1.00  0.00    -0.346 OA
ATOM     58  H9  UNL     1      98.660  21.792   7.937  1.00  0.00     0.219 HD
ENDBRANCH   4  57
TORSDOF 18
ENDMDL
MODEL 2
REMARK VINA RESULT: -9.101850307      3.097      9.282
REMARK  18 active torsions:
REMARK  status: ('A' for Active; 'I' for Inactive)
REMARK    1  A    between atoms: O1_2  and  C2_3 
REMARK    2  A    between atoms: C2_3  and  C3_4 
REMARK    3  A    between atoms: C2_3  and  C5_10 
REMARK    4  A    between atoms: C3_4  and  O2_5 
REMARK    5  A    between atoms: C3_4  and  C4_7 
REMARK    6  A    between atoms: C4_7  and  O3_8 
REMARK    7  A    between atoms: C5_10  and  O4_11 
REMARK    8  A    between atoms: C5_10  and  C16_50 
REMARK    9  A    between atoms: O4_11  and  N1_12 
REMARK   10  A    between atoms: C6_13  and  N2_14 
REMARK   11  A    between atoms: N2_14  and  C7_16 
REMARK   12  A    between atoms: C10_19  and  S1_20 
REMARK   13  A    between atoms: S1_20  and  N3_23 
REMARK   14  A    between atoms: N3_23  and  C11_25 
REMARK   15  A    between atoms: C12_30  and  S2_31 
REMARK   16  A    between atoms: S2_31  and  N6_32 
REMARK   17  A    between atoms: C14_43  and  O9_44 
REMARK   18  A    between atoms: C18_53  and  N10_54 
ROOT
HETATM    1  N1  UNL     1      94.189  21.931   7.632  1.00  0.00    -0.152 N 
HETATM    2  C6  UNL     1      94.564  21.439   6.452  1.00  0.00     0.144 A 
HETATM    3  C13 UNL     1      95.856  20.935   6.253  1.00  0.00     0.107 A 
HETATM    4  C14 UNL     1      96.746  20.949   7.291  1.00  0.00     0.147 A 
HETATM    5  N9  UNL     1      96.315  21.453   8.454  1.00  0.00    -0.287 N 
ATOM      6  H9  UNL     1      96.972  21.468   9.235  1.00  0.00     0.172 HD
HETATM    7  C15 UNL     1      95.096  21.937   8.667  1.00  0.00     0.354 A 
HETATM    8  O10 UNL     1      94.785  22.394   9.812  1.00  0.00    -0.244 OA
ENDROOT
BRANCH   2   9
HETATM    9  N2  UNL     1      93.818  21.368   5.416  1.00  0.00    -0.326 N 
ATOM     10  H2  UNL     1      93.360  22.232   5.126  1.00  0.00     0.169 HD
BRANCH   9  11
HETATM   11  C7  UNL     1      93.561  20.236   4.635  1.00  0.00     0.121 A 
HETATM   12  C8  UNL     1      93.956  20.179   3.315  1.00  0.00     0.053 A 
HETATM   13  C9  UNL     1      93.683  19.051   2.589  1.00  0.00     0.049 A 
HETATM   14  C10 UNL     1      93.023  18.014   3.205  1.00  0.00     0.164 A 
HETATM   15  N7  UNL     1      92.656  18.109   4.493  1.00  0.00    -0.287 N 
HETATM   16  N8  UNL     1      92.921  19.191   5.180  1.00  0.00    -0.284 N 
ATOM     17  H7  UNL     1      92.167  17.332   4.939  1.00  0.00     0.188 HD
ATOM     18  H8  UNL     1      92.632  19.240   6.157  1.00  0.00     0.188 HD
BRANCH  14  19
HETATM   19  S1  UNL     1      92.627  16.528   2.361  1.00  0.00     0.281 S 
HETATM   20  O5  UNL     1      91.193  16.204   2.719  1.00  0.00    -0.199 OA
HETATM   21  O6  UNL     1      92.767  16.798   0.889  1.00  0.00    -0.199 OA
BRANCH  19  22
HETATM   22  N3  UNL     1      93.721  15.302   2.878  1.00  0.00    -0.257 N 
ATOM     23  H3  UNL     1      93.783  14.412   2.382  1.00  0.00     0.181 HD
BRANCH  22  24
HETATM   24  C11 UNL     1      94.472  15.543   3.923  1.00  0.00     0.175 A 
HETATM   25  N4  UNL     1      94.294  15.144   5.187  1.00  0.00    -0.278 N 
HETATM   26  N5  UNL     1      95.143  15.490   6.062  1.00  0.00    -0.281 N 
ATOM     27  H4  UNL     1      93.489  14.572   5.443  1.00  0.00     0.189 HD
HETATM   28  C12 UNL     1      96.186  16.235   5.724  1.00  0.00     0.208 A 
ATOM     29  H5  UNL     1      95.023  15.193   7.031  1.00  0.00     0.188 HD
HETATM   30  S3  UNL     1      95.924  16.443   4.049  1.00  0.00    -0.019 SA
BRANCH  28  31
HETATM   31  S2  UNL     1      97.488  16.836   6.767  1.00  0.00     0.280 S 
HETATM   32  O7  UNL     1      96.875  17.487   7.970  1.00  0.00    -0.199 OA
HETATM   33  O8  UNL     1      98.386  17.747   6.004  1.00  0.00    -0.199 OA
BRANCH  31  34
HETATM   34  N6  UNL     1      98.397  15.459   7.331  1.00  0.00    -0.323 N 
ATOM     35  H62 UNL     1      98.678  14.663   6.760  1.00  0.00     0.169 HD
ATOM     36  H61 UNL     1      98.589  15.599   8.324  1.00  0.00     0.169 HD
ENDBRANCH  31  34
ENDBRANCH  28  31
ENDBRANCH  22  24
ENDBRANCH  19  22
ENDBRANCH  14  19
ENDBRANCH   9  11
ENDBRANCH   2   9
BRANCH   1  37
HETATM   37  O4  UNL     1      92.989  22.418   7.889  1.00  0.00    -0.253 OA
BRANCH  37  38
HETATM   38  C5  UNL     1      91.758  21.868   8.054  1.00  0.00     0.234 C 
BRANCH  38  39
HETATM   39  C2  UNL     1      91.418  21.394   9.445  1.00  0.00     0.189 C 
BRANCH  39  40
HETATM   40  O1  UNL     1      91.739  22.411  10.349  1.00  0.00    -0.385 OA
HETATM   41  C1  UNL     1      90.705  22.769  11.175  1.00  0.00     0.202 C 
ENDBRANCH  39  40
BRANCH  39  42
HETATM   42  C3  UNL     1      92.020  20.086   9.839  1.00  0.00     0.173 C 
BRANCH  42  43
HETATM   43  O2  UNL     1      93.029  20.258  10.739  1.00  0.00    -0.391 OA
ATOM     44  H2  UNL     1      92.947  19.654  11.467  1.00  0.00     0.210 HD
ENDBRANCH  42  43
BRANCH  42  45
HETATM   45  C4  UNL     1      91.014  19.030  10.237  1.00  0.00     0.198 C 
BRANCH  45  46
HETATM   46  O3  UNL     1      90.644  18.312   9.075  1.00  0.00    -0.398 OA
ATOM     47  H3  UNL     1      91.153  17.510   9.047  1.00  0.00     0.209 HD
ENDBRANCH  45  46
ENDBRANCH  42  45
ENDBRANCH  39  42
ENDBRANCH  38  39
BRANCH  38  48
HETATM   48  C16 UNL     1      90.722  22.976   7.738  1.00  0.00     0.052 A 
HETATM   49  C17 UNL     1      91.104  24.099   7.072  1.00  0.00     0.081 A 
HETATM   50  S4  UNL     1      89.641  24.987   6.994  1.00  0.00    -0.064 SA
HETATM   51  C18 UNL     1      88.641  23.873   7.811  1.00  0.00     0.142 A 
HETATM   52  N11 UNL     1      89.468  22.875   8.107  1.00  0.00    -0.338 N 
ATOM     53  H11 UNL     1      89.135  22.052   8.609  1.00  0.00     0.168 HD
BRANCH  51  54
HETATM   54  N10 UNL     1      87.357  23.994   8.077  1.00  0.00    -0.380 N 
ATOM     55 2H10 UNL     1      86.605  23.319   7.937  1.00  0.00     0.158 HD
ATOM     56 1H10 UNL     1      86.880  24.800   8.480  1.00  0.00     0.158 HD
ENDBRANCH  51  54
ENDBRANCH  38  48
ENDBRANCH  37  38
ENDBRANCH   1  37
BRANCH   4  57
HETATM   57  O9  UNL     1      98.055  20.457   7.154  1.00  0.00    -0.346 OA
ATOM     58  H9  UNL     1      98.813  21.027   7.200  1.00  0.00     0.219 HD
ENDBRANCH   4  57
TORSDOF 18
ENDMDL
MODEL 3
REMARK VINA RESULT: -9.056010905      3.092      9.389
REMARK  18 active torsions:
REMARK  status: ('A' for Active; 'I' for Inactive)
REMARK    1  A    between atoms: O1_2  and  C2_3 
REMARK    2  A    between atoms: C2_3  and  C3_4 
REMARK    3  A    between atoms: C2_3  and  C5_10 
REMARK    4  A    between atoms: C3_4  and  O2_5 
REMARK    5  A    between atoms: C3_4  and  C4_7 
REMARK    6  A    between atoms: C4_7  and  O3_8 
REMARK    7  A    between atoms: C5_10  and  O4_11 
REMARK    8  A    between atoms: C5_10  and  C16_50 
REMARK    9  A    between atoms: O4_11  and  N1_12 
REMARK   10  A    between atoms: C6_13  and  N2_14 
REMARK   11  A    between atoms: N2_14  and  C7_16 
REMARK   12  A    between atoms: C10_19  and  S1_20 
REMARK   13  A    between atoms: S1_20  and  N3_23 
REMARK   14  A    between atoms: N3_23  and  C11_25 
REMARK   15  A    between atoms: C12_30  and  S2_31 
REMARK   16  A    between atoms: S2_31  and  N6_32 
REMARK   17  A    between atoms: C14_43  and  O9_44 
REMARK   18  A    between atoms: C18_53  and  N10_54 
ROOT
HETATM    1  N1  UNL     1      94.160  22.072   7.876  1.00  0.00    -0.152 N 
HETATM    2  C6  UNL     1      94.615  21.643   6.700  1.00  0.00     0.144 A 
HETATM    3  C13 UNL     1      95.937  21.204   6.550  1.00  0.00     0.107 A 
HETATM    4  C14 UNL     1      96.773  21.217   7.631  1.00  0.00     0.147 A 
HETATM    5  N9  UNL     1      96.262  21.657   8.789  1.00  0.00    -0.287 N 
ATOM      6  H9  UNL     1      96.877  21.670   9.602  1.00  0.00     0.172 HD
HETATM    7  C15 UNL     1      95.013  22.078   8.955  1.00  0.00     0.354 A 
HETATM    8  O10 UNL     1      94.624  22.477  10.098  1.00  0.00    -0.244 OA
ENDROOT
BRANCH   2   9
HETATM    9  N2  UNL     1      93.926  21.579   5.624  1.00  0.00    -0.326 N 
ATOM     10  H2  UNL     1      93.582  22.464   5.252  1.00  0.00     0.169 HD
BRANCH   9  11
HETATM   11  C7  UNL     1      93.592  20.428   4.901  1.00  0.00     0.121 A 
HETATM   12  C8  UNL     1      93.901  20.318   3.561  1.00  0.00     0.053 A 
HETATM   13  C9  UNL     1      93.555  19.174   2.893  1.00  0.00     0.049 A 
HETATM   14  C10 UNL     1      92.911  18.176   3.585  1.00  0.00     0.164 A 
HETATM   15  N7  UNL     1      92.629  18.323   4.889  1.00  0.00    -0.287 N 
HETATM   16  N8  UNL     1      92.963  19.419   5.521  1.00  0.00    -0.284 N 
ATOM     17  H7  UNL     1      92.151  17.574   5.392  1.00  0.00     0.188 HD
ATOM     18  H8  UNL     1      92.740  19.508   6.511  1.00  0.00     0.188 HD
BRANCH  14  19
HETATM   19  S1  UNL     1      92.425  16.674   2.820  1.00  0.00     0.281 S 
HETATM   20  O5  UNL     1      91.282  16.126   3.644  1.00  0.00    -0.199 OA
HETATM   21  O6  UNL     1      91.973  17.007   1.426  1.00  0.00    -0.199 OA
BRANCH  19  22
HETATM   22  N3  UNL     1      93.782  15.612   2.798  1.00  0.00    -0.257 N 
ATOM     23  H3  UNL     1      94.091  15.175   1.930  1.00  0.00     0.181 HD
BRANCH  22  24
HETATM   24  C11 UNL     1      94.407  15.382   3.926  1.00  0.00     0.175 A 
HETATM   25  N4  UNL     1      93.907  14.917   5.076  1.00  0.00    -0.278 N 
HETATM   26  N5  UNL     1      94.685  14.766   6.064  1.00  0.00    -0.281 N 
ATOM     27  H4  UNL     1      92.916  14.687   5.156  1.00  0.00     0.189 HD
HETATM   28  C12 UNL     1      95.971  15.068   5.954  1.00  0.00     0.208 A 
ATOM     29  H5  UNL     1      94.320  14.411   6.948  1.00  0.00     0.188 HD
HETATM   30  S3  UNL     1      96.057  15.596   4.331  1.00  0.00    -0.019 SA
BRANCH  28  31
HETATM   31  S2  UNL     1      97.236  14.943   7.190  1.00  0.00     0.280 S 
HETATM   32  O7  UNL     1      97.951  13.638   7.013  1.00  0.00    -0.199 OA
HETATM   33  O8  UNL     1      96.652  15.110   8.550  1.00  0.00    -0.199 OA
BRANCH  31  34
HETATM   34  N6  UNL     1      98.396  16.212   6.894  1.00  0.00    -0.323 N 
ATOM     35  H62 UNL     1      98.360  17.149   7.295  1.00  0.00     0.169 HD
ATOM     36  H61 UNL     1      99.103  15.844   6.257  1.00  0.00     0.169 HD
ENDBRANCH  31  34
ENDBRANCH  28  31
ENDBRANCH  22  24
ENDBRANCH  19  22
ENDBRANCH  14  19
ENDBRANCH   9  11
ENDBRANCH   2   9
BRANCH   1  37
HETATM   37  O4  UNL     1      92.928  22.496   8.087  1.00  0.00    -0.253 OA
BRANCH  37  38
HETATM   38  C5  UNL     1      91.703  21.909   8.045  1.00  0.00     0.234 C 
BRANCH  38  39
HETATM   39  C2  UNL     1      91.084  21.556   9.374  1.00  0.00     0.189 C 
BRANCH  39  40
HETATM   40  O1  UNL     1      91.609  22.410  10.347  1.00  0.00    -0.385 OA
HETATM   41  C1  UNL     1      90.696  23.290  10.868  1.00  0.00     0.202 C 
ENDBRANCH  39  40
BRANCH  39  42
HETATM   42  C3  UNL     1      91.198  20.121   9.770  1.00  0.00     0.173 C 
BRANCH  42  43
HETATM   43  O2  UNL     1      90.487  19.319   8.930  1.00  0.00    -0.391 OA
ATOM     44  H2  UNL     1      89.565  19.548   8.933  1.00  0.00     0.210 HD
ENDBRANCH  42  43
BRANCH  42  45
HETATM   45  C4  UNL     1      92.613  19.652  10.019  1.00  0.00     0.198 C 
BRANCH  45  46
HETATM   46  O3  UNL     1      93.037  20.167  11.267  1.00  0.00    -0.398 OA
ATOM     47  H3  UNL     1      93.453  19.464  11.753  1.00  0.00     0.209 HD
ENDBRANCH  45  46
ENDBRANCH  42  45
ENDBRANCH  39  42
ENDBRANCH  38  39
BRANCH  38  48
HETATM   48  C16 UNL     1      90.734  22.935   7.405  1.00  0.00     0.052 A 
HETATM   49  C17 UNL     1      91.177  23.788   6.442  1.00  0.00     0.081 A 
HETATM   50  S4  UNL     1      89.770  24.698   6.090  1.00  0.00    -0.064 SA
HETATM   51  C18 UNL     1      88.710  23.936   7.188  1.00  0.00     0.142 A 
HETATM   52  N11 UNL     1      89.478  23.022   7.774  1.00  0.00    -0.338 N 
ATOM     53  H11 UNL     1      89.100  22.404   8.492  1.00  0.00     0.168 HD
BRANCH  51  54
HETATM   54  N10 UNL     1      87.438  24.206   7.393  1.00  0.00    -0.380 N 
ATOM     55 2H10 UNL     1      86.859  24.931   6.970  1.00  0.00     0.158 HD
ATOM     56 1H10 UNL     1      86.795  23.726   8.023  1.00  0.00     0.158 HD
ENDBRANCH  51  54
ENDBRANCH  38  48
ENDBRANCH  37  38
ENDBRANCH   1  37
BRANCH   4  57
HETATM   57  O9  UNL     1      98.108  20.788   7.544  1.00  0.00    -0.346 OA
ATOM     58  H9  UNL     1      98.726  20.926   8.252  1.00  0.00     0.219 HD
ENDBRANCH   4  57
TORSDOF 18
ENDMDL
MODEL 4
REMARK VINA RESULT: -8.948855252      2.560      4.617
REMARK  18 active torsions:
REMARK  status: ('A' for Active; 'I' for Inactive)
REMARK    1  A    between atoms: O1_2  and  C2_3 
REMARK    2  A    between atoms: C2_3  and  C3_4 
REMARK    3  A    between atoms: C2_3  and  C5_10 
REMARK    4  A    between atoms: C3_4  and  O2_5 
REMARK    5  A    between atoms: C3_4  and  C4_7 
REMARK    6  A    between atoms: C4_7  and  O3_8 
REMARK    7  A    between atoms: C5_10  and  O4_11 
REMARK    8  A    between atoms: C5_10  and  C16_50 
REMARK    9  A    between atoms: O4_11  and  N1_12 
REMARK   10  A    between atoms: C6_13  and  N2_14 
REMARK   11  A    between atoms: N2_14  and  C7_16 
REMARK   12  A    between atoms: C10_19  and  S1_20 
REMARK   13  A    between atoms: S1_20  and  N3_23 
REMARK   14  A    between atoms: N3_23  and  C11_25 
REMARK   15  A    between atoms: C12_30  and  S2_31 
REMARK   16  A    between atoms: S2_31  and  N6_32 
REMARK   17  A    between atoms: C14_43  and  O9_44 
REMARK   18  A    between atoms: C18_53  and  N10_54 
ROOT
HETATM    1  N1  UNL     1      94.252  15.986   5.011  1.00  0.00    -0.152 N 
HETATM    2  C6  UNL     1      93.809  17.190   4.653  1.00  0.00     0.144 A 
HETATM    3  C13 UNL     1      92.729  17.334   3.772  1.00  0.00     0.107 A 
HETATM    4  C14 UNL     1      92.121  16.216   3.273  1.00  0.00     0.147 A 
HETATM    5  N9  UNL     1      92.607  15.032   3.667  1.00  0.00    -0.287 N 
ATOM      6  H9  UNL     1      92.160  14.192   3.300  1.00  0.00     0.172 HD
HETATM    7  C15 UNL     1      93.629  14.871   4.500  1.00  0.00     0.354 A 
HETATM    8  O10 UNL     1      94.016  13.701   4.814  1.00  0.00    -0.244 OA
ENDROOT
BRANCH   2   9
HETATM    9  N2  UNL     1      94.292  18.302   5.061  1.00  0.00    -0.326 N 
ATOM     10  H2  UNL     1      95.188  18.581   4.660  1.00  0.00     0.169 HD
BRANCH   9  11
HETATM   11  C7  UNL     1      93.728  19.178   5.996  1.00  0.00     0.121 A 
HETATM   12  C8  UNL     1      93.723  20.539   5.779  1.00  0.00     0.053 A 
HETATM   13  C9  UNL     1      93.160  21.358   6.721  1.00  0.00     0.049 A 
HETATM   14  C10 UNL     1      92.620  20.791   7.850  1.00  0.00     0.164 A 
HETATM   15  N7  UNL     1      92.645  19.460   8.023  1.00  0.00    -0.287 N 
HETATM   16  N8  UNL     1      93.185  18.683   7.118  1.00  0.00    -0.284 N 
ATOM     17  H7  UNL     1      92.241  19.050   8.865  1.00  0.00     0.188 HD
ATOM     18  H8  UNL     1      93.192  17.675   7.270  1.00  0.00     0.188 HD
BRANCH  14  19
HETATM   19  S1  UNL     1      91.878  21.753   9.115  1.00  0.00     0.281 S 
HETATM   20  O5  UNL     1      90.895  20.846   9.820  1.00  0.00    -0.199 OA
HETATM   21  O6  UNL     1      92.973  22.189  10.047  1.00  0.00    -0.199 OA
BRANCH  19  22
HETATM   22  N3  UNL     1      91.106  23.108   8.383  1.00  0.00    -0.257 N 
ATOM     23  H3  UNL     1      91.628  23.750   7.785  1.00  0.00     0.181 HD
BRANCH  22  24
HETATM   24  C11 UNL     1      89.830  23.294   8.614  1.00  0.00     0.175 A 
HETATM   25  N4  UNL     1      89.226  23.589   9.770  1.00  0.00    -0.278 N 
HETATM   26  N5  UNL     1      87.966  23.725   9.784  1.00  0.00    -0.281 N 
ATOM     27  H4  UNL     1      89.770  23.702  10.626  1.00  0.00     0.189 HD
HETATM   28  C12 UNL     1      87.265  23.575   8.668  1.00  0.00     0.208 A 
ATOM     29  H5  UNL     1      87.489  23.952  10.657  1.00  0.00     0.188 HD
HETATM   30  S3  UNL     1      88.498  23.219   7.540  1.00  0.00    -0.019 SA
BRANCH  28  31
HETATM   31  S2  UNL     1      85.512  23.714   8.449  1.00  0.00     0.280 S 
HETATM   32  O7  UNL     1      84.888  22.379   8.722  1.00  0.00    -0.199 OA
HETATM   33  O8  UNL     1      85.198  24.239   7.091  1.00  0.00    -0.199 OA
BRANCH  31  34
HETATM   34  N6  UNL     1      84.910  24.821   9.655  1.00  0.00    -0.323 N 
ATOM     35  H62 UNL     1      84.493  24.552  10.546  1.00  0.00     0.169 HD
ATOM     36  H61 UNL     1      85.053  25.769   9.307  1.00  0.00     0.169 HD
ENDBRANCH  31  34
ENDBRANCH  28  31
ENDBRANCH  22  24
ENDBRANCH  19  22
ENDBRANCH  14  19
ENDBRANCH   9  11
ENDBRANCH   2   9
BRANCH   1  37
HETATM   37  O4  UNL     1      95.261  15.779   5.838  1.00  0.00    -0.253 OA
BRANCH  37  38
HETATM   38  C5  UNL     1      96.561  15.418   5.674  1.00  0.00     0.234 C 
BRANCH  38  39
HETATM   39  C2  UNL     1      97.564  16.542   5.608  1.00  0.00     0.189 C 
BRANCH  39  40
HETATM   40  O1  UNL     1      96.929  17.725   5.994  1.00  0.00    -0.385 OA
HETATM   41  C1  UNL     1      97.788  18.769   6.226  1.00  0.00     0.202 C 
ENDBRANCH  39  40
BRANCH  39  42
HETATM   42  C3  UNL     1      98.272  16.690   4.301  1.00  0.00     0.173 C 
BRANCH  42  43
HETATM   43  O2  UNL     1      99.388  15.910   4.253  1.00  0.00    -0.391 OA
ATOM     44  H2  UNL     1     100.079  16.327   3.753  1.00  0.00     0.210 HD
ENDBRANCH  42  43
BRANCH  42  45
HETATM   45  C4  UNL     1      97.379  16.561   3.088  1.00  0.00     0.198 C 
BRANCH  45  46
HETATM   46  O3  UNL     1      96.615  17.746   2.974  1.00  0.00    -0.398 OA
ATOM     47  H3  UNL     1      96.036  17.656   2.225  1.00  0.00     0.209 HD
ENDBRANCH  45  46
ENDBRANCH  42  45
ENDBRANCH  39  42
ENDBRANCH  38  39
BRANCH  38  48
HETATM   48  C16 UNL     1      96.959  14.591   6.923  1.00  0.00     0.052 A 
HETATM   49  C17 UNL     1      96.015  13.895   7.612  1.00  0.00     0.081 A 
HETATM   50  S4  UNL     1      96.937  13.191   8.873  1.00  0.00    -0.064 SA
HETATM   51  C18 UNL     1      98.459  13.827   8.442  1.00  0.00     0.142 A 
HETATM   52  N11 UNL     1      98.196  14.547   7.356  1.00  0.00    -0.338 N 
ATOM     53  H11 UNL     1      98.938  15.053   6.872  1.00  0.00     0.168 HD
BRANCH  51  54
HETATM   54  N10 UNL     1      99.609  13.638   9.054  1.00  0.00    -0.380 N 
ATOM     55 2H10 UNL     1     100.144  12.776   9.166  1.00  0.00     0.158 HD
ATOM     56 1H10 UNL     1     100.180  14.334   9.533  1.00  0.00     0.158 HD
ENDBRANCH  51  54
ENDBRANCH  38  48
ENDBRANCH  37  38
ENDBRANCH   1  37
BRANCH   4  57
HETATM   57  O9  UNL     1      91.034  16.295   2.386  1.00  0.00    -0.346 OA
ATOM     58  H9  UNL     1      91.154  16.322   1.445  1.00  0.00     0.219 HD
ENDBRANCH   4  57
TORSDOF 18
ENDMDL
MODEL 5
REMARK VINA RESULT: -8.943429586      2.086      3.306
REMARK  18 active torsions:
REMARK  status: ('A' for Active; 'I' for Inactive)
REMARK    1  A    between atoms: O1_2  and  C2_3 
REMARK    2  A    between atoms: C2_3  and  C3_4 
REMARK    3  A    between atoms: C2_3  and  C5_10 
REMARK    4  A    between atoms: C3_4  and  O2_5 
REMARK    5  A    between atoms: C3_4  and  C4_7 
REMARK    6  A    between atoms: C4_7  and  O3_8 
REMARK    7  A    between atoms: C5_10  and  O4_11 
REMARK    8  A    between atoms: C5_10  and  C16_50 
REMARK    9  A    between atoms: O4_11  and  N1_12 
REMARK   10  A    between atoms: C6_13  and  N2_14 
REMARK   11  A    between atoms: N2_14  and  C7_16 
REMARK   12  A    between atoms: C10_19  and  S1_20 
REMARK   13  A    between atoms: S1_20  and  N3_23 
REMARK   14  A    between atoms: N3_23  and  C11_25 
REMARK   15  A    between atoms: C12_30  and  S2_31 
REMARK   16  A    between atoms: S2_31  and  N6_32 
REMARK   17  A    between atoms: C14_43  and  O9_44 
REMARK   18  A    between atoms: C18_53  and  N10_54 
ROOT
HETATM    1  N1  UNL     1      96.211  18.919   5.487  1.00  0.00    -0.152 N 
HETATM    2  C6  UNL     1      95.483  19.955   5.900  1.00  0.00     0.144 A 
HETATM    3  C13 UNL     1      96.012  20.910   6.779  1.00  0.00     0.107 A 
HETATM    4  C14 UNL     1      97.300  20.773   7.218  1.00  0.00     0.147 A 
HETATM    5  N9  UNL     1      97.985  19.713   6.770  1.00  0.00    -0.287 N 
ATOM      6  H9  UNL     1      98.947  19.603   7.092  1.00  0.00     0.172 HD
HETATM    7  C15 UNL     1      97.506  18.796   5.937  1.00  0.00     0.354 A 
HETATM    8  O10 UNL     1      98.240  17.825   5.570  1.00  0.00    -0.244 OA
ENDROOT
BRANCH   2   9
HETATM    9  N2  UNL     1      94.275  20.190   5.552  1.00  0.00    -0.326 N 
ATOM     10  H2  UNL     1      94.002  19.876   4.620  1.00  0.00     0.169 HD
BRANCH   9  11
HETATM   11  C7  UNL     1      93.286  20.829   6.308  1.00  0.00     0.121 A 
HETATM   12  C8  UNL     1      92.775  20.244   7.447  1.00  0.00     0.053 A 
HETATM   13  C9  UNL     1      91.809  20.906   8.156  1.00  0.00     0.049 A 
HETATM   14  C10 UNL     1      91.383  22.132   7.704  1.00  0.00     0.164 A 
HETATM   15  N7  UNL     1      91.907  22.668   6.590  1.00  0.00    -0.287 N 
HETATM   16  N8  UNL     1      92.831  22.029   5.918  1.00  0.00    -0.284 N 
ATOM     17  H7  UNL     1      91.583  23.579   6.265  1.00  0.00     0.188 HD
ATOM     18  H8  UNL     1      93.215  22.455   5.076  1.00  0.00     0.188 HD
BRANCH  14  19
HETATM   19  S1  UNL     1      90.150  23.058   8.541  1.00  0.00     0.281 S 
HETATM   20  O5  UNL     1      90.331  22.774  10.015  1.00  0.00    -0.199 OA
HETATM   21  O6  UNL     1      90.397  24.509   8.237  1.00  0.00    -0.199 OA
BRANCH  19  22
HETATM   22  N3  UNL     1      88.607  22.553   7.963  1.00  0.00    -0.257 N 
ATOM     23  H3  UNL     1      88.522  21.778   7.306  1.00  0.00     0.181 HD
BRANCH  22  24
HETATM   24  C11 UNL     1      87.547  23.191   8.391  1.00  0.00     0.175 A 
HETATM   25  N4  UNL     1      87.434  24.012   9.441  1.00  0.00    -0.278 N 
HETATM   26  N5  UNL     1      86.307  24.532   9.692  1.00  0.00    -0.281 N 
ATOM     27  H4  UNL     1      88.242  24.215  10.030  1.00  0.00     0.189 HD
HETATM   28  C12 UNL     1      85.260  24.263   8.924  1.00  0.00     0.208 A 
ATOM     29  H5  UNL     1      86.204  25.162  10.488  1.00  0.00     0.188 HD
HETATM   30  S3  UNL     1      85.948  23.200   7.776  1.00  0.00    -0.019 SA
BRANCH  28  31
HETATM   31  S2  UNL     1      83.601  24.865   9.081  1.00  0.00     0.280 S 
HETATM   32  O7  UNL     1      83.622  26.360   8.983  1.00  0.00    -0.199 OA
HETATM   33  O8  UNL     1      82.986  24.371  10.345  1.00  0.00    -0.199 OA
BRANCH  31  34
HETATM   34  N6  UNL     1      82.688  24.272   7.718  1.00  0.00    -0.323 N 
ATOM     35  H62 UNL     1      83.077  23.773   6.920  1.00  0.00     0.169 HD
ATOM     36  H61 UNL     1      81.708  24.515   7.871  1.00  0.00     0.169 HD
ENDBRANCH  31  34
ENDBRANCH  28  31
ENDBRANCH  22  24
ENDBRANCH  19  22
ENDBRANCH  14  19
ENDBRANCH   9  11
ENDBRANCH   2   9
BRANCH   1  37
HETATM   37  O4  UNL     1      95.777  17.986   4.659  1.00  0.00    -0.253 OA
BRANCH  37  38
HETATM   38  C5  UNL     1      94.873  16.977   4.760  1.00  0.00     0.234 C 
BRANCH  38  39
HETATM   39  C2  UNL     1      94.047  16.694   3.530  1.00  0.00     0.189 C 
BRANCH  39  40
HETATM   40  O1  UNL     1      94.901  16.639   2.426  1.00  0.00    -0.385 OA
HETATM   41  C1  UNL     1      94.794  15.484   1.695  1.00  0.00     0.202 C 
ENDBRANCH  39  40
BRANCH  39  42
HETATM   42  C3  UNL     1      92.901  17.624   3.304  1.00  0.00     0.173 C 
BRANCH  42  43
HETATM   43  O2  UNL     1      92.483  18.187   4.472  1.00  0.00    -0.391 OA
ATOM     44  H2  UNL     1      92.137  17.531   5.066  1.00  0.00     0.210 HD
ENDBRANCH  42  43
BRANCH  42  45
HETATM   45  C4  UNL     1      93.113  18.616   2.183  1.00  0.00     0.198 C 
BRANCH  45  46
HETATM   46  O3  UNL     1      93.874  19.697   2.687  1.00  0.00    -0.398 OA
ATOM     47  H3  UNL     1      93.640  20.478   2.200  1.00  0.00     0.209 HD
ENDBRANCH  45  46
ENDBRANCH  42  45
ENDBRANCH  39  42
ENDBRANCH  38  39
BRANCH  38  48
HETATM   48  C16 UNL     1      95.677  15.677   5.017  1.00  0.00     0.052 A 
HETATM   49  C17 UNL     1      95.106  14.640   5.687  1.00  0.00     0.081 A 
HETATM   50  S4  UNL     1      96.375  13.491   5.723  1.00  0.00    -0.064 SA
HETATM   51  C18 UNL     1      97.548  14.401   4.883  1.00  0.00     0.142 A 
HETATM   52  N11 UNL     1      96.918  15.541   4.615  1.00  0.00    -0.338 N 
ATOM     53  H11 UNL     1      97.389  16.292   4.108  1.00  0.00     0.168 HD
BRANCH  51  54
HETATM   54  N10 UNL     1      98.778  14.043   4.585  1.00  0.00    -0.380 N 
ATOM     55 2H10 UNL     1      99.657  14.510   4.810  1.00  0.00     0.158 HD
ATOM     56 1H10 UNL     1      99.076  13.216   4.067  1.00  0.00     0.158 HD
ENDBRANCH  51  54
ENDBRANCH  38  48
ENDBRANCH  37  38
ENDBRANCH   1  37
BRANCH   4  57
HETATM   57  O9  UNL     1      97.886  21.697   8.099  1.00  0.00    -0.346 OA
ATOM     58  H9  UNL     1      98.149  21.455   8.979  1.00  0.00     0.219 HD
ENDBRANCH   4  57
TORSDOF 18
ENDMDL
