MODEL 1
REMARK VINA RESULT: -7.062542311      0.000      0.000
REMARK  16 active torsions:
REMARK  status: ('A' for Active; 'I' for Inactive)
REMARK    1  A    between atoms: C2_2  and  O2_4 
REMARK    2  A    between atoms: O2_4  and  C3_5 
REMARK    3  A    between atoms: N1_7  and  O3_9 
REMARK    4  A    between atoms: O3_9  and  C5_10 
REMARK    5  A    between atoms: C6_11  and  O4_12 
REMARK    6  A    between atoms: C7_14  and  O5_15 
REMARK    7  A    between atoms: O5_15  and  C8_16 
REMARK    8  A    between atoms: C11_20  and  O6_21 
REMARK    9  A    between atoms: C13_24  and  C14_25 
REMARK   10  A    between atoms: C14_25  and  O7_26 
REMARK   11  A    between atoms: C15_28  and  O8_29 
REMARK   12  A    between atoms: O8_29  and  S2_30 
REMARK   13  A    between atoms: C16_34  and  O12_35 
REMARK   14  A    between atoms: O12_35  and  S3_36 
REMARK   15  A    between atoms: C17_40  and  O16_41 
REMARK   16  A    between atoms: O16_41  and  S4_42 
ROOT
HETATM    1  C5  UNL     1      97.640  14.869   5.445  1.00  0.00     0.216 C 
HETATM    2  C6  UNL     1      96.527  15.746   5.997  1.00  0.00     0.183 C 
HETATM    3  C7  UNL     1      96.325  16.986   5.154  1.00  0.00     0.186 C 
HETATM    4  C15 UNL     1      95.994  16.530   3.757  1.00  0.00     0.209 C 
HETATM    5  C16 UNL     1      97.107  15.664   3.208  1.00  0.00     0.211 C 
HETATM    6  C17 UNL     1      97.279  14.422   4.041  1.00  0.00     0.212 C 
ENDROOT
BRANCH   3   7
HETATM    7  O5  UNL     1      95.257  17.685   5.715  1.00  0.00    -0.373 OA
BRANCH   7   8
HETATM    8  C8  UNL     1      95.666  18.762   6.479  1.00  0.00     0.143 C 
HETATM    9  C9  UNL     1      94.569  19.228   7.403  1.00  0.00     0.090 C 
HETATM   10  S1  UNL     1      92.971  19.291   6.490  1.00  0.00    -0.090 SA
HETATM   11  C10 UNL     1      94.814  20.495   8.096  1.00  0.00     0.050 C 
HETATM   12  C11 UNL     1      95.870  21.394   7.609  1.00  0.00     0.119 C 
HETATM   13  C12 UNL     1      96.926  20.788   6.746  1.00  0.00     0.041 C 
HETATM   14  C13 UNL     1      96.289  19.875   5.705  1.00  0.00     0.042 C 
BRANCH  12  15
HETATM   15  O6  UNL     1      96.547  22.029   8.680  1.00  0.00    -0.396 OA
ATOM     16  H6  UNL     1      96.013  22.707   9.076  1.00  0.00     0.210 HD
ENDBRANCH  12  15
BRANCH  14  17
HETATM   17  C14 UNL     1      95.336  20.662   4.865  1.00  0.00     0.171 C 
BRANCH  17  18
HETATM   18  O7  UNL     1      95.582  20.516   3.503  1.00  0.00    -0.400 OA
ATOM     19  H7  UNL     1      94.817  20.215   3.026  1.00  0.00     0.209 HD
ENDBRANCH  17  18
ENDBRANCH  14  17
ENDBRANCH   7   8
ENDBRANCH   3   7
BRANCH   2  20
HETATM   20  O4  UNL     1      95.364  14.981   5.954  1.00  0.00    -0.390 OA
ATOM     21  H4  UNL     1      94.640  15.594   5.904  1.00  0.00     0.210 HD
ENDBRANCH   2  20
BRANCH   4  22
HETATM   22  O8  UNL     1      95.810  17.569   2.865  1.00  0.00    -0.246 OA
BRANCH  22  23
HETATM   23  S2  UNL     1      94.278  17.443   2.203  1.00  0.00     0.252 S 
HETATM   24  O9  UNL     1      93.443  16.549   3.069  1.00  0.00    -0.572 OA
HETATM   25  O10 UNL     1      94.370  16.941   0.796  1.00  0.00    -0.572 OA
HETATM   26  O11 UNL     1      93.533  18.949   2.144  1.00  0.00    -0.572 OA
ENDBRANCH  22  23
ENDBRANCH   4  22
BRANCH   1  27
HETATM   27  O3  UNL     1      97.769  13.782   6.337  1.00  0.00    -0.268 OA
BRANCH  27  28
HETATM   28  N1  UNL     1      98.164  13.882   7.625  1.00  0.00    -0.248 N 
HETATM   29  C3  UNL     1      97.497  13.265   8.533  1.00  0.00     0.142 C 
HETATM   30  C4  UNL     1      96.307  12.448   8.203  1.00  0.00     0.099 C 
ATOM     31  H1  UNL     1      98.981  14.441   7.873  1.00  0.00     0.196 HD
BRANCH  29  32
HETATM   32  O2  UNL     1      97.886  13.354   9.858  1.00  0.00    -0.265 OA
BRANCH  32  33
HETATM   33  C2  UNL     1      99.013  12.700  10.361  1.00  0.00     0.261 C 
HETATM   34  C1  UNL     1     100.350  13.332  10.399  1.00  0.00     0.126 C 
HETATM   35  O1  UNL     1      98.843  11.531  10.785  1.00  0.00    -0.265 OA
ENDBRANCH  32  33
ENDBRANCH  29  32
ENDBRANCH  27  28
ENDBRANCH   1  27
BRANCH   5  36
HETATM   36  O12 UNL     1      98.309  16.368   3.235  1.00  0.00    -0.246 OA
BRANCH  36  37
HETATM   37  S3  UNL     1      99.089  16.340   1.752  1.00  0.00     0.252 S 
HETATM   38  O13 UNL     1      98.435  17.201   0.732  1.00  0.00    -0.572 OA
HETATM   39  O14 UNL     1     100.484  16.844   1.961  1.00  0.00    -0.572 OA
HETATM   40  O15 UNL     1      99.202  14.774   1.145  1.00  0.00    -0.572 OA
ENDBRANCH  36  37
ENDBRANCH   5  36
BRANCH   6  41
HETATM   41  O16 UNL     1      96.135  13.660   4.128  1.00  0.00    -0.246 OA
BRANCH  41  42
HETATM   42  S4  UNL     1      96.306  12.147   3.438  1.00  0.00     0.252 S 
HETATM   43  O17 UNL     1      95.814  11.137   4.451  1.00  0.00    -0.572 OA
HETATM   44  O18 UNL     1      95.579  12.043   2.139  1.00  0.00    -0.572 OA
HETATM   45  O19 UNL     1      97.922  11.775   3.138  1.00  0.00    -0.572 OA
ENDBRANCH  41  42
ENDBRANCH   6  41
TORSDOF 16
ENDMDL
MODEL 2
REMARK VINA RESULT: -6.643915650      1.179      1.850
REMARK  16 active torsions:
REMARK  status: ('A' for Active; 'I' for Inactive)
REMARK    1  A    between atoms: C2_2  and  O2_4 
REMARK    2  A    between atoms: O2_4  and  C3_5 
REMARK    3  A    between atoms: N1_7  and  O3_9 
REMARK    4  A    between atoms: O3_9  and  C5_10 
REMARK    5  A    between atoms: C6_11  and  O4_12 
REMARK    6  A    between atoms: C7_14  and  O5_15 
REMARK    7  A    between atoms: O5_15  and  C8_16 
REMARK    8  A    between atoms: C11_20  and  O6_21 
REMARK    9  A    between atoms: C13_24  and  C14_25 
REMARK   10  A    between atoms: C14_25  and  O7_26 
REMARK   11  A    between atoms: C15_28  and  O8_29 
REMARK   12  A    between atoms: O8_29  and  S2_30 
REMARK   13  A    between atoms: C16_34  and  O12_35 
REMARK   14  A    between atoms: O12_35  and  S3_36 
REMARK   15  A    between atoms: C17_40  and  O16_41 
REMARK   16  A    between atoms: O16_41  and  S4_42 
ROOT
HETATM    1  C5  UNL     1      98.002  15.248   6.451  1.00  0.00     0.216 C 
HETATM    2  C6  UNL     1      96.830  16.100   6.913  1.00  0.00     0.183 C 
HETATM    3  C7  UNL     1      96.410  17.094   5.852  1.00  0.00     0.186 C 
HETATM    4  C15 UNL     1      96.039  16.307   4.622  1.00  0.00     0.209 C 
HETATM    5  C16 UNL     1      97.209  15.466   4.161  1.00  0.00     0.211 C 
HETATM    6  C17 UNL     1      97.599  14.466   5.215  1.00  0.00     0.212 C 
ENDROOT
BRANCH   3   7
HETATM    7  O5  UNL     1      95.306  17.779   6.356  1.00  0.00    -0.373 OA
BRANCH   7   8
HETATM    8  C8  UNL     1      95.658  18.923   7.048  1.00  0.00     0.143 C 
HETATM    9  C9  UNL     1      94.454  19.573   7.683  1.00  0.00     0.090 C 
HETATM   10  S1  UNL     1      93.059  19.608   6.481  1.00  0.00    -0.090 SA
HETATM   11  C10 UNL     1      94.675  20.905   8.251  1.00  0.00     0.050 C 
HETATM   12  C11 UNL     1      95.872  21.666   7.869  1.00  0.00     0.119 C 
HETATM   13  C12 UNL     1      97.013  20.888   7.304  1.00  0.00     0.041 C 
HETATM   14  C13 UNL     1      96.502  19.883   6.278  1.00  0.00     0.042 C 
BRANCH  12  15
HETATM   15  O6  UNL     1      96.395  22.398   8.966  1.00  0.00    -0.396 OA
ATOM     16  H6  UNL     1      96.354  21.895   9.771  1.00  0.00     0.210 HD
ENDBRANCH  12  15
BRANCH  14  17
HETATM   17  C14 UNL     1      95.786  20.605   5.183  1.00  0.00     0.171 C 
BRANCH  17  18
HETATM   18  O7  UNL     1      95.735  19.867   4.004  1.00  0.00    -0.400 OA
ATOM     19  H7  UNL     1      95.928  20.393   3.238  1.00  0.00     0.209 HD
ENDBRANCH  17  18
ENDBRANCH  14  17
ENDBRANCH   7   8
ENDBRANCH   3   7
BRANCH   2  20
HETATM   20  O4  UNL     1      95.773  15.223   7.147  1.00  0.00    -0.390 OA
ATOM     21  H4  UNL     1      95.352  15.079   6.308  1.00  0.00     0.210 HD
ENDBRANCH   2  20
BRANCH   4  22
HETATM   22  O8  UNL     1      95.659  17.097   3.555  1.00  0.00    -0.246 OA
BRANCH  22  23
HETATM   23  S2  UNL     1      94.041  16.818   3.228  1.00  0.00     0.252 S 
HETATM   24  O9  UNL     1      93.329  18.133   3.133  1.00  0.00    -0.572 OA
HETATM   25  O10 UNL     1      93.453  15.932   4.281  1.00  0.00    -0.572 OA
HETATM   26  O11 UNL     1      93.863  16.026   1.756  1.00  0.00    -0.572 OA
ENDBRANCH  22  23
ENDBRANCH   4  22
BRANCH   1  27
HETATM   27  O3  UNL     1      98.333  14.406   7.535  1.00  0.00    -0.268 OA
BRANCH  27  28
HETATM   28  N1  UNL     1      97.462  13.598   8.179  1.00  0.00    -0.248 N 
HETATM   29  C3  UNL     1      97.862  12.946   9.211  1.00  0.00     0.142 C 
HETATM   30  C4  UNL     1      99.252  13.056   9.710  1.00  0.00     0.099 C 
ATOM     31  H1  UNL     1      96.500  13.509   7.851  1.00  0.00     0.196 HD
BRANCH  29  32
HETATM   32  O2  UNL     1      96.985  12.114   9.886  1.00  0.00    -0.265 OA
BRANCH  32  33
HETATM   33  C2  UNL     1      96.275  11.091   9.252  1.00  0.00     0.261 C 
HETATM   34  C1  UNL     1      96.508   9.661   9.545  1.00  0.00     0.126 C 
HETATM   35  O1  UNL     1      95.415  11.443   8.408  1.00  0.00    -0.265 OA
ENDBRANCH  32  33
ENDBRANCH  29  32
ENDBRANCH  27  28
ENDBRANCH   1  27
BRANCH   5  36
HETATM   36  O12 UNL     1      98.311  16.285   3.919  1.00  0.00    -0.246 OA
BRANCH  36  37
HETATM   37  S3  UNL     1      98.901  16.104   2.361  1.00  0.00     0.252 S 
HETATM   38  O13 UNL     1      98.121  16.866   1.350  1.00  0.00    -0.572 OA
HETATM   39  O14 UNL     1     100.309  16.615   2.344  1.00  0.00    -0.572 OA
HETATM   40  O15 UNL     1      98.944  14.486   1.902  1.00  0.00    -0.572 OA
ENDBRANCH  36  37
ENDBRANCH   5  36
BRANCH   6  41
HETATM   41  O16 UNL     1      96.570  13.622   5.574  1.00  0.00    -0.246 OA
BRANCH  41  42
HETATM   42  S4  UNL     1      96.206  12.499   4.390  1.00  0.00     0.252 S 
HETATM   43  O17 UNL     1      95.160  13.122   3.492  1.00  0.00    -0.572 OA
HETATM   44  O18 UNL     1      97.420  12.076   3.633  1.00  0.00    -0.572 OA
HETATM   45  O19 UNL     1      95.511  11.107   5.040  1.00  0.00    -0.572 OA
ENDBRANCH  41  42
ENDBRANCH   6  41
TORSDOF 16
ENDMDL
MODEL 3
REMARK VINA RESULT: -6.604153163      1.019      1.857
REMARK  16 active torsions:
REMARK  status: ('A' for Active; 'I' for Inactive)
REMARK    1  A    between atoms: C2_2  and  O2_4 
REMARK    2  A    between atoms: O2_4  and  C3_5 
REMARK    3  A    between atoms: N1_7  and  O3_9 
REMARK    4  A    between atoms: O3_9  and  C5_10 
REMARK    5  A    between atoms: C6_11  and  O4_12 
REMARK    6  A    between atoms: C7_14  and  O5_15 
REMARK    7  A    between atoms: O5_15  and  C8_16 
REMARK    8  A    between atoms: C11_20  and  O6_21 
REMARK    9  A    between atoms: C13_24  and  C14_25 
REMARK   10  A    between atoms: C14_25  and  O7_26 
REMARK   11  A    between atoms: C15_28  and  O8_29 
REMARK   12  A    between atoms: O8_29  and  S2_30 
REMARK   13  A    between atoms: C16_34  and  O12_35 
REMARK   14  A    between atoms: O12_35  and  S3_36 
REMARK   15  A    between atoms: C17_40  and  O16_41 
REMARK   16  A    between atoms: O16_41  and  S4_42 
ROOT
HETATM    1  C5  UNL     1      98.032  15.297   6.069  1.00  0.00     0.216 C 
HETATM    2  C6  UNL     1      96.857  16.144   6.535  1.00  0.00     0.183 C 
HETATM    3  C7  UNL     1      96.439  17.145   5.481  1.00  0.00     0.186 C 
HETATM    4  C15 UNL     1      96.071  16.367   4.244  1.00  0.00     0.209 C 
HETATM    5  C16 UNL     1      97.244  15.532   3.779  1.00  0.00     0.211 C 
HETATM    6  C17 UNL     1      97.633  14.524   4.827  1.00  0.00     0.212 C 
ENDROOT
BRANCH   3   7
HETATM    7  O5  UNL     1      95.332  17.825   5.988  1.00  0.00    -0.373 OA
BRANCH   7   8
HETATM    8  C8  UNL     1      95.685  18.919   6.756  1.00  0.00     0.143 C 
HETATM    9  C9  UNL     1      94.498  19.463   7.512  1.00  0.00     0.090 C 
HETATM   10  S1  UNL     1      93.033  19.543   6.398  1.00  0.00    -0.090 SA
HETATM   11  C10 UNL     1      94.704  20.750   8.182  1.00  0.00     0.050 C 
HETATM   12  C11 UNL     1      95.849  21.589   7.801  1.00  0.00     0.119 C 
HETATM   13  C12 UNL     1      96.981  20.909   7.106  1.00  0.00     0.041 C 
HETATM   14  C13 UNL     1      96.446  19.975   6.027  1.00  0.00     0.042 C 
BRANCH  12  15
HETATM   15  O6  UNL     1      96.409  22.245   8.926  1.00  0.00    -0.396 OA
ATOM     16  H6  UNL     1      97.230  22.669   8.708  1.00  0.00     0.210 HD
ENDBRANCH  12  15
BRANCH  14  17
HETATM   17  C14 UNL     1      95.641  20.758   5.041  1.00  0.00     0.171 C 
BRANCH  17  18
HETATM   18  O7  UNL     1      95.470  20.081   3.837  1.00  0.00    -0.400 OA
ATOM     19  H7  UNL     1      94.826  20.497   3.275  1.00  0.00     0.209 HD
ENDBRANCH  17  18
ENDBRANCH  14  17
ENDBRANCH   7   8
ENDBRANCH   3   7
BRANCH   2  20
HETATM   20  O4  UNL     1      95.801  15.263   6.760  1.00  0.00    -0.390 OA
ATOM     21  H4  UNL     1      95.776  15.107   7.696  1.00  0.00     0.210 HD
ENDBRANCH   2  20
BRANCH   4  22
HETATM   22  O8  UNL     1      95.693  17.165   3.182  1.00  0.00    -0.246 OA
BRANCH  22  23
HETATM   23  S2  UNL     1      94.083  16.870   2.835  1.00  0.00     0.252 S 
HETATM   24  O9  UNL     1      93.981  16.256   1.471  1.00  0.00    -0.572 OA
HETATM   25  O10 UNL     1      93.297  18.139   2.942  1.00  0.00    -0.572 OA
HETATM   26  O11 UNL     1      93.428  15.786   3.941  1.00  0.00    -0.572 OA
ENDBRANCH  22  23
ENDBRANCH   4  22
BRANCH   1  27
HETATM   27  O3  UNL     1      98.361  14.447   7.147  1.00  0.00    -0.268 OA
BRANCH  27  28
HETATM   28  N1  UNL     1      97.471  13.719   7.857  1.00  0.00    -0.248 N 
HETATM   29  C3  UNL     1      97.846  13.174   8.958  1.00  0.00     0.142 C 
HETATM   30  C4  UNL     1      99.229  13.324   9.467  1.00  0.00     0.099 C 
ATOM     31  H1  UNL     1      96.514  13.604   7.522  1.00  0.00     0.196 HD
BRANCH  29  32
HETATM   32  O2  UNL     1      96.950  12.425   9.700  1.00  0.00    -0.265 OA
BRANCH  32  33
HETATM   33  C2  UNL     1      96.294  11.304   9.185  1.00  0.00     0.261 C 
HETATM   34  C1  UNL     1      96.573   9.931   9.659  1.00  0.00     0.126 C 
HETATM   35  O1  UNL     1      95.443  11.514   8.286  1.00  0.00    -0.265 OA
ENDBRANCH  32  33
ENDBRANCH  29  32
ENDBRANCH  27  28
ENDBRANCH   1  27
BRANCH   5  36
HETATM   36  O12 UNL     1      98.345  16.354   3.546  1.00  0.00    -0.246 OA
BRANCH  36  37
HETATM   37  S3  UNL     1      98.999  16.116   2.022  1.00  0.00     0.252 S 
HETATM   38  O13 UNL     1      99.089  14.681   1.643  1.00  0.00    -0.572 OA
HETATM   39  O14 UNL     1      98.110  16.804   1.032  1.00  0.00    -0.572 OA
HETATM   40  O15 UNL     1     100.528  16.806   1.893  1.00  0.00    -0.572 OA
ENDBRANCH  36  37
ENDBRANCH   5  36
BRANCH   6  41
HETATM   41  O16 UNL     1      96.604  13.676   5.176  1.00  0.00    -0.246 OA
BRANCH  41  42
HETATM   42  S4  UNL     1      96.317  12.493   4.030  1.00  0.00     0.252 S 
HETATM   43  O17 UNL     1      95.288  13.044   3.070  1.00  0.00    -0.572 OA
HETATM   44  O18 UNL     1      97.571  12.076   3.336  1.00  0.00    -0.572 OA
HETATM   45  O19 UNL     1      95.641  11.109   4.715  1.00  0.00    -0.572 OA
ENDBRANCH  41  42
ENDBRANCH   6  41
TORSDOF 16
ENDMDL
MODEL 4
REMARK VINA RESULT: -6.593087949      0.948      1.796
REMARK  16 active torsions:
REMARK  status: ('A' for Active; 'I' for Inactive)
REMARK    1  A    between atoms: C2_2  and  O2_4 
REMARK    2  A    between atoms: O2_4  and  C3_5 
REMARK    3  A    between atoms: N1_7  and  O3_9 
REMARK    4  A    between atoms: O3_9  and  C5_10 
REMARK    5  A    between atoms: C6_11  and  O4_12 
REMARK    6  A    between atoms: C7_14  and  O5_15 
REMARK    7  A    between atoms: O5_15  and  C8_16 
REMARK    8  A    between atoms: C11_20  and  O6_21 
REMARK    9  A    between atoms: C13_24  and  C14_25 
REMARK   10  A    between atoms: C14_25  and  O7_26 
REMARK   11  A    between atoms: C15_28  and  O8_29 
REMARK   12  A    between atoms: O8_29  and  S2_30 
REMARK   13  A    between atoms: C16_34  and  O12_35 
REMARK   14  A    between atoms: O12_35  and  S3_36 
REMARK   15  A    between atoms: C17_40  and  O16_41 
REMARK   16  A    between atoms: O16_41  and  S4_42 
ROOT
HETATM    1  C5  UNL     1      97.972  15.270   5.861  1.00  0.00     0.216 C 
HETATM    2  C6  UNL     1      96.807  16.116   6.349  1.00  0.00     0.183 C 
HETATM    3  C7  UNL     1      96.407  17.157   5.326  1.00  0.00     0.186 C 
HETATM    4  C15 UNL     1      96.037  16.425   4.062  1.00  0.00     0.209 C 
HETATM    5  C16 UNL     1      97.201  15.589   3.576  1.00  0.00     0.211 C 
HETATM    6  C17 UNL     1      97.570  14.543   4.593  1.00  0.00     0.212 C 
ENDROOT
BRANCH   3   7
HETATM    7  O5  UNL     1      95.307  17.835   5.848  1.00  0.00    -0.373 OA
BRANCH   7   8
HETATM    8  C8  UNL     1      95.669  18.912   6.635  1.00  0.00     0.143 C 
HETATM    9  C9  UNL     1      94.491  19.444   7.413  1.00  0.00     0.090 C 
HETATM   10  S1  UNL     1      93.016  19.550   6.316  1.00  0.00    -0.090 SA
HETATM   11  C10 UNL     1      94.707  20.716   8.107  1.00  0.00     0.050 C 
HETATM   12  C11 UNL     1      95.850  21.561   7.732  1.00  0.00     0.119 C 
HETATM   13  C12 UNL     1      96.974  20.892   7.013  1.00  0.00     0.041 C 
HETATM   14  C13 UNL     1      96.426  19.981   5.920  1.00  0.00     0.042 C 
BRANCH  12  15
HETATM   15  O6  UNL     1      96.423  22.192   8.864  1.00  0.00    -0.396 OA
ATOM     16  H6  UNL     1      96.957  21.589   9.366  1.00  0.00     0.210 HD
ENDBRANCH  12  15
BRANCH  14  17
HETATM   17  C14 UNL     1      95.613  20.786   4.958  1.00  0.00     0.171 C 
BRANCH  17  18
HETATM   18  O7  UNL     1      95.479  20.160   3.722  1.00  0.00    -0.400 OA
ATOM     19  H7  UNL     1      94.653  20.364   3.299  1.00  0.00     0.209 HD
ENDBRANCH  17  18
ENDBRANCH  14  17
ENDBRANCH   7   8
ENDBRANCH   3   7
BRANCH   2  20
HETATM   20  O4  UNL     1      95.737  15.243   6.539  1.00  0.00    -0.390 OA
ATOM     21  H4  UNL     1      96.108  14.370   6.582  1.00  0.00     0.210 HD
ENDBRANCH   2  20
BRANCH   4  22
HETATM   22  O8  UNL     1      95.675  17.262   3.024  1.00  0.00    -0.246 OA
BRANCH  22  23
HETATM   23  S2  UNL     1      94.071  16.979   2.640  1.00  0.00     0.252 S 
HETATM   24  O9  UNL     1      93.271  18.208   2.949  1.00  0.00    -0.572 OA
HETATM   25  O10 UNL     1      93.572  15.779   3.381  1.00  0.00    -0.572 OA
HETATM   26  O11 UNL     1      93.905  16.653   0.999  1.00  0.00    -0.572 OA
ENDBRANCH  22  23
ENDBRANCH   4  22
BRANCH   1  27
HETATM   27  O3  UNL     1      98.284  14.380   6.913  1.00  0.00    -0.268 OA
BRANCH  27  28
HETATM   28  N1  UNL     1      97.376  13.681   7.628  1.00  0.00    -0.248 N 
HETATM   29  C3  UNL     1      97.713  13.209   8.775  1.00  0.00     0.142 C 
HETATM   30  C4  UNL     1      99.071  13.412   9.330  1.00  0.00     0.099 C 
ATOM     31  H1  UNL     1      96.436  13.530   7.262  1.00  0.00     0.196 HD
BRANCH  29  32
HETATM   32  O2  UNL     1      96.798  12.490   9.523  1.00  0.00    -0.265 OA
BRANCH  32  33
HETATM   33  C2  UNL     1      96.225  11.297   9.074  1.00  0.00     0.261 C 
HETATM   34  C1  UNL     1      96.544   9.985   9.678  1.00  0.00     0.126 C 
HETATM   35  O1  UNL     1      95.415  11.386   8.119  1.00  0.00    -0.265 OA
ENDBRANCH  32  33
ENDBRANCH  29  32
ENDBRANCH  27  28
ENDBRANCH   1  27
BRANCH   5  36
HETATM   36  O12 UNL     1      98.314  16.404   3.376  1.00  0.00    -0.246 OA
BRANCH  36  37
HETATM   37  S3  UNL     1      98.980  16.198   1.852  1.00  0.00     0.252 S 
HETATM   38  O13 UNL     1      98.993  14.779   1.408  1.00  0.00    -0.572 OA
HETATM   39  O14 UNL     1      98.150  16.982   0.882  1.00  0.00    -0.572 OA
HETATM   40  O15 UNL     1     100.549  16.802   1.779  1.00  0.00    -0.572 OA
ENDBRANCH  36  37
ENDBRANCH   5  36
BRANCH   6  41
HETATM   41  O16 UNL     1      96.528  13.697   4.909  1.00  0.00    -0.246 OA
BRANCH  41  42
HETATM   42  S4  UNL     1      96.383  12.417   3.845  1.00  0.00     0.252 S 
HETATM   43  O17 UNL     1      97.770  12.105   3.330  1.00  0.00    -0.572 OA
HETATM   44  O18 UNL     1      95.739  11.232   4.485  1.00  0.00    -0.572 OA
HETATM   45  O19 UNL     1      95.453  12.823   2.499  1.00  0.00    -0.572 OA
ENDBRANCH  41  42
ENDBRANCH   6  41
TORSDOF 16
ENDMDL
MODEL 5
REMARK VINA RESULT: -6.534472630      2.115      3.336
REMARK  16 active torsions:
REMARK  status: ('A' for Active; 'I' for Inactive)
REMARK    1  A    between atoms: C2_2  and  O2_4 
REMARK    2  A    between atoms: O2_4  and  C3_5 
REMARK    3  A    between atoms: N1_7  and  O3_9 
REMARK    4  A    between atoms: O3_9  and  C5_10 
REMARK    5  A    between atoms: C6_11  and  O4_12 
REMARK    6  A    between atoms: C7_14  and  O5_15 
REMARK    7  A    between atoms: O5_15  and  C8_16 
REMARK    8  A    between atoms: C11_20  and  O6_21 
REMARK    9  A    between atoms: C13_24  and  C14_25 
REMARK   10  A    between atoms: C14_25  and  O7_26 
REMARK   11  A    between atoms: C15_28  and  O8_29 
REMARK   12  A    between atoms: O8_29  and  S2_30 
REMARK   13  A    between atoms: C16_34  and  O12_35 
REMARK   14  A    between atoms: O12_35  and  S3_36 
REMARK   15  A    between atoms: C17_40  and  O16_41 
REMARK   16  A    between atoms: O16_41  and  S4_42 
ROOT
HETATM    1  C5  UNL     1      97.568  16.346   6.198  1.00  0.00     0.216 C 
HETATM    2  C6  UNL     1      96.771  17.072   7.272  1.00  0.00     0.183 C 
HETATM    3  C7  UNL     1      95.831  18.095   6.672  1.00  0.00     0.186 C 
HETATM    4  C15 UNL     1      94.908  17.360   5.735  1.00  0.00     0.209 C 
HETATM    5  C16 UNL     1      95.703  16.645   4.664  1.00  0.00     0.211 C 
HETATM    6  C17 UNL     1      96.615  15.614   5.273  1.00  0.00     0.212 C 
ENDROOT
BRANCH   3   7
HETATM    7  O5  UNL     1      95.120  18.657   7.730  1.00  0.00    -0.373 OA
BRANCH   7   8
HETATM    8  C8  UNL     1      94.321  19.714   7.334  1.00  0.00     0.143 C 
HETATM    9  C9  UNL     1      95.150  20.896   6.898  1.00  0.00     0.090 C 
HETATM   10  S1  UNL     1      96.523  21.169   8.095  1.00  0.00    -0.090 SA
HETATM   11  C10 UNL     1      94.413  22.142   6.670  1.00  0.00     0.050 C 
HETATM   12  C11 UNL     1      93.053  22.287   7.207  1.00  0.00     0.119 C 
HETATM   13  C12 UNL     1      92.324  21.030   7.545  1.00  0.00     0.041 C 
HETATM   14  C13 UNL     1      93.245  20.080   8.302  1.00  0.00     0.042 C 
BRANCH  12  15
HETATM   15  O6  UNL     1      92.216  23.004   6.315  1.00  0.00    -0.396 OA
ATOM     16  H6  UNL     1      91.523  23.459   6.777  1.00  0.00     0.210 HD
ENDBRANCH  12  15
BRANCH  14  17
HETATM   17  C14 UNL     1      93.729  20.740   9.552  1.00  0.00     0.171 C 
BRANCH  17  18
HETATM   18  O7  UNL     1      93.230  20.133  10.701  1.00  0.00    -0.400 OA
ATOM     19  H7  UNL     1      93.891  20.034  11.376  1.00  0.00     0.209 HD
ENDBRANCH  17  18
ENDBRANCH  14  17
ENDBRANCH   7   8
ENDBRANCH   3   7
BRANCH   2  20
HETATM   20  O4  UNL     1      96.017  16.101   7.927  1.00  0.00    -0.390 OA
ATOM     21  H4  UNL     1      96.634  15.460   8.259  1.00  0.00     0.210 HD
ENDBRANCH   2  20
BRANCH   4  22
HETATM   22  O8  UNL     1      94.006  18.184   5.090  1.00  0.00    -0.246 OA
BRANCH  22  23
HETATM   23  S2  UNL     1      92.555  17.367   4.926  1.00  0.00     0.252 S 
HETATM   24  O9  UNL     1      91.968  17.679   3.582  1.00  0.00    -0.572 OA
HETATM   25  O10 UNL     1      91.632  17.736   6.045  1.00  0.00    -0.572 OA
HETATM   26  O11 UNL     1      92.798  15.706   5.011  1.00  0.00    -0.572 OA
ENDBRANCH  22  23
ENDBRANCH   4  22
BRANCH   1  27
HETATM   27  O3  UNL     1      98.438  15.465   6.877  1.00  0.00    -0.268 OA
BRANCH  27  28
HETATM   28  N1  UNL     1      98.081  14.265   7.385  1.00  0.00    -0.248 N 
HETATM   29  C3  UNL     1      98.565  13.897   8.517  1.00  0.00     0.142 C 
HETATM   30  C4  UNL     1      99.504  14.754   9.277  1.00  0.00     0.099 C 
ATOM     31  H1  UNL     1      97.437  13.660   6.876  1.00  0.00     0.196 HD
BRANCH  29  32
HETATM   32  O2  UNL     1      98.212  12.672   9.054  1.00  0.00    -0.265 OA
BRANCH  32  33
HETATM   33  C2  UNL     1      96.887  12.316   9.318  1.00  0.00     0.261 C 
HETATM   34  C1  UNL     1      96.482  10.928   9.624  1.00  0.00     0.126 C 
HETATM   35  O1  UNL     1      96.039  13.241   9.283  1.00  0.00    -0.265 OA
ENDBRANCH  32  33
ENDBRANCH  29  32
ENDBRANCH  27  28
ENDBRANCH   1  27
BRANCH   5  36
HETATM   36  O12 UNL     1      96.495  17.562   3.974  1.00  0.00    -0.246 OA
BRANCH  36  37
HETATM   37  S3  UNL     1      96.025  17.720   2.373  1.00  0.00     0.252 S 
HETATM   38  O13 UNL     1      94.999  16.724   1.965  1.00  0.00    -0.572 OA
HETATM   39  O14 UNL     1      95.440  19.088   2.202  1.00  0.00    -0.572 OA
HETATM   40  O15 UNL     1      97.340  17.598   1.330  1.00  0.00    -0.572 OA
ENDBRANCH  36  37
ENDBRANCH   5  36
BRANCH   6  41
HETATM   41  O16 UNL     1      95.947  14.671   6.024  1.00  0.00    -0.246 OA
BRANCH  41  42
HETATM   42  S4  UNL     1      95.764  13.213   5.226  1.00  0.00     0.252 S 
HETATM   43  O17 UNL     1      95.362  12.187   6.261  1.00  0.00    -0.572 OA
HETATM   44  O18 UNL     1      94.774  13.310   4.113  1.00  0.00    -0.572 OA
HETATM   45  O19 UNL     1      97.216  12.678   4.559  1.00  0.00    -0.572 OA
ENDBRANCH  41  42
ENDBRANCH   6  41
TORSDOF 16
ENDMDL
