MODEL 1
REMARK VINA RESULT: -6.296470208      0.000      0.000
REMARK  10 active torsions:
REMARK  status: ('A' for Active; 'I' for Inactive)
REMARK    1  A    between atoms: C2_2  and  C3_3 
REMARK    2  A    between atoms: C3_3  and  C4_4 
REMARK    3  A    between atoms: C4_4  and  N1_5 
REMARK       I    between atoms: N1_5  and  C5_6 
REMARK    4  A    between atoms: N1_5  and  C14_17 
REMARK    5  A    between atoms: C5_6  and  C6_8 
REMARK    6  A    between atoms: C6_8  and  C7_9 
REMARK    7  A    between atoms: C7_9  and  N2_10 
REMARK    8  A    between atoms: N4_20  and  C16_21 
REMARK    9  A    between atoms: C16_21  and  C17_22 
REMARK   10  A    between atoms: C17_22  and  C18_23 
ROOT
HETATM    1  N1  UNL     1       1.963  12.855   6.643  1.00  0.00    -0.310 N 
HETATM    2  C5  UNL     1       1.682  13.491   5.382  1.00  0.00     0.226 C 
HETATM    3  O1  UNL     1       1.958  14.706   5.237  1.00  0.00    -0.273 OA
ENDROOT
BRANCH   1   4
HETATM    4  C4  UNL     1       2.488  13.630   7.728  1.00  0.00     0.132 C 
BRANCH   4   5
HETATM    5  C3  UNL     1       3.944  13.924   7.687  1.00  0.00     0.020 C 
BRANCH   5   6
HETATM    6  C2  UNL     1       4.605  13.195   8.851  1.00  0.00    -0.003 C 
HETATM    7  C1  UNL     1       5.631  14.070   9.515  1.00  0.00     0.005 C 
ENDBRANCH   5   6
ENDBRANCH   4   5
ENDBRANCH   1   4
BRANCH   1   8
HETATM    8  C14 UNL     1       1.690  11.474   6.802  1.00  0.00     0.147 A 
HETATM    9  C15 UNL     1       0.488  10.956   7.199  1.00  0.00     0.155 A 
HETATM   10  N3  UNL     1      -0.607  11.799   7.481  1.00  0.00    -0.080 NA
HETATM   11  N4  UNL     1       0.300   9.598   7.338  1.00  0.00    -0.285 N 
HETATM   12  C20 UNL     1       1.316   8.780   7.079  1.00  0.00     0.330 A 
HETATM   13  O2  UNL     1       1.269   7.518   7.176  1.00  0.00    -0.246 OA
HETATM   14  N5  UNL     1       2.512   9.296   6.683  1.00  0.00    -0.273 N 
HETATM   15  C21 UNL     1       2.748  10.605   6.532  1.00  0.00     0.279 A 
ATOM     16  H5  UNL     1       3.275   8.647   6.491  1.00  0.00     0.173 HD
HETATM   17  O3  UNL     1       3.869  11.034   6.164  1.00  0.00    -0.265 OA
BRANCH  11  18
HETATM   18  C16 UNL     1      -0.975   9.120   7.798  1.00  0.00     0.135 C 
BRANCH  18  19
HETATM   19  C17 UNL     1      -2.020   8.889   6.785  1.00  0.00     0.020 C 
BRANCH  19  20
HETATM   20  C18 UNL     1      -2.508   7.535   6.492  1.00  0.00    -0.003 C 
HETATM   21  C19 UNL     1      -1.782   6.760   5.439  1.00  0.00     0.005 C 
ENDBRANCH  19  20
ENDBRANCH  18  19
ENDBRANCH  11  18
ENDBRANCH   1   8
BRANCH   2  22
HETATM   22  C6  UNL     1       1.062  12.721   4.241  1.00  0.00     0.131 C 
BRANCH  22  23
HETATM   23  C7  UNL     1       0.246  13.660   3.423  1.00  0.00     0.246 C 
BRANCH  23  24
HETATM   24  N2  UNL     1       0.070  13.362   2.052  1.00  0.00    -0.070 N 
HETATM   25  C8  UNL     1       0.853  14.365   1.300  1.00  0.00     0.272 C 
HETATM   26  C9  UNL     1       0.741  12.098   1.757  1.00  0.00     0.237 C 
HETATM   27  C10 UNL     1       0.931  11.991   0.282  1.00  0.00     0.028 C 
HETATM   28  C11 UNL     1      -0.394  12.043  -0.412  1.00  0.00     0.003 C 
HETATM   29  C12 UNL     1      -1.515  12.276   0.545  1.00  0.00     0.028 C 
HETATM   30  C13 UNL     1      -1.249  13.412   1.518  1.00  0.00     0.237 C 
ENDBRANCH  23  24
ENDBRANCH  22  23
ENDBRANCH   2  22
TORSDOF 10
ENDMDL
MODEL 2
REMARK VINA RESULT: -6.283006926      0.913      1.474
REMARK  10 active torsions:
REMARK  status: ('A' for Active; 'I' for Inactive)
REMARK    1  A    between atoms: C2_2  and  C3_3 
REMARK    2  A    between atoms: C3_3  and  C4_4 
REMARK    3  A    between atoms: C4_4  and  N1_5 
REMARK       I    between atoms: N1_5  and  C5_6 
REMARK    4  A    between atoms: N1_5  and  C14_17 
REMARK    5  A    between atoms: C5_6  and  C6_8 
REMARK    6  A    between atoms: C6_8  and  C7_9 
REMARK    7  A    between atoms: C7_9  and  N2_10 
REMARK    8  A    between atoms: N4_20  and  C16_21 
REMARK    9  A    between atoms: C16_21  and  C17_22 
REMARK   10  A    between atoms: C17_22  and  C18_23 
ROOT
HETATM    1  N1  UNL     1       1.981  12.789   6.383  1.00  0.00    -0.310 N 
HETATM    2  C5  UNL     1       1.593  13.340   5.111  1.00  0.00     0.226 C 
HETATM    3  O1  UNL     1       1.861  14.539   4.859  1.00  0.00    -0.273 OA
ENDROOT
BRANCH   1   4
HETATM    4  C4  UNL     1       2.603  13.631   7.362  1.00  0.00     0.132 C 
BRANCH   4   5
HETATM    5  C3  UNL     1       1.753  14.059   8.503  1.00  0.00     0.020 C 
BRANCH   5   6
HETATM    6  C2  UNL     1       1.237  15.461   8.205  1.00  0.00    -0.003 C 
HETATM    7  C1  UNL     1      -0.198  15.419   7.761  1.00  0.00     0.005 C 
ENDBRANCH   5   6
ENDBRANCH   4   5
ENDBRANCH   1   4
BRANCH   1   8
HETATM    8  C14 UNL     1       1.716  11.425   6.661  1.00  0.00     0.147 A 
HETATM    9  C15 UNL     1       0.513  10.934   7.090  1.00  0.00     0.155 A 
HETATM   10  N3  UNL     1      -0.591  11.791   7.286  1.00  0.00    -0.080 NA
HETATM   11  N4  UNL     1       0.333   9.593   7.347  1.00  0.00    -0.285 N 
HETATM   12  C20 UNL     1       1.357   8.763   7.171  1.00  0.00     0.330 A 
HETATM   13  O2  UNL     1       1.319   7.514   7.378  1.00  0.00    -0.246 OA
HETATM   14  N5  UNL     1       2.554   9.252   6.743  1.00  0.00    -0.273 N 
HETATM   15  C21 UNL     1       2.782  10.544   6.479  1.00  0.00     0.279 A 
ATOM     16  H5  UNL     1       3.323   8.594   6.616  1.00  0.00     0.173 HD
HETATM   17  O3  UNL     1       3.904  10.948   6.086  1.00  0.00    -0.265 OA
BRANCH  11  18
HETATM   18  C16 UNL     1      -0.944   9.148   7.834  1.00  0.00     0.135 C 
BRANCH  18  19
HETATM   19  C17 UNL     1      -2.008   8.919   6.842  1.00  0.00     0.020 C 
BRANCH  19  20
HETATM   20  C18 UNL     1      -2.452   7.561   6.503  1.00  0.00    -0.003 C 
HETATM   21  C19 UNL     1      -1.648   6.811   5.489  1.00  0.00     0.005 C 
ENDBRANCH  19  20
ENDBRANCH  18  19
ENDBRANCH  11  18
ENDBRANCH   1   8
BRANCH   2  22
HETATM   22  C6  UNL     1       0.871  12.501   4.085  1.00  0.00     0.131 C 
BRANCH  22  23
HETATM   23  C7  UNL     1      -0.053  13.382   3.317  1.00  0.00     0.246 C 
BRANCH  23  24
HETATM   24  N2  UNL     1      -0.104  13.221   1.913  1.00  0.00    -0.070 N 
HETATM   25  C8  UNL     1       0.545  14.415   1.329  1.00  0.00     0.272 C 
HETATM   26  C9  UNL     1       0.779  12.120   1.534  1.00  0.00     0.237 C 
HETATM   27  C10 UNL     1       1.063  12.217   0.073  1.00  0.00     0.028 C 
HETATM   28  C11 UNL     1      -0.214  12.142  -0.704  1.00  0.00     0.003 C 
HETATM   29  C12 UNL     1      -1.408  12.084   0.190  1.00  0.00     0.028 C 
HETATM   30  C13 UNL     1      -1.383  13.127   1.294  1.00  0.00     0.237 C 
ENDBRANCH  23  24
ENDBRANCH  22  23
ENDBRANCH   2  22
TORSDOF 10
ENDMDL
MODEL 3
REMARK VINA RESULT: -6.119024136      1.396      6.256
REMARK  10 active torsions:
REMARK  status: ('A' for Active; 'I' for Inactive)
REMARK    1  A    between atoms: C2_2  and  C3_3 
REMARK    2  A    between atoms: C3_3  and  C4_4 
REMARK    3  A    between atoms: C4_4  and  N1_5 
REMARK       I    between atoms: N1_5  and  C5_6 
REMARK    4  A    between atoms: N1_5  and  C14_17 
REMARK    5  A    between atoms: C5_6  and  C6_8 
REMARK    6  A    between atoms: C6_8  and  C7_9 
REMARK    7  A    between atoms: C7_9  and  N2_10 
REMARK    8  A    between atoms: N4_20  and  C16_21 
REMARK    9  A    between atoms: C16_21  and  C17_22 
REMARK   10  A    between atoms: C17_22  and  C18_23 
ROOT
HETATM    1  N1  UNL     1       1.764  12.888   6.096  1.00  0.00    -0.310 N 
HETATM    2  C5  UNL     1       2.199  13.872   7.053  1.00  0.00     0.226 C 
HETATM    3  O1  UNL     1       2.284  15.072   6.697  1.00  0.00    -0.273 OA
ENDROOT
BRANCH   1   4
HETATM    4  C4  UNL     1       1.503  13.279   4.743  1.00  0.00     0.132 C 
BRANCH   4   5
HETATM    5  C3  UNL     1       0.803  12.284   3.890  1.00  0.00     0.020 C 
BRANCH   5   6
HETATM    6  C2  UNL     1       0.355  12.988   2.615  1.00  0.00    -0.003 C 
HETATM    7  C1  UNL     1       0.743  12.192   1.401  1.00  0.00     0.005 C 
ENDBRANCH   5   6
ENDBRANCH   4   5
ENDBRANCH   1   4
BRANCH   1   8
HETATM    8  C14 UNL     1       1.627  11.537   6.501  1.00  0.00     0.147 A 
HETATM    9  C15 UNL     1       0.473  10.976   6.976  1.00  0.00     0.155 A 
HETATM   10  N3  UNL     1      -0.708  11.739   7.092  1.00  0.00    -0.080 NA
HETATM   11  N4  UNL     1       0.419   9.654   7.359  1.00  0.00    -0.285 N 
HETATM   12  C20 UNL     1       1.519   8.913   7.261  1.00  0.00     0.330 A 
HETATM   13  O2  UNL     1       1.597   7.691   7.585  1.00  0.00    -0.246 OA
HETATM   14  N5  UNL     1       2.667   9.471   6.787  1.00  0.00    -0.273 N 
HETATM   15  C21 UNL     1       2.774  10.748   6.403  1.00  0.00     0.279 A 
ATOM     16  H5  UNL     1       3.496   8.880   6.722  1.00  0.00     0.173 HD
HETATM   17  O3  UNL     1       3.855  11.218   5.971  1.00  0.00    -0.265 OA
BRANCH  11  18
HETATM   18  C16 UNL     1      -0.813   9.137   7.888  1.00  0.00     0.135 C 
BRANCH  18  19
HETATM   19  C17 UNL     1      -1.642   8.310   6.994  1.00  0.00     0.020 C 
BRANCH  19  20
HETATM   20  C18 UNL     1      -2.817   8.870   6.313  1.00  0.00    -0.003 C 
HETATM   21  C19 UNL     1      -4.080   8.071   6.361  1.00  0.00     0.005 C 
ENDBRANCH  19  20
ENDBRANCH  18  19
ENDBRANCH  11  18
ENDBRANCH   1   8
BRANCH   2  22
HETATM   22  C6  UNL     1       2.551  13.482   8.468  1.00  0.00     0.131 C 
BRANCH  22  23
HETATM   23  C7  UNL     1       3.171  14.656   9.143  1.00  0.00     0.246 C 
BRANCH  23  24
HETATM   24  N2  UNL     1       4.519  14.544   9.558  1.00  0.00    -0.070 N 
HETATM   25  C8  UNL     1       5.275  15.573   8.812  1.00  0.00     0.272 C 
HETATM   26  C9  UNL     1       4.619  14.973  10.951  1.00  0.00     0.237 C 
HETATM   27  C10 UNL     1       6.049  15.266  11.259  1.00  0.00     0.028 C 
HETATM   28  C11 UNL     1       6.882  14.043  11.037  1.00  0.00     0.003 C 
HETATM   29  C12 UNL     1       6.078  12.912  10.490  1.00  0.00     0.028 C 
HETATM   30  C13 UNL     1       5.194  13.313   9.321  1.00  0.00     0.237 C 
ENDBRANCH  23  24
ENDBRANCH  22  23
ENDBRANCH   2  22
TORSDOF 10
ENDMDL
MODEL 4
REMARK VINA RESULT: -6.002530389      1.878      2.529
REMARK  10 active torsions:
REMARK  status: ('A' for Active; 'I' for Inactive)
REMARK    1  A    between atoms: C2_2  and  C3_3 
REMARK    2  A    between atoms: C3_3  and  C4_4 
REMARK    3  A    between atoms: C4_4  and  N1_5 
REMARK       I    between atoms: N1_5  and  C5_6 
REMARK    4  A    between atoms: N1_5  and  C14_17 
REMARK    5  A    between atoms: C5_6  and  C6_8 
REMARK    6  A    between atoms: C6_8  and  C7_9 
REMARK    7  A    between atoms: C7_9  and  N2_10 
REMARK    8  A    between atoms: N4_20  and  C16_21 
REMARK    9  A    between atoms: C16_21  and  C17_22 
REMARK   10  A    between atoms: C17_22  and  C18_23 
ROOT
HETATM    1  N1  UNL     1       0.074  12.600   6.617  1.00  0.00    -0.310 N 
HETATM    2  C5  UNL     1       0.173  13.277   5.350  1.00  0.00     0.226 C 
HETATM    3  O1  UNL     1      -0.321  14.424   5.232  1.00  0.00    -0.273 OA
ENDROOT
BRANCH   1   4
HETATM    4  C4  UNL     1      -0.641  13.213   7.697  1.00  0.00     0.132 C 
BRANCH   4   5
HETATM    5  C3  UNL     1       0.118  14.188   8.523  1.00  0.00     0.020 C 
BRANCH   5   6
HETATM    6  C2  UNL     1      -0.819  15.337   8.875  1.00  0.00    -0.003 C 
HETATM    7  C1  UNL     1      -2.183  15.113   8.285  1.00  0.00     0.005 C 
ENDBRANCH   5   6
ENDBRANCH   4   5
ENDBRANCH   1   4
BRANCH   1   8
HETATM    8  C14 UNL     1       0.664  11.321   6.770  1.00  0.00     0.147 A 
HETATM    9  C15 UNL     1       0.005  10.132   6.609  1.00  0.00     0.155 A 
HETATM   10  N3  UNL     1      -1.362  10.103   6.258  1.00  0.00    -0.080 NA
HETATM   11  N4  UNL     1       0.645   8.925   6.782  1.00  0.00    -0.285 N 
HETATM   12  C20 UNL     1       1.933   8.923   7.114  1.00  0.00     0.330 A 
HETATM   13  O2  UNL     1       2.628   7.882   7.306  1.00  0.00    -0.246 OA
HETATM   14  N5  UNL     1       2.588  10.106   7.273  1.00  0.00    -0.273 N 
HETATM   15  C21 UNL     1       2.015  11.305   7.117  1.00  0.00     0.279 A 
ATOM     16  H5  UNL     1       3.576  10.077   7.528  1.00  0.00     0.173 HD
HETATM   17  O3  UNL     1       2.661  12.370   7.274  1.00  0.00    -0.265 OA
BRANCH  11  18
HETATM   18  C16 UNL     1      -0.115   7.713   6.638  1.00  0.00     0.135 C 
BRANCH  18  19
HETATM   19  C17 UNL     1      -0.068   7.033   5.332  1.00  0.00     0.020 C 
BRANCH  19  20
HETATM   20  C18 UNL     1      -1.114   6.084   4.931  1.00  0.00    -0.003 C 
HETATM   21  C19 UNL     1      -0.796   5.152   3.805  1.00  0.00     0.005 C 
ENDBRANCH  19  20
ENDBRANCH  18  19
ENDBRANCH  11  18
ENDBRANCH   1   8
BRANCH   2  22
HETATM   22  C6  UNL     1       0.857  12.629   4.171  1.00  0.00     0.131 C 
BRANCH  22  23
HETATM   23  C7  UNL     1       1.267  13.696   3.216  1.00  0.00     0.246 C 
BRANCH  23  24
HETATM   24  N2  UNL     1       0.896  13.547   1.859  1.00  0.00    -0.070 N 
HETATM   25  C8  UNL     1       2.058  13.984   1.056  1.00  0.00     0.272 C 
HETATM   26  C9  UNL     1       0.777  12.121   1.559  1.00  0.00     0.237 C 
HETATM   27  C10 UNL     1       0.813  11.940   0.079  1.00  0.00     0.028 C 
HETATM   28  C11 UNL     1      -0.311  12.695  -0.558  1.00  0.00     0.003 C 
HETATM   29  C12 UNL     1      -1.091  13.483   0.442  1.00  0.00     0.028 C 
HETATM   30  C13 UNL     1      -0.216  14.296   1.381  1.00  0.00     0.237 C 
ENDBRANCH  23  24
ENDBRANCH  22  23
ENDBRANCH   2  22
TORSDOF 10
ENDMDL
MODEL 5
REMARK VINA RESULT: -5.870343692      1.469      1.725
REMARK  10 active torsions:
REMARK  status: ('A' for Active; 'I' for Inactive)
REMARK    1  A    between atoms: C2_2  and  C3_3 
REMARK    2  A    between atoms: C3_3  and  C4_4 
REMARK    3  A    between atoms: C4_4  and  N1_5 
REMARK       I    between atoms: N1_5  and  C5_6 
REMARK    4  A    between atoms: N1_5  and  C14_17 
REMARK    5  A    between atoms: C5_6  and  C6_8 
REMARK    6  A    between atoms: C6_8  and  C7_9 
REMARK    7  A    between atoms: C7_9  and  N2_10 
REMARK    8  A    between atoms: N4_20  and  C16_21 
REMARK    9  A    between atoms: C16_21  and  C17_22 
REMARK   10  A    between atoms: C17_22  and  C18_23 
ROOT
HETATM    1  N1  UNL     1       0.928  13.156   7.118  1.00  0.00    -0.310 N 
HETATM    2  C5  UNL     1       0.989  13.791   5.827  1.00  0.00     0.226 C 
HETATM    3  O1  UNL     1       0.898  15.040   5.757  1.00  0.00    -0.273 OA
ENDROOT
BRANCH   1   4
HETATM    4  C4  UNL     1       0.699  13.949   8.289  1.00  0.00     0.132 C 
BRANCH   4   5
HETATM    5  C3  UNL     1       1.907  14.411   9.022  1.00  0.00     0.020 C 
BRANCH   5   6
HETATM    6  C2  UNL     1       1.907  15.934   9.016  1.00  0.00    -0.003 C 
HETATM    7  C1  UNL     1       3.034  16.464   8.174  1.00  0.00     0.005 C 
ENDBRANCH   5   6
ENDBRANCH   4   5
ENDBRANCH   1   4
BRANCH   1   8
HETATM    8  C14 UNL     1       1.069  11.749   7.208  1.00  0.00     0.147 A 
HETATM    9  C15 UNL     1       0.029  10.860   7.235  1.00  0.00     0.155 A 
HETATM   10  N3  UNL     1      -1.308  11.306   7.164  1.00  0.00    -0.080 NA
HETATM   11  N4  UNL     1       0.245   9.503   7.332  1.00  0.00    -0.285 N 
HETATM   12  C20 UNL     1       1.495   9.055   7.401  1.00  0.00     0.330 A 
HETATM   13  O2  UNL     1       1.821   7.835   7.498  1.00  0.00    -0.246 OA
HETATM   14  N5  UNL     1       2.530   9.941   7.374  1.00  0.00    -0.273 N 
HETATM   15  C21 UNL     1       2.376  11.267   7.281  1.00  0.00     0.279 A 
ATOM     16  H5  UNL     1       3.479   9.571   7.428  1.00  0.00     0.173 HD
HETATM   17  O3  UNL     1       3.362  12.044   7.258  1.00  0.00    -0.265 OA
BRANCH  11  18
HETATM   18  C16 UNL     1      -0.892   8.625   7.396  1.00  0.00     0.135 C 
BRANCH  18  19
HETATM   19  C17 UNL     1      -1.401   8.079   6.126  1.00  0.00     0.020 C 
BRANCH  19  20
HETATM   20  C18 UNL     1      -0.893   6.811   5.587  1.00  0.00    -0.003 C 
HETATM   21  C19 UNL     1      -1.799   6.043   4.677  1.00  0.00     0.005 C 
ENDBRANCH  19  20
ENDBRANCH  18  19
ENDBRANCH  11  18
ENDBRANCH   1   8
BRANCH   2  22
HETATM   22  C6  UNL     1       1.157  12.979   4.565  1.00  0.00     0.131 C 
BRANCH  22  23
HETATM   23  C7  UNL     1       1.568  13.894   3.464  1.00  0.00     0.246 C 
BRANCH  23  24
HETATM   24  N2  UNL     1       1.059  13.640   2.169  1.00  0.00    -0.070 N 
HETATM   25  C8  UNL     1      -0.129  14.506   2.008  1.00  0.00     0.272 C 
HETATM   26  C9  UNL     1       2.006  14.155   1.183  1.00  0.00     0.237 C 
HETATM   27  C10 UNL     1       1.308  14.283  -0.129  1.00  0.00     0.028 C 
HETATM   28  C11 UNL     1       0.786  12.950  -0.564  1.00  0.00     0.003 C 
HETATM   29  C12 UNL     1       1.025  11.894   0.463  1.00  0.00     0.028 C 
HETATM   30  C13 UNL     1       0.625  12.319   1.866  1.00  0.00     0.237 C 
ENDBRANCH  23  24
ENDBRANCH  22  23
ENDBRANCH   2  22
TORSDOF 10
ENDMDL
