MODEL 1
REMARK VINA RESULT: -5.237163826      0.000      0.000
REMARK  11 active torsions:
REMARK  status: ('A' for Active; 'I' for Inactive)
REMARK    1  A    between atoms: C2_2  and  C3_3 
REMARK    2  A    between atoms: C3_3  and  C4_4 
REMARK    3  A    between atoms: C4_4  and  N1_5 
REMARK    4  A    between atoms: N1_5  and  C5_6 
REMARK    5  A    between atoms: N1_5  and  S1_24 
REMARK    6  A    between atoms: N3_9  and  C7_10 
REMARK    7  A    between atoms: C7_10  and  C8_11 
REMARK    8  A    between atoms: C8_11  and  C9_12 
REMARK    9  A    between atoms: N5_19  and  C13_21 
REMARK   10  A    between atoms: S1_24  and  C16_27 
REMARK   11  A    between atoms: C16_27  and  C17_28 
ROOT
HETATM    1  C5  UNL     1       0.610  11.913   6.704  1.00  0.00     0.130 A 
HETATM    2  C6  UNL     1      -0.038  10.717   6.409  1.00  0.00     0.154 A 
HETATM    3  N2  UNL     1      -1.284  10.643   5.750  1.00  0.00    -0.080 NA
HETATM    4  N3  UNL     1       0.489   9.505   6.757  1.00  0.00    -0.285 N 
HETATM    5  C11 UNL     1       1.663   9.462   7.400  1.00  0.00     0.329 A 
HETATM    6  O1  UNL     1       2.188   8.347   7.743  1.00  0.00    -0.246 OA
HETATM    7  N4  UNL     1       2.338  10.571   7.713  1.00  0.00    -0.292 N 
ATOM      8  H4  UNL     1       3.230  10.513   8.202  1.00  0.00     0.172 HD
HETATM    9  C12 UNL     1       1.813  11.785   7.365  1.00  0.00     0.137 A 
HETATM   10  N5  UNL     1       2.473  12.822   7.632  1.00  0.00    -0.370 N 
ATOM     11  H5  UNL     1       2.030  13.685   7.317  1.00  0.00     0.161 HD
ENDROOT
BRANCH   1  12
HETATM   12  N1  UNL     1       0.001  13.170   6.370  1.00  0.00    -0.269 N 
BRANCH  12  13
HETATM   13  C4  UNL     1      -1.213  13.580   7.095  1.00  0.00     0.142 C 
BRANCH  13  14
HETATM   14  C3  UNL     1      -0.997  14.044   8.482  1.00  0.00     0.021 C 
BRANCH  14  15
HETATM   15  C2  UNL     1      -0.924  15.583   8.424  1.00  0.00    -0.003 C 
HETATM   16  C1  UNL     1       0.450  16.004   8.900  1.00  0.00     0.005 C 
ENDBRANCH  14  15
ENDBRANCH  13  14
ENDBRANCH  12  13
BRANCH  12  17
HETATM   17  S1  UNL     1       0.516  14.213   5.129  1.00  0.00     0.233 S 
HETATM   18  O2  UNL     1       1.692  15.026   5.697  1.00  0.00    -0.205 OA
HETATM   19  O3  UNL     1      -0.559  15.261   4.911  1.00  0.00    -0.205 OA
BRANCH  17  20
HETATM   20  C16 UNL     1       1.085  13.519   3.652  1.00  0.00     0.167 C 
BRANCH  20  21
HETATM   21  C17 UNL     1       0.302  12.423   3.037  1.00  0.00    -0.007 C 
HETATM   22  C18 UNL     1       0.811  12.304   1.588  1.00  0.00     0.010 C 
HETATM   23  C19 UNL     1      -1.175  12.794   2.869  1.00  0.00     0.010 C 
ENDBRANCH  20  21
ENDBRANCH  17  20
ENDBRANCH  12  17
ENDBRANCH   1  12
BRANCH   4  24
HETATM   24  C7  UNL     1      -0.221   8.300   6.438  1.00  0.00     0.135 C 
BRANCH  24  25
HETATM   25  C8  UNL     1       0.359   7.478   5.344  1.00  0.00     0.020 C 
BRANCH  25  26
HETATM   26  C9  UNL     1      -0.476   6.347   4.852  1.00  0.00    -0.003 C 
HETATM   27  C10 UNL     1      -1.930   6.651   5.245  1.00  0.00     0.005 C 
ENDBRANCH  25  26
ENDBRANCH  24  25
ENDBRANCH   4  24
BRANCH  10  28
HETATM   28  C13 UNL     1       3.713  13.020   8.286  1.00  0.00     0.075 C 
HETATM   29  C14 UNL     1       3.687  14.175   9.272  1.00  0.00     0.031 C 
HETATM   30  C15 UNL     1       4.911  13.082   7.394  1.00  0.00     0.031 C 
ENDBRANCH  10  28
TORSDOF 11
ENDMDL
MODEL 2
REMARK VINA RESULT: -5.203101904      5.595     10.230
REMARK  11 active torsions:
REMARK  status: ('A' for Active; 'I' for Inactive)
REMARK    1  A    between atoms: C2_2  and  C3_3 
REMARK    2  A    between atoms: C3_3  and  C4_4 
REMARK    3  A    between atoms: C4_4  and  N1_5 
REMARK    4  A    between atoms: N1_5  and  C5_6 
REMARK    5  A    between atoms: N1_5  and  S1_24 
REMARK    6  A    between atoms: N3_9  and  C7_10 
REMARK    7  A    between atoms: C7_10  and  C8_11 
REMARK    8  A    between atoms: C8_11  and  C9_12 
REMARK    9  A    between atoms: N5_19  and  C13_21 
REMARK   10  A    between atoms: S1_24  and  C16_27 
REMARK   11  A    between atoms: C16_27  and  C17_28 
ROOT
HETATM    1  C5  UNL     1       6.013  15.022  10.436  1.00  0.00     0.130 A 
HETATM    2  C6  UNL     1       6.971  16.028  10.524  1.00  0.00     0.154 A 
HETATM    3  N2  UNL     1       7.785  16.237  11.658  1.00  0.00    -0.080 NA
HETATM    4  N3  UNL     1       7.186  16.913   9.505  1.00  0.00    -0.285 N 
HETATM    5  C11 UNL     1       6.456  16.813   8.386  1.00  0.00     0.329 A 
HETATM    6  O1  UNL     1       6.628  17.622   7.411  1.00  0.00    -0.246 OA
HETATM    7  N4  UNL     1       5.522  15.871   8.235  1.00  0.00    -0.292 N 
ATOM      8  H4  UNL     1       4.979  15.814   7.374  1.00  0.00     0.172 HD
HETATM    9  C12 UNL     1       5.304  14.984   9.253  1.00  0.00     0.137 A 
HETATM   10  N5  UNL     1       4.448  14.079   9.088  1.00  0.00    -0.370 N 
ATOM     11  H5  UNL     1       4.364  13.441   9.878  1.00  0.00     0.161 HD
ENDROOT
BRANCH   1  12
HETATM   12  N1  UNL     1       5.777  14.143  11.547  1.00  0.00    -0.269 N 
BRANCH  12  13
HETATM   13  C4  UNL     1       4.905  14.606  12.639  1.00  0.00     0.142 C 
BRANCH  13  14
HETATM   14  C3  UNL     1       3.641  13.855  12.801  1.00  0.00     0.021 C 
BRANCH  14  15
HETATM   15  C2  UNL     1       3.513  13.530  14.303  1.00  0.00    -0.003 C 
HETATM   16  C1  UNL     1       3.826  12.061  14.492  1.00  0.00     0.005 C 
ENDBRANCH  14  15
ENDBRANCH  13  14
ENDBRANCH  12  13
BRANCH  12  17
HETATM   17  S1  UNL     1       6.498  12.618  11.764  1.00  0.00     0.233 S 
HETATM   18  O2  UNL     1       7.551  12.467  10.653  1.00  0.00    -0.205 OA
HETATM   19  O3  UNL     1       5.473  11.555  11.420  1.00  0.00    -0.205 OA
BRANCH  17  20
HETATM   20  C16 UNL     1       7.323  12.299  13.249  1.00  0.00     0.167 C 
BRANCH  20  21
HETATM   21  C17 UNL     1       8.004  13.420  13.936  1.00  0.00    -0.007 C 
HETATM   22  C18 UNL     1       9.364  12.864  14.399  1.00  0.00     0.010 C 
HETATM   23  C19 UNL     1       7.308  13.802  15.246  1.00  0.00     0.010 C 
ENDBRANCH  20  21
ENDBRANCH  17  20
ENDBRANCH  12  17
ENDBRANCH   1  12
BRANCH   4  24
HETATM   24  C7  UNL     1       8.180  17.937   9.647  1.00  0.00     0.135 C 
BRANCH  24  25
HETATM   25  C8  UNL     1       9.440  17.725   8.889  1.00  0.00     0.020 C 
BRANCH  25  26
HETATM   26  C9  UNL     1       9.920  18.872   8.068  1.00  0.00    -0.003 C 
HETATM   27  C10 UNL     1      11.171  18.397   7.312  1.00  0.00     0.005 C 
ENDBRANCH  25  26
ENDBRANCH  24  25
ENDBRANCH   4  24
BRANCH  10  28
HETATM   28  C13 UNL     1       3.577  13.777   8.012  1.00  0.00     0.075 C 
HETATM   29  C14 UNL     1       2.115  14.017   8.346  1.00  0.00     0.031 C 
HETATM   30  C15 UNL     1       3.785  12.443   7.368  1.00  0.00     0.031 C 
ENDBRANCH  10  28
TORSDOF 11
ENDMDL
MODEL 3
REMARK VINA RESULT: -5.139427232      0.932      1.181
REMARK  11 active torsions:
REMARK  status: ('A' for Active; 'I' for Inactive)
REMARK    1  A    between atoms: C2_2  and  C3_3 
REMARK    2  A    between atoms: C3_3  and  C4_4 
REMARK    3  A    between atoms: C4_4  and  N1_5 
REMARK    4  A    between atoms: N1_5  and  C5_6 
REMARK    5  A    between atoms: N1_5  and  S1_24 
REMARK    6  A    between atoms: N3_9  and  C7_10 
REMARK    7  A    between atoms: C7_10  and  C8_11 
REMARK    8  A    between atoms: C8_11  and  C9_12 
REMARK    9  A    between atoms: N5_19  and  C13_21 
REMARK   10  A    between atoms: S1_24  and  C16_27 
REMARK   11  A    between atoms: C16_27  and  C17_28 
ROOT
HETATM    1  C5  UNL     1       0.277  11.442   6.329  1.00  0.00     0.130 A 
HETATM    2  C6  UNL     1      -0.473  10.279   6.181  1.00  0.00     0.154 A 
HETATM    3  N2  UNL     1      -1.729  10.235   5.538  1.00  0.00    -0.080 NA
HETATM    4  N3  UNL     1      -0.046   9.077   6.669  1.00  0.00    -0.285 N 
HETATM    5  C11 UNL     1       1.128   9.010   7.309  1.00  0.00     0.329 A 
HETATM    6  O1  UNL     1       1.561   7.903   7.781  1.00  0.00    -0.246 OA
HETATM    7  N4  UNL     1       1.898  10.086   7.486  1.00  0.00    -0.292 N 
ATOM      8  H4  UNL     1       2.788  10.011   7.977  1.00  0.00     0.172 HD
HETATM    9  C12 UNL     1       1.473  11.291   6.999  1.00  0.00     0.137 A 
HETATM   10  N5  UNL     1       2.221  12.293   7.138  1.00  0.00    -0.370 N 
ATOM     11  H5  UNL     1       1.849  13.147   6.724  1.00  0.00     0.161 HD
ENDROOT
BRANCH   1  12
HETATM   12  N1  UNL     1      -0.228  12.699   5.850  1.00  0.00    -0.269 N 
BRANCH  12  13
HETATM   13  C4  UNL     1      -1.345  13.331   6.571  1.00  0.00     0.142 C 
BRANCH  13  14
HETATM   14  C3  UNL     1      -1.063  13.707   7.972  1.00  0.00     0.021 C 
BRANCH  14  15
HETATM   15  C2  UNL     1      -0.167  14.960   7.920  1.00  0.00    -0.003 C 
HETATM   16  C1  UNL     1       0.289  15.269   9.330  1.00  0.00     0.005 C 
ENDBRANCH  14  15
ENDBRANCH  13  14
ENDBRANCH  12  13
BRANCH  12  17
HETATM   17  S1  UNL     1       0.302  13.499   4.446  1.00  0.00     0.233 S 
HETATM   18  O2  UNL     1       1.567  14.282   4.836  1.00  0.00    -0.205 OA
HETATM   19  O3  UNL     1      -0.697  14.592   4.116  1.00  0.00    -0.205 OA
BRANCH  17  20
HETATM   20  C16 UNL     1       0.735  12.549   3.068  1.00  0.00     0.167 C 
BRANCH  20  21
HETATM   21  C17 UNL     1       0.669  13.175   1.728  1.00  0.00    -0.007 C 
HETATM   22  C18 UNL     1       0.747  12.014   0.718  1.00  0.00     0.010 C 
HETATM   23  C19 UNL     1       1.919  14.004   1.417  1.00  0.00     0.010 C 
ENDBRANCH  20  21
ENDBRANCH  17  20
ENDBRANCH  12  17
ENDBRANCH   1  12
BRANCH   4  24
HETATM   24  C7  UNL     1      -0.860   7.907   6.496  1.00  0.00     0.135 C 
BRANCH  24  25
HETATM   25  C8  UNL     1      -0.424   6.969   5.430  1.00  0.00     0.020 C 
BRANCH  25  26
HETATM   26  C9  UNL     1      -1.326   5.815   5.155  1.00  0.00    -0.003 C 
HETATM   27  C10 UNL     1      -0.905   5.223   3.800  1.00  0.00     0.005 C 
ENDBRANCH  25  26
ENDBRANCH  24  25
ENDBRANCH   4  24
BRANCH  10  28
HETATM   28  C13 UNL     1       3.482  12.460   7.761  1.00  0.00     0.075 C 
HETATM   29  C14 UNL     1       3.593  13.761   8.538  1.00  0.00     0.031 C 
HETATM   30  C15 UNL     1       4.671  12.238   6.883  1.00  0.00     0.031 C 
ENDBRANCH  10  28
TORSDOF 11
ENDMDL
MODEL 4
REMARK VINA RESULT: -5.105800415      1.661      2.188
REMARK  11 active torsions:
REMARK  status: ('A' for Active; 'I' for Inactive)
REMARK    1  A    between atoms: C2_2  and  C3_3 
REMARK    2  A    between atoms: C3_3  and  C4_4 
REMARK    3  A    between atoms: C4_4  and  N1_5 
REMARK    4  A    between atoms: N1_5  and  C5_6 
REMARK    5  A    between atoms: N1_5  and  S1_24 
REMARK    6  A    between atoms: N3_9  and  C7_10 
REMARK    7  A    between atoms: C7_10  and  C8_11 
REMARK    8  A    between atoms: C8_11  and  C9_12 
REMARK    9  A    between atoms: N5_19  and  C13_21 
REMARK   10  A    between atoms: S1_24  and  C16_27 
REMARK   11  A    between atoms: C16_27  and  C17_28 
ROOT
HETATM    1  C5  UNL     1       0.390  11.629   6.809  1.00  0.00     0.130 A 
HETATM    2  C6  UNL     1      -0.164  10.382   6.534  1.00  0.00     0.154 A 
HETATM    3  N2  UNL     1      -1.441  10.202   5.961  1.00  0.00    -0.080 NA
HETATM    4  N3  UNL     1       0.495   9.219   6.818  1.00  0.00    -0.285 N 
HETATM    5  C11 UNL     1       1.711   9.276   7.377  1.00  0.00     0.329 A 
HETATM    6  O1  UNL     1       2.359   8.210   7.658  1.00  0.00    -0.246 OA
HETATM    7  N4  UNL     1       2.301  10.438   7.666  1.00  0.00    -0.292 N 
ATOM      8  H4  UNL     1       3.228  10.456   8.091  1.00  0.00     0.172 HD
HETATM    9  C12 UNL     1       1.644  11.603   7.383  1.00  0.00     0.137 A 
HETATM   10  N5  UNL     1       2.222  12.693   7.626  1.00  0.00    -0.370 N 
ATOM     11  H5  UNL     1       1.681  13.516   7.361  1.00  0.00     0.161 HD
ENDROOT
BRANCH   1  12
HETATM   12  N1  UNL     1      -0.354  12.829   6.546  1.00  0.00    -0.269 N 
BRANCH  12  13
HETATM   13  C4  UNL     1      -1.286  13.320   7.574  1.00  0.00     0.142 C 
BRANCH  13  14
HETATM   14  C3  UNL     1      -0.700  14.240   8.573  1.00  0.00     0.021 C 
BRANCH  14  15
HETATM   15  C2  UNL     1      -1.595  15.495   8.593  1.00  0.00    -0.003 C 
HETATM   16  C1  UNL     1      -2.809  15.218   7.733  1.00  0.00     0.005 C 
ENDBRANCH  14  15
ENDBRANCH  13  14
ENDBRANCH  12  13
BRANCH  12  17
HETATM   17  S1  UNL     1      -0.320  13.707   5.090  1.00  0.00     0.233 S 
HETATM   18  O2  UNL     1      -1.722  13.581   4.468  1.00  0.00    -0.205 OA
HETATM   19  O3  UNL     1       0.565  12.964   4.108  1.00  0.00    -0.205 OA
BRANCH  17  20
HETATM   20  C16 UNL     1       0.023  15.400   5.155  1.00  0.00     0.167 C 
BRANCH  20  21
HETATM   21  C17 UNL     1       1.438  15.834   5.187  1.00  0.00    -0.007 C 
HETATM   22  C18 UNL     1       1.699  16.308   6.630  1.00  0.00     0.010 C 
HETATM   23  C19 UNL     1       1.674  17.094   4.348  1.00  0.00     0.010 C 
ENDBRANCH  20  21
ENDBRANCH  17  20
ENDBRANCH  12  17
ENDBRANCH   1  12
BRANCH   4  24
HETATM   24  C7  UNL     1      -0.122   7.958   6.522  1.00  0.00     0.135 C 
BRANCH  24  25
HETATM   25  C8  UNL     1       0.340   7.289   5.278  1.00  0.00     0.020 C 
BRANCH  25  26
HETATM   26  C9  UNL     1      -0.552   6.231   4.726  1.00  0.00    -0.003 C 
HETATM   27  C10 UNL     1      -1.988   6.583   5.145  1.00  0.00     0.005 C 
ENDBRANCH  25  26
ENDBRANCH  24  25
ENDBRANCH   4  24
BRANCH  10  28
HETATM   28  C13 UNL     1       3.482  12.996   8.197  1.00  0.00     0.075 C 
HETATM   29  C14 UNL     1       3.442  14.201   9.121  1.00  0.00     0.031 C 
HETATM   30  C15 UNL     1       4.625  13.076   7.235  1.00  0.00     0.031 C 
ENDBRANCH  10  28
TORSDOF 11
ENDMDL
MODEL 5
REMARK VINA RESULT: -5.026646583      2.428      4.416
REMARK  11 active torsions:
REMARK  status: ('A' for Active; 'I' for Inactive)
REMARK    1  A    between atoms: C2_2  and  C3_3 
REMARK    2  A    between atoms: C3_3  and  C4_4 
REMARK    3  A    between atoms: C4_4  and  N1_5 
REMARK    4  A    between atoms: N1_5  and  C5_6 
REMARK    5  A    between atoms: N1_5  and  S1_24 
REMARK    6  A    between atoms: N3_9  and  C7_10 
REMARK    7  A    between atoms: C7_10  and  C8_11 
REMARK    8  A    between atoms: C8_11  and  C9_12 
REMARK    9  A    between atoms: N5_19  and  C13_21 
REMARK   10  A    between atoms: S1_24  and  C16_27 
REMARK   11  A    between atoms: C16_27  and  C17_28 
ROOT
HETATM    1  C5  UNL     1      -0.959  10.701   6.409  1.00  0.00     0.130 A 
HETATM    2  C6  UNL     1      -0.413   9.427   6.286  1.00  0.00     0.154 A 
HETATM    3  N2  UNL     1       0.959   9.180   6.066  1.00  0.00    -0.080 NA
HETATM    4  N3  UNL     1      -1.185   8.301   6.356  1.00  0.00    -0.285 N 
HETATM    5  C11 UNL     1      -2.504   8.422   6.549  1.00  0.00     0.329 A 
HETATM    6  O1  UNL     1      -3.259   7.392   6.620  1.00  0.00    -0.246 OA
HETATM    7  N4  UNL     1      -3.092   9.614   6.676  1.00  0.00    -0.292 N 
ATOM      8  H4  UNL     1      -4.099   9.682   6.824  1.00  0.00     0.172 HD
HETATM    9  C12 UNL     1      -2.323  10.743   6.607  1.00  0.00     0.137 A 
HETATM   10  N5  UNL     1      -2.880  11.859   6.763  1.00  0.00    -0.370 N 
ATOM     11  H5  UNL     1      -2.237  12.650   6.727  1.00  0.00     0.161 HD
ENDROOT
BRANCH   1  12
HETATM   12  N1  UNL     1      -0.126  11.864   6.276  1.00  0.00    -0.269 N 
BRANCH  12  13
HETATM   13  C4  UNL     1       0.533  12.400   7.478  1.00  0.00     0.142 C 
BRANCH  13  14
HETATM   14  C3  UNL     1       2.011  12.406   7.441  1.00  0.00     0.021 C 
BRANCH  14  15
HETATM   15  C2  UNL     1       2.464  13.705   8.137  1.00  0.00    -0.003 C 
HETATM   16  C1  UNL     1       1.242  14.363   8.739  1.00  0.00     0.005 C 
ENDBRANCH  14  15
ENDBRANCH  13  14
ENDBRANCH  12  13
BRANCH  12  17
HETATM   17  S1  UNL     1       0.105  12.748   4.842  1.00  0.00     0.233 S 
HETATM   18  O2  UNL     1      -1.115  12.466   3.949  1.00  0.00    -0.205 OA
HETATM   19  O3  UNL     1       1.252  12.119   4.075  1.00  0.00    -0.205 OA
BRANCH  17  20
HETATM   20  C16 UNL     1       0.233  14.470   4.945  1.00  0.00     0.167 C 
BRANCH  20  21
HETATM   21  C17 UNL     1       1.572  15.089   4.818  1.00  0.00    -0.007 C 
HETATM   22  C18 UNL     1       1.491  16.425   5.581  1.00  0.00     0.010 C 
HETATM   23  C19 UNL     1       1.875  15.517   3.379  1.00  0.00     0.010 C 
ENDBRANCH  20  21
ENDBRANCH  17  20
ENDBRANCH  12  17
ENDBRANCH   1  12
BRANCH   4  24
HETATM   24  C7  UNL     1      -0.576   7.009   6.216  1.00  0.00     0.135 C 
BRANCH  24  25
HETATM   25  C8  UNL     1      -0.569   6.444   4.842  1.00  0.00     0.020 C 
BRANCH  25  26
HETATM   26  C9  UNL     1      -1.352   5.193   4.637  1.00  0.00    -0.003 C 
HETATM   27  C10 UNL     1      -0.985   4.650   3.247  1.00  0.00     0.005 C 
ENDBRANCH  25  26
ENDBRANCH  24  25
ENDBRANCH   4  24
BRANCH  10  28
HETATM   28  C13 UNL     1      -4.230  12.228   6.981  1.00  0.00     0.075 C 
HETATM   29  C14 UNL     1      -5.018  12.383   5.692  1.00  0.00     0.031 C 
HETATM   30  C15 UNL     1      -4.442  13.387   7.902  1.00  0.00     0.031 C 
ENDBRANCH  10  28
TORSDOF 11
ENDMDL
