MODEL 1
REMARK VINA RESULT: -9.238939581      0.000      0.000
REMARK  7 active torsions:
REMARK  status: ('A' for Active; 'I' for Inactive)
REMARK    1  A    between atoms: C4_7  and  N3_8 
REMARK    2  A    between atoms: C5_13  and  S1_14 
REMARK    3  A    between atoms: S1_14  and  S2_15 
REMARK    4  A    between atoms: S2_15  and  C6_16 
REMARK    5  A    between atoms: C7_21  and  N7_22 
REMARK       I    between atoms: N8_24  and  C8_26 
REMARK       I    between atoms: C8_26  and  N9_28 
REMARK    6  A    between atoms: N9_28  and  N10_29 
REMARK    7  A    between atoms: N11_32  and  N12_33 
ROOT
HETATM    1  C6  UNL     1      18.965  16.852   6.936  1.00  0.00     0.209 A 
HETATM    2  N5  UNL     1      20.153  17.068   7.650  1.00  0.00    -0.263 N 
ATOM      3  H5  UNL     1      20.938  16.419   7.687  1.00  0.00     0.189 HD
HETATM    4  N6  UNL     1      20.109  18.199   8.248  1.00  0.00    -0.127 N 
ATOM      5  H6  UNL     1      20.862  18.579   8.821  1.00  0.00     0.206 HD
HETATM    6  C7  UNL     1      18.968  18.802   8.028  1.00  0.00     0.734 A 
HETATM    7  N11 UNL     1      18.262  18.014   7.194  1.00  0.00    -0.065 N 
ENDROOT
BRANCH   1   8
HETATM    8  S2  UNL     1      18.186  15.552   6.219  1.00  0.00    -0.011 SA
BRANCH   8   9
HETATM    9  S1  UNL     1      19.230  13.795   5.804  1.00  0.00    -0.029 SA
BRANCH   9  10
HETATM   10  C5  UNL     1      18.510  12.369   6.228  1.00  0.00     0.120 A 
HETATM   11  C2  UNL     1      17.244  11.874   5.700  1.00  0.00     0.057 A 
HETATM   12  C1  UNL     1      16.716  12.487   4.485  1.00  0.00     0.072 C 
HETATM   13  N1  UNL     1      16.858  10.804   6.310  1.00  0.00    -0.286 N 
HETATM   14  N2  UNL     1      17.338  10.169   7.213  1.00  0.00    -0.128 N 
ATOM     15  H1  UNL     1      15.979  10.423   5.959  1.00  0.00     0.187 HD
HETATM   16  C3  UNL     1      16.677   9.115   8.026  1.00  0.00     0.197 C 
HETATM   17  C4  UNL     1      18.567  10.569   7.733  1.00  0.00     0.693 A 
HETATM   18  N4  UNL     1      19.050  11.661   7.169  1.00  0.00    -0.182 N 
ATOM     19  H4  UNL     1      19.953  11.984   7.514  1.00  0.00     0.185 HD
BRANCH  17  20
HETATM   20  N3  UNL     1      19.063   9.754   8.609  1.00  0.00    -0.233 N 
ATOM     21  H32 UNL     1      18.789   8.815   8.901  1.00  0.00     0.174 HD
ATOM     22  H31 UNL     1      19.824  10.148   9.163  1.00  0.00     0.174 HD
ENDBRANCH  17  20
ENDBRANCH   9  10
ENDBRANCH   8   9
ENDBRANCH   1   8
BRANCH   7  23
HETATM   23  N12 UNL     1      17.118  18.283   6.383  1.00  0.00    -0.322 N 
ATOM     24 2H12 UNL     1      16.123  18.305   6.606  1.00  0.00     0.178 HD
ATOM     25 1H12 UNL     1      17.281  18.711   5.472  1.00  0.00     0.178 HD
ENDBRANCH   7  23
BRANCH   6  26
HETATM   26  N7  UNL     1      18.504  19.937   8.609  1.00  0.00    -0.124 N 
HETATM   27  N8  UNL     1      18.878  20.221   9.789  1.00  0.00    -0.224 N 
HETATM   28  C8  UNL     1      18.755  21.891  10.290  1.00  0.00     0.430 C 
ATOM     29  H8  UNL     1      19.236  19.503  10.419  1.00  0.00     0.193 HD
HETATM   30  O1  UNL     1      18.307  22.298   9.207  1.00  0.00    -0.227 OA
HETATM   31  N9  UNL     1      19.244  21.556  11.524  1.00  0.00    -0.271 NA
ATOM     32  H7  UNL     1      17.866  20.552   8.106  1.00  0.00     0.206 HD
BRANCH  31  33
HETATM   33  N10 UNL     1      19.669  21.318  12.609  1.00  0.00    -0.275 N 
ATOM     34 2H10 UNL     1      20.382  21.695  11.984  1.00  0.00     0.191 HD
ATOM     35 1H10 UNL     1      19.993  21.098  13.552  1.00  0.00     0.191 HD
ENDBRANCH  31  33
ENDBRANCH   6  26
TORSDOF 7
ENDMDL
MODEL 2
REMARK VINA RESULT: -9.053232305      0.952      1.081
REMARK  7 active torsions:
REMARK  status: ('A' for Active; 'I' for Inactive)
REMARK    1  A    between atoms: C4_7  and  N3_8 
REMARK    2  A    between atoms: C5_13  and  S1_14 
REMARK    3  A    between atoms: S1_14  and  S2_15 
REMARK    4  A    between atoms: S2_15  and  C6_16 
REMARK    5  A    between atoms: C7_21  and  N7_22 
REMARK       I    between atoms: N8_24  and  C8_26 
REMARK       I    between atoms: C8_26  and  N9_28 
REMARK    6  A    between atoms: N9_28  and  N10_29 
REMARK    7  A    between atoms: N11_32  and  N12_33 
ROOT
HETATM    1  C6  UNL     1      18.961  17.056   6.563  1.00  0.00     0.209 A 
HETATM    2  N5  UNL     1      20.001  17.057   7.505  1.00  0.00    -0.263 N 
ATOM      3  H5  UNL     1      20.697  16.319   7.608  1.00  0.00     0.189 HD
HETATM    4  N6  UNL     1      19.949  18.118   8.218  1.00  0.00    -0.127 N 
ATOM      5  H6  UNL     1      20.608  18.347   8.962  1.00  0.00     0.206 HD
HETATM    6  C7  UNL     1      18.938  18.871   7.866  1.00  0.00     0.734 A 
HETATM    7  N11 UNL     1      18.337  18.261   6.827  1.00  0.00    -0.065 N 
ENDROOT
BRANCH   1   8
HETATM    8  S2  UNL     1      18.217  15.937   5.561  1.00  0.00    -0.011 SA
BRANCH   8   9
HETATM    9  S1  UNL     1      18.989  14.008   5.378  1.00  0.00    -0.029 SA
BRANCH   9  10
HETATM   10  C5  UNL     1      17.935  12.749   5.566  1.00  0.00     0.120 A 
HETATM   11  C2  UNL     1      16.934  12.334   4.590  1.00  0.00     0.057 A 
HETATM   12  C1  UNL     1      17.061  12.825   3.221  1.00  0.00     0.072 C 
HETATM   13  N1  UNL     1      16.161  11.413   5.060  1.00  0.00    -0.286 N 
HETATM   14  N2  UNL     1      16.116  10.862   6.129  1.00  0.00    -0.128 N 
ATOM     15  H1  UNL     1      15.454  11.091   4.399  1.00  0.00     0.187 HD
HETATM   16  C3  UNL     1      15.016  10.018   6.664  1.00  0.00     0.197 C 
HETATM   17  C4  UNL     1      17.070  11.187   7.091  1.00  0.00     0.693 A 
HETATM   18  N4  UNL     1      17.915  12.124   6.701  1.00  0.00    -0.182 N 
ATOM     19  H4  UNL     1      18.637  12.387   7.372  1.00  0.00     0.185 HD
BRANCH  17  20
HETATM   20  N3  UNL     1      17.021  10.453   8.157  1.00  0.00    -0.233 N 
ATOM     21  H32 UNL     1      16.397  10.462   8.964  1.00  0.00     0.174 HD
ATOM     22  H31 UNL     1      17.792   9.790   8.244  1.00  0.00     0.174 HD
ENDBRANCH  17  20
ENDBRANCH   9  10
ENDBRANCH   8   9
ENDBRANCH   1   8
BRANCH   7  23
HETATM   23  N12 UNL     1      17.407  18.743   5.857  1.00  0.00    -0.322 N 
ATOM     24 2H12 UNL     1      17.423  18.721   4.837  1.00  0.00     0.178 HD
ATOM     25 1H12 UNL     1      16.473  18.986   6.185  1.00  0.00     0.178 HD
ENDBRANCH   7  23
BRANCH   6  26
HETATM   26  N7  UNL     1      18.481  19.988   8.485  1.00  0.00    -0.124 N 
HETATM   27  N8  UNL     1      18.865  20.235   9.671  1.00  0.00    -0.224 N 
HETATM   28  C8  UNL     1      18.748  21.890  10.224  1.00  0.00     0.430 C 
ATOM     29  H8  UNL     1      19.226  19.499  10.275  1.00  0.00     0.193 HD
HETATM   30  O1  UNL     1      18.292  22.331   9.157  1.00  0.00    -0.227 OA
HETATM   31  N9  UNL     1      19.247  21.517  11.442  1.00  0.00    -0.271 NA
ATOM     32  H7  UNL     1      17.839  20.620   8.007  1.00  0.00     0.206 HD
BRANCH  31  33
HETATM   33  N10 UNL     1      19.680  21.244  12.516  1.00  0.00    -0.275 N 
ATOM     34 2H10 UNL     1      20.337  21.787  11.956  1.00  0.00     0.191 HD
ATOM     35 1H10 UNL     1      20.013  20.989  13.446  1.00  0.00     0.191 HD
ENDBRANCH  31  33
ENDBRANCH   6  26
TORSDOF 7
ENDMDL
MODEL 3
REMARK VINA RESULT: -9.016913898      1.783      2.178
REMARK  7 active torsions:
REMARK  status: ('A' for Active; 'I' for Inactive)
REMARK    1  A    between atoms: C4_7  and  N3_8 
REMARK    2  A    between atoms: C5_13  and  S1_14 
REMARK    3  A    between atoms: S1_14  and  S2_15 
REMARK    4  A    between atoms: S2_15  and  C6_16 
REMARK    5  A    between atoms: C7_21  and  N7_22 
REMARK       I    between atoms: N8_24  and  C8_26 
REMARK       I    between atoms: C8_26  and  N9_28 
REMARK    6  A    between atoms: N9_28  and  N10_29 
REMARK    7  A    between atoms: N11_32  and  N12_33 
ROOT
HETATM    1  C6  UNL     1      19.014  16.747   5.573  1.00  0.00     0.209 A 
HETATM    2  N5  UNL     1      19.213  17.886   4.778  1.00  0.00    -0.263 N 
ATOM      3  H5  UNL     1      19.227  17.891   3.758  1.00  0.00     0.189 HD
HETATM    4  N6  UNL     1      19.376  18.917   5.518  1.00  0.00    -0.127 N 
ATOM      5  H6  UNL     1      19.527  19.863   5.166  1.00  0.00     0.206 HD
HETATM    6  C7  UNL     1      19.324  18.598   6.786  1.00  0.00     0.734 A 
HETATM    7  N11 UNL     1      19.064  17.278   6.848  1.00  0.00    -0.065 N 
ENDROOT
BRANCH   1   8
HETATM    8  S2  UNL     1      19.053  15.084   5.363  1.00  0.00    -0.011 SA
BRANCH   8   9
HETATM    9  S1  UNL     1      17.502  14.110   4.364  1.00  0.00    -0.029 SA
BRANCH   9  10
HETATM   10  C5  UNL     1      16.981  12.674   4.992  1.00  0.00     0.120 A 
HETATM   11  C2  UNL     1      16.225  11.661   4.265  1.00  0.00     0.057 A 
HETATM   12  C1  UNL     1      16.194  11.737   2.808  1.00  0.00     0.072 C 
HETATM   13  N1  UNL     1      15.835  10.707   5.042  1.00  0.00    -0.286 N 
HETATM   14  N2  UNL     1      15.971  10.517   6.223  1.00  0.00    -0.128 N 
ATOM     15  H1  UNL     1      15.310   9.973   4.564  1.00  0.00     0.187 HD
HETATM   16  C3  UNL     1      15.246   9.534   7.069  1.00  0.00     0.197 C 
HETATM   17  C4  UNL     1      16.717  11.430   6.965  1.00  0.00     0.693 A 
HETATM   18  N4  UNL     1      17.167  12.448   6.254  1.00  0.00    -0.182 N 
ATOM     19  H4  UNL     1      17.726  13.136   6.757  1.00  0.00     0.185 HD
BRANCH  17  20
HETATM   20  N3  UNL     1      16.917  11.077   8.195  1.00  0.00    -0.233 N 
ATOM     21  H32 UNL     1      17.489  10.340   8.610  1.00  0.00     0.174 HD
ATOM     22  H31 UNL     1      16.342  11.577   8.872  1.00  0.00     0.174 HD
ENDBRANCH  17  20
ENDBRANCH   9  10
ENDBRANCH   8   9
ENDBRANCH   1   8
BRANCH   7  23
HETATM   23  N12 UNL     1      18.600  16.455   7.919  1.00  0.00    -0.322 N 
ATOM     24 2H12 UNL     1      17.673  16.089   8.136  1.00  0.00     0.178 HD
ATOM     25 1H12 UNL     1      19.303  15.974   8.478  1.00  0.00     0.178 HD
ENDBRANCH   7  23
BRANCH   6  26
HETATM   26  N7  UNL     1      19.598  19.390   7.853  1.00  0.00    -0.124 N 
HETATM   27  N8  UNL     1      18.642  19.992   8.434  1.00  0.00    -0.224 N 
HETATM   28  C8  UNL     1      18.905  20.515  10.080  1.00  0.00     0.430 C 
ATOM     29  H8  UNL     1      17.756  20.163   7.958  1.00  0.00     0.193 HD
HETATM   30  O1  UNL     1      20.059  20.067  10.156  1.00  0.00    -0.227 OA
HETATM   31  N9  UNL     1      17.644  21.046  10.113  1.00  0.00    -0.271 NA
ATOM     32  H7  UNL     1      20.556  19.500   8.184  1.00  0.00     0.206 HD
BRANCH  31  33
HETATM   33  N10 UNL     1      16.556  21.520  10.192  1.00  0.00    -0.275 N 
ATOM     34 2H10 UNL     1      17.236  22.168   9.794  1.00  0.00     0.191 HD
ATOM     35 1H10 UNL     1      15.607  21.887  10.279  1.00  0.00     0.191 HD
ENDBRANCH  31  33
ENDBRANCH   6  26
TORSDOF 7
ENDMDL
MODEL 4
REMARK VINA RESULT: -8.987352859      1.213      1.441
REMARK  7 active torsions:
REMARK  status: ('A' for Active; 'I' for Inactive)
REMARK    1  A    between atoms: C4_7  and  N3_8 
REMARK    2  A    between atoms: C5_13  and  S1_14 
REMARK    3  A    between atoms: S1_14  and  S2_15 
REMARK    4  A    between atoms: S2_15  and  C6_16 
REMARK    5  A    between atoms: C7_21  and  N7_22 
REMARK       I    between atoms: N8_24  and  C8_26 
REMARK       I    between atoms: C8_26  and  N9_28 
REMARK    6  A    between atoms: N9_28  and  N10_29 
REMARK    7  A    between atoms: N11_32  and  N12_33 
ROOT
HETATM    1  C6  UNL     1      19.445  17.650   6.176  1.00  0.00     0.209 A 
HETATM    2  N5  UNL     1      20.475  17.664   7.130  1.00  0.00    -0.263 N 
ATOM      3  H5  UNL     1      21.339  17.127   7.064  1.00  0.00     0.189 HD
HETATM    4  N6  UNL     1      20.171  18.448   8.094  1.00  0.00    -0.127 N 
ATOM      5  H6  UNL     1      20.768  18.630   8.901  1.00  0.00     0.206 HD
HETATM    6  C7  UNL     1      18.991  18.984   7.909  1.00  0.00     0.734 A 
HETATM    7  N11 UNL     1      18.540  18.541   6.720  1.00  0.00    -0.065 N 
ENDROOT
BRANCH   1   8
HETATM    8  S2  UNL     1      18.987  16.687   4.882  1.00  0.00    -0.011 SA
BRANCH   8   9
HETATM    9  S1  UNL     1      17.427  15.318   5.086  1.00  0.00    -0.029 SA
BRANCH   9  10
HETATM   10  C5  UNL     1      17.786  13.856   5.766  1.00  0.00     0.120 A 
HETATM   11  C2  UNL     1      17.403  12.557   5.224  1.00  0.00     0.057 A 
HETATM   12  C1  UNL     1      16.963  12.493   3.834  1.00  0.00     0.072 C 
HETATM   13  N1  UNL     1      17.698  11.596   6.033  1.00  0.00    -0.286 N 
HETATM   14  N2  UNL     1      18.206  11.583   7.124  1.00  0.00    -0.128 N 
ATOM     15  H1  UNL     1      17.452  10.670   5.682  1.00  0.00     0.187 HD
HETATM   16  C3  UNL     1      18.246  10.453   8.089  1.00  0.00     0.197 C 
HETATM   17  C4  UNL     1      18.630  12.789   7.679  1.00  0.00     0.693 A 
HETATM   18  N4  UNL     1      18.375  13.839   6.920  1.00  0.00    -0.182 N 
ATOM     19  H4  UNL     1      18.677  14.742   7.284  1.00  0.00     0.185 HD
BRANCH  17  20
HETATM   20  N3  UNL     1      19.280  12.662   8.792  1.00  0.00    -0.233 N 
ATOM     21  H32 UNL     1      20.267  12.501   8.992  1.00  0.00     0.174 HD
ATOM     22  H31 UNL     1      18.687  12.645   9.622  1.00  0.00     0.174 HD
ENDBRANCH  17  20
ENDBRANCH   9  10
ENDBRANCH   8   9
ENDBRANCH   1   8
BRANCH   7  23
HETATM   23  N12 UNL     1      17.493  19.012   5.872  1.00  0.00    -0.322 N 
ATOM     24 2H12 UNL     1      17.473  19.753   5.171  1.00  0.00     0.178 HD
ATOM     25 1H12 UNL     1      16.667  18.422   5.777  1.00  0.00     0.178 HD
ENDBRANCH   7  23
BRANCH   6  26
HETATM   26  N7  UNL     1      18.279  19.742   8.780  1.00  0.00    -0.124 N 
HETATM   27  N8  UNL     1      18.809  20.069   9.888  1.00  0.00    -0.224 N 
HETATM   28  C8  UNL     1      18.151  21.462  10.713  1.00  0.00     0.430 C 
ATOM     29  H8  UNL     1      19.588  19.540  10.279  1.00  0.00     0.193 HD
HETATM   30  O1  UNL     1      17.298  21.711   9.847  1.00  0.00    -0.227 OA
HETATM   31  N9  UNL     1      19.051  21.285  11.729  1.00  0.00    -0.271 NA
ATOM     32  H7  UNL     1      17.333  20.045   8.550  1.00  0.00     0.206 HD
BRANCH  31  33
HETATM   33  N10 UNL     1      19.815  21.176  12.634  1.00  0.00    -0.275 N 
ATOM     34 2H10 UNL     1      19.080  21.858  12.823  1.00  0.00     0.191 HD
ATOM     35 1H10 UNL     1      20.493  21.052  13.386  1.00  0.00     0.191 HD
ENDBRANCH  31  33
ENDBRANCH   6  26
TORSDOF 7
ENDMDL
MODEL 5
REMARK VINA RESULT: -8.976463120      1.664      2.307
REMARK  7 active torsions:
REMARK  status: ('A' for Active; 'I' for Inactive)
REMARK    1  A    between atoms: C4_7  and  N3_8 
REMARK    2  A    between atoms: C5_13  and  S1_14 
REMARK    3  A    between atoms: S1_14  and  S2_15 
REMARK    4  A    between atoms: S2_15  and  C6_16 
REMARK    5  A    between atoms: C7_21  and  N7_22 
REMARK       I    between atoms: N8_24  and  C8_26 
REMARK       I    between atoms: C8_26  and  N9_28 
REMARK    6  A    between atoms: N9_28  and  N10_29 
REMARK    7  A    between atoms: N11_32  and  N12_33 
ROOT
HETATM    1  C6  UNL     1      18.179  15.961   5.847  1.00  0.00     0.209 A 
HETATM    2  N5  UNL     1      17.077  16.826   5.764  1.00  0.00    -0.263 N 
ATOM      3  H5  UNL     1      16.263  16.679   5.168  1.00  0.00     0.189 HD
HETATM    4  N6  UNL     1      17.243  17.827   6.544  1.00  0.00    -0.127 N 
ATOM      5  H6  UNL     1      16.570  18.584   6.663  1.00  0.00     0.206 HD
HETATM    6  C7  UNL     1      18.391  17.751   7.168  1.00  0.00     0.734 A 
HETATM    7  N11 UNL     1      18.969  16.595   6.787  1.00  0.00    -0.065 N 
ENDROOT
BRANCH   1   8
HETATM    8  S2  UNL     1      18.811  14.692   4.951  1.00  0.00    -0.011 SA
BRANCH   8   9
HETATM    9  S1  UNL     1      17.542  13.310   4.040  1.00  0.00    -0.029 SA
BRANCH   9  10
HETATM   10  C5  UNL     1      17.073  12.005   4.938  1.00  0.00     0.120 A 
HETATM   11  C2  UNL     1      16.276  10.887   4.447  1.00  0.00     0.057 A 
HETATM   12  C1  UNL     1      16.147  10.712   3.004  1.00  0.00     0.072 C 
HETATM   13  N1  UNL     1      15.945  10.082   5.401  1.00  0.00    -0.286 N 
HETATM   14  N2  UNL     1      16.160  10.097   6.585  1.00  0.00    -0.128 N 
ATOM     15  H1  UNL     1      15.394   9.280   5.092  1.00  0.00     0.187 HD
HETATM   16  C3  UNL     1      15.500   9.276   7.633  1.00  0.00     0.197 C 
HETATM   17  C4  UNL     1      16.949  11.119   7.108  1.00  0.00     0.693 A 
HETATM   18  N4  UNL     1      17.344  11.998   6.205  1.00  0.00    -0.182 N 
ATOM     19  H4  UNL     1      17.931  12.759   6.544  1.00  0.00     0.185 HD
BRANCH  17  20
HETATM   20  N3  UNL     1      17.233  10.981   8.364  1.00  0.00    -0.233 N 
ATOM     21  H32 UNL     1      17.011  10.247   9.038  1.00  0.00     0.174 HD
ATOM     22  H31 UNL     1      17.702  11.787   8.778  1.00  0.00     0.174 HD
ENDBRANCH  17  20
ENDBRANCH   9  10
ENDBRANCH   8   9
ENDBRANCH   1   8
BRANCH   7  23
HETATM   23  N12 UNL     1      20.045  15.846   7.352  1.00  0.00    -0.322 N 
ATOM     24 2H12 UNL     1      21.048  16.028   7.390  1.00  0.00     0.178 HD
ATOM     25 1H12 UNL     1      19.804  15.094   7.998  1.00  0.00     0.178 HD
ENDBRANCH   7  23
BRANCH   6  26
HETATM   26  N7  UNL     1      18.973  18.692   7.953  1.00  0.00    -0.124 N 
HETATM   27  N8  UNL     1      18.234  19.527   8.562  1.00  0.00    -0.224 N 
HETATM   28  C8  UNL     1      18.910  20.324   9.963  1.00  0.00     0.430 C 
ATOM     29  H8  UNL     1      17.284  19.723   8.246  1.00  0.00     0.193 HD
HETATM   30  O1  UNL     1      20.003  19.740   9.906  1.00  0.00    -0.227 OA
HETATM   31  N9  UNL     1      17.745  21.025  10.126  1.00  0.00    -0.271 NA
ATOM     32  H7  UNL     1      19.987  18.729   8.053  1.00  0.00     0.206 HD
BRANCH  31  33
HETATM   33  N10 UNL     1      16.753  21.654  10.312  1.00  0.00    -0.275 N 
ATOM     34 2H10 UNL     1      16.720  21.121   9.443  1.00  0.00     0.191 HD
ATOM     35 1H10 UNL     1      15.920  22.210  10.510  1.00  0.00     0.191 HD
ENDBRANCH  31  33
ENDBRANCH   6  26
TORSDOF 7
ENDMDL
