MODEL 1
REMARK VINA RESULT: -9.215720534      0.000      0.000
REMARK  10 active torsions:
REMARK  status: ('A' for Active; 'I' for Inactive)
REMARK    1  A    between atoms: N2_5  and  C3_6 
REMARK    2  A    between atoms: C3_6  and  N3_7 
REMARK    3  A    between atoms: N3_7  and  N4_8 
REMARK    4  A    between atoms: N3_7  and  C9_26 
REMARK    5  A    between atoms: N5_10  and  C4_12 
REMARK    6  A    between atoms: C7_18  and  N8_19 
REMARK    7  A    between atoms: C9_26  and  O2_27 
REMARK    8  A    between atoms: N10_29  and  O3_31 
REMARK    9  A    between atoms: C10_33  and  N11_34 
REMARK   10  A    between atoms: N12_37  and  N13_38 
ROOT
HETATM    1  C4  UNL     1      18.849  20.264   9.297  1.00  0.00     0.156 A 
HETATM    2  C5  UNL     1      17.598  20.825   9.197  1.00  0.00     0.163 A 
HETATM    3  C6  UNL     1      16.906  20.775   7.938  1.00  0.00     0.121 C 
HETATM    4  N6  UNL     1      16.325  20.744   6.918  1.00  0.00    -0.190 NA
HETATM    5  N7  UNL     1      17.021  21.421  10.280  1.00  0.00    -0.180 N 
ATOM      6  H7  UNL     1      16.092  21.835  10.195  1.00  0.00     0.185 HD
HETATM    7  C7  UNL     1      17.660  21.467  11.447  1.00  0.00     0.679 A 
HETATM    8  N9  UNL     1      18.883  20.927  11.573  1.00  0.00    -0.154 N 
ATOM      9  H9  UNL     1      19.363  20.970  12.471  1.00  0.00     0.187 HD
HETATM   10  C8  UNL     1      19.489  20.326  10.516  1.00  0.00     0.290 A 
HETATM   11  O1  UNL     1      20.625  19.846  10.704  1.00  0.00    -0.265 OA
ENDROOT
BRANCH   1  12
HETATM   12  N5  UNL     1      19.433  19.656   8.184  1.00  0.00    -0.278 N 
HETATM   13  N4  UNL     1      19.936  18.489   8.182  1.00  0.00    -0.235 N 
ATOM     14  H4  UNL     1      19.940  17.912   9.024  1.00  0.00     0.208 HD
ATOM     15  H5  UNL     1      19.457  20.185   7.312  1.00  0.00     0.189 HD
BRANCH  13  16
HETATM   16  N3  UNL     1      20.492  18.019   6.960  1.00  0.00    -0.220 N 
BRANCH  16  17
HETATM   17  C3  UNL     1      19.660  17.961   5.803  1.00  0.00     0.322 C 
BRANCH  17  18
HETATM   18  N2  UNL     1      19.126  16.634   5.593  1.00  0.00    -0.101 N 
HETATM   19  N1  UNL     1      18.649  15.789   6.521  1.00  0.00    -0.269 N 
HETATM   20  C2  UNL     1      18.243  14.656   5.925  1.00  0.00     0.132 A 
ATOM     21  H1  UNL     1      18.603  15.978   7.522  1.00  0.00     0.189 HD
HETATM   22  C1  UNL     1      17.646  13.436   6.545  1.00  0.00     0.093 C 
HETATM   23  N12 UNL     1      18.453  14.756   4.599  1.00  0.00    -0.078 N 
HETATM   24  C10 UNL     1      19.000  15.988   4.421  1.00  0.00     0.716 A 
BRANCH  23  25
HETATM   25  N13 UNL     1      18.168  13.797   3.625  1.00  0.00    -0.323 N 
ATOM     26 2H13 UNL     1      17.310  13.689   3.084  1.00  0.00     0.178 HD
ATOM     27 1H13 UNL     1      18.780  13.049   3.299  1.00  0.00     0.178 HD
ENDBRANCH  23  25
BRANCH  24  28
HETATM   28  N11 UNL     1      19.339  16.417   3.241  1.00  0.00    -0.231 N 
ATOM     29 2H11 UNL     1      18.721  17.016   2.694  1.00  0.00     0.174 HD
ATOM     30 1H11 UNL     1      20.203  16.222   2.735  1.00  0.00     0.174 HD
ENDBRANCH  24  28
ENDBRANCH  17  18
ENDBRANCH  16  17
BRANCH  16  31
HETATM   31  C9  UNL     1      21.848  17.637   6.921  1.00  0.00     0.261 C 
HETATM   32  N10 UNL     1      22.255  16.515   7.442  1.00  0.00    -0.231 N 
ATOM     33  H10 UNL     1      23.241  16.257   7.402  1.00  0.00     0.198 HD
BRANCH  31  34
HETATM   34  O2  UNL     1      22.816  18.416   6.336  1.00  0.00    -0.330 OA
ATOM     35  H2  UNL     1      22.971  18.418   5.399  1.00  0.00     0.221 HD
ENDBRANCH  31  34
BRANCH  32  36
HETATM   36  O3  UNL     1      21.346  15.683   8.043  1.00  0.00    -0.287 OA
ATOM     37  H3  UNL     1      21.655  14.991   8.616  1.00  0.00     0.244 HD
ENDBRANCH  32  36
ENDBRANCH  16  31
ENDBRANCH  13  16
ENDBRANCH   1  12
BRANCH   7  38
HETATM   38  N8  UNL     1      17.090  22.037  12.456  1.00  0.00    -0.234 N 
ATOM     39  H82 UNL     1      16.273  22.633  12.319  1.00  0.00     0.174 HD
ATOM     40  H81 UNL     1      17.465  21.883  13.392  1.00  0.00     0.174 HD
ENDBRANCH   7  38
TORSDOF 10
ENDMDL
MODEL 2
REMARK VINA RESULT: -9.136807313      4.681      8.236
REMARK  10 active torsions:
REMARK  status: ('A' for Active; 'I' for Inactive)
REMARK    1  A    between atoms: N2_5  and  C3_6 
REMARK    2  A    between atoms: C3_6  and  N3_7 
REMARK    3  A    between atoms: N3_7  and  N4_8 
REMARK    4  A    between atoms: N3_7  and  C9_26 
REMARK    5  A    between atoms: N5_10  and  C4_12 
REMARK    6  A    between atoms: C7_18  and  N8_19 
REMARK    7  A    between atoms: C9_26  and  O2_27 
REMARK    8  A    between atoms: N10_29  and  O3_31 
REMARK    9  A    between atoms: C10_33  and  N11_34 
REMARK   10  A    between atoms: N12_37  and  N13_38 
ROOT
HETATM    1  C4  UNL     1      16.923  11.089   6.539  1.00  0.00     0.156 A 
HETATM    2  C5  UNL     1      17.420  10.985   7.817  1.00  0.00     0.163 A 
HETATM    3  C6  UNL     1      18.378  11.953   8.277  1.00  0.00     0.121 C 
HETATM    4  N6  UNL     1      19.161  12.734   8.672  1.00  0.00    -0.190 NA
HETATM    5  N7  UNL     1      17.008   9.975   8.637  1.00  0.00    -0.180 N 
ATOM      6  H7  UNL     1      17.384   9.907   9.583  1.00  0.00     0.185 HD
HETATM    7  C7  UNL     1      16.121   9.080   8.212  1.00  0.00     0.679 A 
HETATM    8  N9  UNL     1      15.619   9.157   6.968  1.00  0.00    -0.154 N 
ATOM      9  H9  UNL     1      14.941   8.464   6.654  1.00  0.00     0.187 HD
HETATM   10  C8  UNL     1      16.006  10.149   6.124  1.00  0.00     0.290 A 
HETATM   11  O1  UNL     1      15.500  10.160   4.983  1.00  0.00    -0.265 OA
ENDROOT
BRANCH   1  12
HETATM   12  N5  UNL     1      17.350  12.126   5.706  1.00  0.00    -0.278 N 
HETATM   13  N4  UNL     1      16.725  13.220   5.540  1.00  0.00    -0.235 N 
ATOM     14  H4  UNL     1      15.847  13.408   6.024  1.00  0.00     0.208 HD
ATOM     15  H5  UNL     1      18.224  11.995   5.196  1.00  0.00     0.189 HD
BRANCH  13  16
HETATM   16  N3  UNL     1      17.300  14.173   4.654  1.00  0.00    -0.220 N 
BRANCH  16  17
HETATM   17  C3  UNL     1      17.299  15.549   5.027  1.00  0.00     0.322 C 
BRANCH  17  18
HETATM   18  N2  UNL     1      18.532  15.928   5.680  1.00  0.00    -0.101 N 
HETATM   19  N1  UNL     1      19.194  15.251   6.631  1.00  0.00    -0.269 N 
HETATM   20  C2  UNL     1      20.299  15.932   6.976  1.00  0.00     0.132 A 
ATOM     21  H1  UNL     1      18.903  14.358   7.030  1.00  0.00     0.189 HD
HETATM   22  C1  UNL     1      21.339  15.577   7.986  1.00  0.00     0.093 C 
HETATM   23  N12 UNL     1      20.364  17.063   6.248  1.00  0.00    -0.078 N 
HETATM   24  C10 UNL     1      19.260  17.035   5.455  1.00  0.00     0.716 A 
BRANCH  23  25
HETATM   25  N13 UNL     1      21.355  18.045   6.303  1.00  0.00    -0.323 N 
ATOM     26 2H13 UNL     1      21.423  18.830   6.951  1.00  0.00     0.178 HD
ATOM     27 1H13 UNL     1      22.172  18.132   5.699  1.00  0.00     0.178 HD
ENDBRANCH  23  25
BRANCH  24  28
HETATM   28  N11 UNL     1      19.001  17.995   4.617  1.00  0.00    -0.231 N 
ATOM     29 2H11 UNL     1      18.568  17.810   3.712  1.00  0.00     0.174 HD
ATOM     30 1H11 UNL     1      19.188  18.991   4.737  1.00  0.00     0.174 HD
ENDBRANCH  24  28
ENDBRANCH  17  18
ENDBRANCH  16  17
BRANCH  16  31
HETATM   31  C9  UNL     1      17.866  13.732   3.440  1.00  0.00     0.261 C 
HETATM   32  N10 UNL     1      17.231  12.913   2.650  1.00  0.00    -0.231 N 
ATOM     33  H10 UNL     1      17.658  12.607   1.776  1.00  0.00     0.198 HD
BRANCH  31  34
HETATM   34  O2  UNL     1      19.110  14.133   3.019  1.00  0.00    -0.330 OA
ATOM     35  H2  UNL     1      19.748  13.525   2.663  1.00  0.00     0.221 HD
ENDBRANCH  31  34
BRANCH  32  36
HETATM   36  O3  UNL     1      15.983  12.469   3.004  1.00  0.00    -0.287 OA
ATOM     37  H3  UNL     1      15.805  11.535   3.009  1.00  0.00     0.244 HD
ENDBRANCH  32  36
ENDBRANCH  16  31
ENDBRANCH  13  16
ENDBRANCH   1  12
BRANCH   7  38
HETATM   38  N8  UNL     1      15.748   8.135   9.009  1.00  0.00    -0.234 N 
ATOM     39  H82 UNL     1      16.351   7.839   9.778  1.00  0.00     0.174 HD
ATOM     40  H81 UNL     1      14.842   7.688   8.863  1.00  0.00     0.174 HD
ENDBRANCH   7  38
TORSDOF 10
ENDMDL
MODEL 3
REMARK VINA RESULT: -9.098791911      1.478      1.931
REMARK  10 active torsions:
REMARK  status: ('A' for Active; 'I' for Inactive)
REMARK    1  A    between atoms: N2_5  and  C3_6 
REMARK    2  A    between atoms: C3_6  and  N3_7 
REMARK    3  A    between atoms: N3_7  and  N4_8 
REMARK    4  A    between atoms: N3_7  and  C9_26 
REMARK    5  A    between atoms: N5_10  and  C4_12 
REMARK    6  A    between atoms: C7_18  and  N8_19 
REMARK    7  A    between atoms: C9_26  and  O2_27 
REMARK    8  A    between atoms: N10_29  and  O3_31 
REMARK    9  A    between atoms: C10_33  and  N11_34 
REMARK   10  A    between atoms: N12_37  and  N13_38 
ROOT
HETATM    1  C4  UNL     1      18.660  20.638   9.534  1.00  0.00     0.156 A 
HETATM    2  C5  UNL     1      17.688  21.609   9.479  1.00  0.00     0.163 A 
HETATM    3  C6  UNL     1      16.731  21.584   8.408  1.00  0.00     0.121 C 
HETATM    4  N6  UNL     1      15.940  21.579   7.540  1.00  0.00    -0.190 NA
HETATM    5  N7  UNL     1      17.634  22.584  10.432  1.00  0.00    -0.180 N 
ATOM      6  H7  UNL     1      16.909  23.301  10.382  1.00  0.00     0.185 HD
HETATM    7  C7  UNL     1      18.519  22.609  11.425  1.00  0.00     0.679 A 
HETATM    8  N9  UNL     1      19.479  21.673  11.503  1.00  0.00    -0.154 N 
ATOM      9  H9  UNL     1      20.152  21.703  12.268  1.00  0.00     0.187 HD
HETATM   10  C8  UNL     1      19.564  20.687  10.572  1.00  0.00     0.290 A 
HETATM   11  O1  UNL     1      20.481  19.851  10.706  1.00  0.00    -0.265 OA
ENDROOT
BRANCH   1  12
HETATM   12  N5  UNL     1      18.709  19.644   8.555  1.00  0.00    -0.278 N 
HETATM   13  N4  UNL     1      19.388  19.722   7.482  1.00  0.00    -0.235 N 
ATOM     14  H4  UNL     1      19.954  20.544   7.272  1.00  0.00     0.208 HD
ATOM     15  H5  UNL     1      18.163  18.796   8.710  1.00  0.00     0.189 HD
BRANCH  13  16
HETATM   16  N3  UNL     1      19.326  18.617   6.589  1.00  0.00    -0.220 N 
BRANCH  16  17
HETATM   17  C3  UNL     1      18.062  18.239   6.047  1.00  0.00     0.322 C 
BRANCH  17  18
HETATM   18  N2  UNL     1      17.921  16.803   5.969  1.00  0.00    -0.101 N 
HETATM   19  N1  UNL     1      17.747  16.058   4.866  1.00  0.00    -0.269 N 
HETATM   20  C2  UNL     1      17.664  14.763   5.211  1.00  0.00     0.132 A 
ATOM     21  H1  UNL     1      17.686  16.419   3.914  1.00  0.00     0.189 HD
HETATM   22  C1  UNL     1      17.470  13.571   4.332  1.00  0.00     0.093 C 
HETATM   23  N12 UNL     1      17.785  14.654   6.548  1.00  0.00    -0.078 N 
HETATM   24  C10 UNL     1      17.943  15.930   6.991  1.00  0.00     0.716 A 
BRANCH  23  25
HETATM   25  N13 UNL     1      17.753  13.482   7.306  1.00  0.00    -0.323 N 
ATOM     26 2H13 UNL     1      17.003  12.794   7.363  1.00  0.00     0.178 HD
ATOM     27 1H13 UNL     1      18.482  13.128   7.925  1.00  0.00     0.178 HD
ENDBRANCH  23  25
BRANCH  24  28
HETATM   28  N11 UNL     1      18.083  16.197   8.256  1.00  0.00    -0.231 N 
ATOM     29 2H11 UNL     1      18.678  16.962   8.576  1.00  0.00     0.174 HD
ATOM     30 1H11 UNL     1      17.655  15.711   9.044  1.00  0.00     0.174 HD
ENDBRANCH  24  28
ENDBRANCH  17  18
ENDBRANCH  16  17
BRANCH  16  31
HETATM   31  C9  UNL     1      20.513  17.934   6.254  1.00  0.00     0.261 C 
HETATM   32  N10 UNL     1      21.280  17.412   7.168  1.00  0.00    -0.231 N 
ATOM     33  H10 UNL     1      22.135  16.922   6.903  1.00  0.00     0.198 HD
BRANCH  31  34
HETATM   34  O2  UNL     1      20.931  17.779   4.955  1.00  0.00    -0.330 OA
ATOM     35  H2  UNL     1      21.614  17.165   4.709  1.00  0.00     0.221 HD
ENDBRANCH  31  34
BRANCH  32  36
HETATM   36  O3  UNL     1      20.928  17.526   8.488  1.00  0.00    -0.287 OA
ATOM     37  H3  UNL     1      20.599  16.765   8.950  1.00  0.00     0.244 HD
ENDBRANCH  32  36
ENDBRANCH  16  31
ENDBRANCH  13  16
ENDBRANCH   1  12
BRANCH   7  38
HETATM   38  N8  UNL     1      18.444  23.543  12.314  1.00  0.00    -0.234 N 
ATOM     39  H82 UNL     1      17.631  23.609  12.927  1.00  0.00     0.174 HD
ATOM     40  H81 UNL     1      19.208  24.214  12.396  1.00  0.00     0.174 HD
ENDBRANCH   7  38
TORSDOF 10
ENDMDL
MODEL 4
REMARK VINA RESULT: -9.089312673      1.912      2.624
REMARK  10 active torsions:
REMARK  status: ('A' for Active; 'I' for Inactive)
REMARK    1  A    between atoms: N2_5  and  C3_6 
REMARK    2  A    between atoms: C3_6  and  N3_7 
REMARK    3  A    between atoms: N3_7  and  N4_8 
REMARK    4  A    between atoms: N3_7  and  C9_26 
REMARK    5  A    between atoms: N5_10  and  C4_12 
REMARK    6  A    between atoms: C7_18  and  N8_19 
REMARK    7  A    between atoms: C9_26  and  O2_27 
REMARK    8  A    between atoms: N10_29  and  O3_31 
REMARK    9  A    between atoms: C10_33  and  N11_34 
REMARK   10  A    between atoms: N12_37  and  N13_38 
ROOT
HETATM    1  C4  UNL     1      18.704  20.834   9.665  1.00  0.00     0.156 A 
HETATM    2  C5  UNL     1      17.632  21.689   9.771  1.00  0.00     0.163 A 
HETATM    3  C6  UNL     1      16.707  21.793   8.677  1.00  0.00     0.121 C 
HETATM    4  N6  UNL     1      15.940  21.892   7.793  1.00  0.00    -0.190 NA
HETATM    5  N7  UNL     1      17.450  22.428  10.904  1.00  0.00    -0.180 N 
ATOM      6  H7  UNL     1      16.652  23.060  10.973  1.00  0.00     0.185 HD
HETATM    7  C7  UNL     1      18.305  22.331  11.919  1.00  0.00     0.679 A 
HETATM    8  N9  UNL     1      19.361  21.505  11.841  1.00  0.00    -0.154 N 
ATOM      9  H9  UNL     1      20.009  21.441  12.625  1.00  0.00     0.187 HD
HETATM   10  C8  UNL     1      19.574  20.753  10.730  1.00  0.00     0.290 A 
HETATM   11  O1  UNL     1      20.574  20.007  10.726  1.00  0.00    -0.265 OA
ENDROOT
BRANCH   1  12
HETATM   12  N5  UNL     1      18.883  20.081   8.503  1.00  0.00    -0.278 N 
HETATM   13  N4  UNL     1      18.792  18.814   8.445  1.00  0.00    -0.235 N 
ATOM     14  H4  UNL     1      18.575  18.259   9.273  1.00  0.00     0.208 HD
ATOM     15  H5  UNL     1      19.102  20.581   7.641  1.00  0.00     0.189 HD
BRANCH  13  16
HETATM   16  N3  UNL     1      19.005  18.202   7.178  1.00  0.00    -0.220 N 
BRANCH  16  17
HETATM   17  C3  UNL     1      19.815  17.030   7.108  1.00  0.00     0.322 C 
BRANCH  17  18
HETATM   18  N2  UNL     1      19.161  15.971   6.371  1.00  0.00    -0.101 N 
HETATM   19  N1  UNL     1      19.277  15.693   5.064  1.00  0.00    -0.269 N 
HETATM   20  C2  UNL     1      18.513  14.630   4.765  1.00  0.00     0.132 A 
ATOM     21  H1  UNL     1      19.855  16.209   4.400  1.00  0.00     0.189 HD
HETATM   22  C1  UNL     1      18.319  13.959   3.445  1.00  0.00     0.093 C 
HETATM   23  N12 UNL     1      17.891  14.206   5.881  1.00  0.00    -0.078 N 
HETATM   24  C10 UNL     1      18.309  15.053   6.859  1.00  0.00     0.716 A 
BRANCH  23  25
HETATM   25  N13 UNL     1      17.009  13.130   5.999  1.00  0.00    -0.323 N 
ATOM     26 2H13 UNL     1      16.095  13.019   5.560  1.00  0.00     0.178 HD
ATOM     27 1H13 UNL     1      17.143  12.280   6.546  1.00  0.00     0.178 HD
ENDBRANCH  23  25
BRANCH  24  28
HETATM   28  N11 UNL     1      17.891  14.934   8.085  1.00  0.00    -0.231 N 
ATOM     29 2H11 UNL     1      18.541  14.787   8.857  1.00  0.00     0.174 HD
ATOM     30 1H11 UNL     1      16.927  14.961   8.417  1.00  0.00     0.174 HD
ENDBRANCH  24  28
ENDBRANCH  17  18
ENDBRANCH  16  17
BRANCH  16  31
HETATM   31  C9  UNL     1      18.402  18.760   6.033  1.00  0.00     0.261 C 
HETATM   32  N10 UNL     1      17.134  19.056   6.006  1.00  0.00    -0.231 N 
ATOM     33  H10 UNL     1      16.718  19.459   5.166  1.00  0.00     0.198 HD
BRANCH  31  34
HETATM   34  O2  UNL     1      19.108  19.024   4.884  1.00  0.00    -0.330 OA
ATOM     35  H2  UNL     1      18.691  19.345   4.093  1.00  0.00     0.221 HD
ENDBRANCH  31  34
BRANCH  32  36
HETATM   36  O3  UNL     1      16.364  18.821   7.115  1.00  0.00    -0.287 OA
ATOM     37  H3  UNL     1      15.458  18.557   7.007  1.00  0.00     0.244 HD
ENDBRANCH  32  36
ENDBRANCH  16  31
ENDBRANCH  13  16
ENDBRANCH   1  12
BRANCH   7  38
HETATM   38  N8  UNL     1      18.108  23.043  12.979  1.00  0.00    -0.234 N 
ATOM     39  H82 UNL     1      17.729  23.987  12.904  1.00  0.00     0.174 HD
ATOM     40  H81 UNL     1      18.335  22.648  13.892  1.00  0.00     0.174 HD
ENDBRANCH   7  38
TORSDOF 10
ENDMDL
MODEL 5
REMARK VINA RESULT: -9.028937070      3.876      8.281
REMARK  10 active torsions:
REMARK  status: ('A' for Active; 'I' for Inactive)
REMARK    1  A    between atoms: N2_5  and  C3_6 
REMARK    2  A    between atoms: C3_6  and  N3_7 
REMARK    3  A    between atoms: N3_7  and  N4_8 
REMARK    4  A    between atoms: N3_7  and  C9_26 
REMARK    5  A    between atoms: N5_10  and  C4_12 
REMARK    6  A    between atoms: C7_18  and  N8_19 
REMARK    7  A    between atoms: C9_26  and  O2_27 
REMARK    8  A    between atoms: N10_29  and  O3_31 
REMARK    9  A    between atoms: C10_33  and  N11_34 
REMARK   10  A    between atoms: N12_37  and  N13_38 
ROOT
HETATM    1  C4  UNL     1      16.919  11.112   6.546  1.00  0.00     0.156 A 
HETATM    2  C5  UNL     1      16.146  10.080   6.069  1.00  0.00     0.163 A 
HETATM    3  C6  UNL     1      15.732  10.093   4.692  1.00  0.00     0.121 C 
HETATM    4  N6  UNL     1      15.385  10.086   3.571  1.00  0.00    -0.190 NA
HETATM    5  N7  UNL     1      15.777   9.057   6.893  1.00  0.00    -0.180 N 
ATOM      6  H7  UNL     1      15.202   8.297   6.529  1.00  0.00     0.185 HD
HETATM    7  C7  UNL     1      16.160   9.044   8.167  1.00  0.00     0.679 A 
HETATM    8  N9  UNL     1      16.915  10.039   8.660  1.00  0.00    -0.154 N 
ATOM      9  H9  UNL     1      17.201  10.017   9.638  1.00  0.00     0.187 HD
HETATM   10  C8  UNL     1      17.302  11.074   7.869  1.00  0.00     0.290 A 
HETATM   11  O1  UNL     1      18.003  11.964   8.393  1.00  0.00    -0.265 OA
ENDROOT
BRANCH   1  12
HETATM   12  N5  UNL     1      17.293  12.155   5.697  1.00  0.00    -0.278 N 
HETATM   13  N4  UNL     1      17.046  13.384   5.914  1.00  0.00    -0.235 N 
ATOM     14  H4  UNL     1      16.544  13.684   6.749  1.00  0.00     0.208 HD
ATOM     15  H5  UNL     1      17.799  11.916   4.844  1.00  0.00     0.189 HD
BRANCH  13  16
HETATM   16  N3  UNL     1      17.498  14.322   4.944  1.00  0.00    -0.220 N 
BRANCH  16  17
HETATM   17  C3  UNL     1      17.264  15.710   5.169  1.00  0.00     0.322 C 
BRANCH  17  18
HETATM   18  N2  UNL     1      18.259  16.286   6.045  1.00  0.00    -0.101 N 
HETATM   19  N1  UNL     1      19.479  15.800   6.326  1.00  0.00    -0.269 N 
HETATM   20  C2  UNL     1      20.102  16.629   7.179  1.00  0.00     0.132 A 
ATOM     21  H1  UNL     1      19.871  14.937   5.950  1.00  0.00     0.189 HD
HETATM   22  C1  UNL     1      21.467  16.507   7.772  1.00  0.00     0.093 C 
HETATM   23  N12 UNL     1      19.290  17.665   7.461  1.00  0.00    -0.078 N 
HETATM   24  C10 UNL     1      18.157  17.427   6.747  1.00  0.00     0.716 A 
BRANCH  23  25
HETATM   25  N13 UNL     1      19.559  18.743   8.306  1.00  0.00    -0.323 N 
ATOM     26 2H13 UNL     1      19.936  19.657   8.053  1.00  0.00     0.178 HD
ATOM     27 1H13 UNL     1      19.420  18.786   9.315  1.00  0.00     0.178 HD
ENDBRANCH  23  25
BRANCH  24  28
HETATM   28  N11 UNL     1      17.143  18.240   6.792  1.00  0.00    -0.231 N 
ATOM     29 2H11 UNL     1      16.280  18.043   6.286  1.00  0.00     0.174 HD
ATOM     30 1H11 UNL     1      17.078  19.124   7.297  1.00  0.00     0.174 HD
ENDBRANCH  24  28
ENDBRANCH  17  18
ENDBRANCH  16  17
BRANCH  16  31
HETATM   31  C9  UNL     1      18.173  13.857   3.798  1.00  0.00     0.261 C 
HETATM   32  N10 UNL     1      17.551  13.204   2.858  1.00  0.00    -0.231 N 
ATOM     33  H10 UNL     1      18.060  12.876   2.036  1.00  0.00     0.198 HD
BRANCH  31  34
HETATM   34  O2  UNL     1      19.517  14.061   3.602  1.00  0.00    -0.330 OA
ATOM     35  H2  UNL     1      19.941  13.898   2.767  1.00  0.00     0.221 HD
ENDBRANCH  31  34
BRANCH  32  36
HETATM   36  O3  UNL     1      16.208  12.961   2.983  1.00  0.00    -0.287 OA
ATOM     37  H3  UNL     1      15.588  13.646   2.763  1.00  0.00     0.244 HD
ENDBRANCH  32  36
ENDBRANCH  16  31
ENDBRANCH  13  16
ENDBRANCH   1  12
BRANCH   7  38
HETATM   38  N8  UNL     1      15.796   8.063   8.924  1.00  0.00    -0.234 N 
ATOM     39  H82 UNL     1      14.807   7.893   9.110  1.00  0.00     0.174 HD
ATOM     40  H81 UNL     1      16.509   7.458   9.332  1.00  0.00     0.174 HD
ENDBRANCH   7  38
TORSDOF 10
ENDMDL
