MODEL 1
REMARK VINA RESULT: -9.592916018      0.000      0.000
REMARK  8 active torsions:
REMARK  status: ('A' for Active; 'I' for Inactive)
REMARK    1  A    between atoms: O1_2  and  N1_3 
REMARK    2  A    between atoms: N1_3  and  C2_4 
REMARK    3  A    between atoms: N1_3  and  C8_26 
REMARK    4  A    between atoms: C4_10  and  N4_11 
REMARK    5  A    between atoms: N6_17  and  O2_19 
REMARK    6  A    between atoms: O2_19  and  C6_20 
REMARK    7  A    between atoms: C9_31  and  N11_32 
REMARK    8  A    between atoms: N11_32  and  O4_34 
ROOT
HETATM    1  C2  UNL     1      18.484  12.818   7.016  1.00  0.00     0.754 A 
HETATM    2  N2  UNL     1      18.590  11.979   8.051  1.00  0.00    -0.015 N 
ATOM      3  H2  UNL     1      19.269  12.046   8.809  1.00  0.00     0.203 HD
HETATM    4  C3  UNL     1      17.649  11.035   7.919  1.00  0.00     0.748 A 
HETATM    5  N3  UNL     1      17.312   9.951   8.686  1.00  0.00    -0.019 N 
ATOM      6  H3  UNL     1      17.822   9.737   9.543  1.00  0.00     0.203 HD
HETATM    7  C4  UNL     1      16.304   9.189   8.285  1.00  0.00     0.705 A 
HETATM    8  N5  UNL     1      15.625   9.469   7.153  1.00  0.00    -0.018 N 
ATOM      9  H5  UNL     1      14.855   8.863   6.873  1.00  0.00     0.203 HD
HETATM   10  C5  UNL     1      15.938  10.529   6.382  1.00  0.00     0.753 A 
HETATM   11  N6  UNL     1      15.291  10.779   5.309  1.00  0.00    -0.085 N 
ATOM     12  H6  UNL     1      14.530  10.147   5.058  1.00  0.00     0.214 HD
HETATM   13  N7  UNL     1      16.967  11.300   6.800  1.00  0.00     0.108 N 
HETATM   14  N8  UNL     1      17.479  12.383   6.258  1.00  0.00    -0.092 N 
ATOM     15  H8  UNL     1      17.158  12.820   5.395  1.00  0.00     0.207 HD
ENDROOT
BRANCH   1  16
HETATM   16  N1  UNL     1      19.337  13.944   6.855  1.00  0.00     0.132 N 
BRANCH  16  17
HETATM   17  O1  UNL     1      20.670  13.857   6.867  1.00  0.00    -0.251 OA
HETATM   18  C1  UNL     1      21.296  14.834   7.630  1.00  0.00     0.239 C 
ENDBRANCH  16  17
BRANCH  16  19
HETATM   19  C8  UNL     1      18.718  15.207   6.693  1.00  0.00     0.753 A 
HETATM   20  N9  UNL     1      17.889  15.832   7.586  1.00  0.00    -0.114 N 
HETATM   21  N10 UNL     1      17.502  16.994   7.095  1.00  0.00    -0.115 N 
ATOM     22  H9  UNL     1      17.613  15.456   8.493  1.00  0.00     0.206 HD
HETATM   23  C9  UNL     1      18.059  17.166   5.880  1.00  0.00     0.731 A 
ATOM     24  H10 UNL     1      16.882  17.657   7.560  1.00  0.00     0.206 HD
HETATM   25  N12 UNL     1      18.796  16.065   5.654  1.00  0.00    -0.015 N 
ATOM     26  H12 UNL     1      19.343  15.899   4.809  1.00  0.00     0.203 HD
BRANCH  23  27
HETATM   27  N11 UNL     1      17.878  18.212   5.128  1.00  0.00    -0.097 N 
ATOM     28  H11 UNL     1      18.115  18.149   4.138  1.00  0.00     0.213 HD
BRANCH  27  29
HETATM   29  O4  UNL     1      17.384  19.388   5.606  1.00  0.00    -0.276 OA
ATOM     30  H4  UNL     1      17.325  20.176   5.077  1.00  0.00     0.245 HD
ENDBRANCH  27  29
ENDBRANCH  23  27
ENDBRANCH  16  19
ENDBRANCH   1  16
BRANCH   7  31
HETATM   31  N4  UNL     1      15.953   8.149   8.988  1.00  0.00    -0.234 N 
ATOM     32  H42 UNL     1      16.101   8.163   9.997  1.00  0.00     0.174 HD
ATOM     33  H41 UNL     1      15.538   7.338   8.528  1.00  0.00     0.174 HD
ENDBRANCH   7  31
BRANCH  11  34
HETATM   34  O2  UNL     1      15.542  11.832   4.471  1.00  0.00    -0.185 OA
BRANCH  34  35
HETATM   35  C6  UNL     1      15.897  11.542   3.160  1.00  0.00     0.278 C 
HETATM   36  C7  UNL     1      16.122  10.131   2.704  1.00  0.00     0.128 C 
HETATM   37  O3  UNL     1      16.054  12.445   2.269  1.00  0.00    -0.264 OA
ENDBRANCH  34  35
ENDBRANCH  11  34
TORSDOF 8
ENDMDL
MODEL 2
REMARK VINA RESULT: -9.561632642      2.066      3.762
REMARK  8 active torsions:
REMARK  status: ('A' for Active; 'I' for Inactive)
REMARK    1  A    between atoms: O1_2  and  N1_3 
REMARK    2  A    between atoms: N1_3  and  C2_4 
REMARK    3  A    between atoms: N1_3  and  C8_26 
REMARK    4  A    between atoms: C4_10  and  N4_11 
REMARK    5  A    between atoms: N6_17  and  O2_19 
REMARK    6  A    between atoms: O2_19  and  C6_20 
REMARK    7  A    between atoms: C9_31  and  N11_32 
REMARK    8  A    between atoms: N11_32  and  O4_34 
ROOT
HETATM    1  C2  UNL     1      18.461  14.151   5.318  1.00  0.00     0.754 A 
HETATM    2  N2  UNL     1      18.266  13.914   4.018  1.00  0.00    -0.015 N 
ATOM      3  H2  UNL     1      18.675  14.441   3.246  1.00  0.00     0.203 HD
HETATM    4  C3  UNL     1      17.442  12.865   3.905  1.00  0.00     0.748 A 
HETATM    5  N3  UNL     1      16.924  12.206   2.821  1.00  0.00    -0.019 N 
ATOM      6  H3  UNL     1      17.151  12.502   1.871  1.00  0.00     0.203 HD
HETATM    7  C4  UNL     1      16.121  11.175   3.039  1.00  0.00     0.705 A 
HETATM    8  N5  UNL     1      15.819  10.779   4.293  1.00  0.00    -0.018 N 
ATOM      9  H5  UNL     1      15.198   9.980   4.426  1.00  0.00     0.203 HD
HETATM   10  C5  UNL     1      16.315  11.410   5.375  1.00  0.00     0.753 A 
HETATM   11  N6  UNL     1      16.015  11.028   6.557  1.00  0.00    -0.085 N 
ATOM     12  H6  UNL     1      15.388  10.229   6.650  1.00  0.00     0.214 HD
HETATM   13  N7  UNL     1      17.134  12.461   5.141  1.00  0.00     0.108 N 
HETATM   14  N8  UNL     1      17.755  13.245   5.993  1.00  0.00    -0.092 N 
ATOM     15  H8  UNL     1      17.706  13.172   7.009  1.00  0.00     0.207 HD
ENDROOT
BRANCH   1  16
HETATM   16  N1  UNL     1      19.297  15.202   5.787  1.00  0.00     0.132 N 
BRANCH  16  17
HETATM   17  O1  UNL     1      20.465  14.988   6.397  1.00  0.00    -0.251 OA
HETATM   18  C1  UNL     1      20.370  14.865   7.778  1.00  0.00     0.239 C 
ENDBRANCH  16  17
BRANCH  16  19
HETATM   19  C8  UNL     1      18.834  16.527   5.601  1.00  0.00     0.753 A 
HETATM   20  N9  UNL     1      19.143  17.363   4.561  1.00  0.00    -0.114 N 
HETATM   21  N10 UNL     1      18.529  18.520   4.724  1.00  0.00    -0.115 N 
ATOM     22  H9  UNL     1      19.755  17.127   3.780  1.00  0.00     0.206 HD
HETATM   23  C9  UNL     1      17.807  18.479   5.861  1.00  0.00     0.731 A 
ATOM     24  H10 UNL     1      18.591  19.317   4.090  1.00  0.00     0.206 HD
HETATM   25  N12 UNL     1      18.007  17.256   6.380  1.00  0.00    -0.015 N 
ATOM     26  H12 UNL     1      17.589  16.922   7.248  1.00  0.00     0.203 HD
BRANCH  23  27
HETATM   27  N11 UNL     1      17.083  19.464   6.308  1.00  0.00    -0.097 N 
ATOM     28  H11 UNL     1      17.320  20.413   6.022  1.00  0.00     0.213 HD
BRANCH  27  29
HETATM   29  O4  UNL     1      16.023  19.280   7.143  1.00  0.00    -0.276 OA
ATOM     30  H4  UNL     1      15.125  19.448   6.881  1.00  0.00     0.245 HD
ENDBRANCH  27  29
ENDBRANCH  23  27
ENDBRANCH  16  19
ENDBRANCH   1  16
BRANCH   7  31
HETATM   31  N4  UNL     1      15.609  10.523   2.032  1.00  0.00    -0.234 N 
ATOM     32  H42 UNL     1      15.498   9.511   2.106  1.00  0.00     0.174 HD
ATOM     33  H41 UNL     1      15.327  11.024   1.189  1.00  0.00     0.174 HD
ENDBRANCH   7  31
BRANCH  11  34
HETATM   34  O2  UNL     1      16.475  11.611   7.707  1.00  0.00    -0.185 OA
BRANCH  34  35
HETATM   35  C6  UNL     1      17.682  11.157   8.222  1.00  0.00     0.278 C 
HETATM   36  C7  UNL     1      17.982   9.692   8.338  1.00  0.00     0.128 C 
HETATM   37  O3  UNL     1      18.604  11.946   8.625  1.00  0.00    -0.264 OA
ENDBRANCH  34  35
ENDBRANCH  11  34
TORSDOF 8
ENDMDL
MODEL 3
REMARK VINA RESULT: -9.255325432      2.262      3.803
REMARK  8 active torsions:
REMARK  status: ('A' for Active; 'I' for Inactive)
REMARK    1  A    between atoms: O1_2  and  N1_3 
REMARK    2  A    between atoms: N1_3  and  C2_4 
REMARK    3  A    between atoms: N1_3  and  C8_26 
REMARK    4  A    between atoms: C4_10  and  N4_11 
REMARK    5  A    between atoms: N6_17  and  O2_19 
REMARK    6  A    between atoms: O2_19  and  C6_20 
REMARK    7  A    between atoms: C9_31  and  N11_32 
REMARK    8  A    between atoms: N11_32  and  O4_34 
ROOT
HETATM    1  C2  UNL     1      17.344  13.243   6.139  1.00  0.00     0.754 A 
HETATM    2  N2  UNL     1      17.449  13.269   4.807  1.00  0.00    -0.015 N 
ATOM      3  H2  UNL     1      17.882  14.008   4.255  1.00  0.00     0.203 HD
HETATM    4  C3  UNL     1      16.885  12.154   4.324  1.00  0.00     0.748 A 
HETATM    5  N3  UNL     1      16.722  11.676   3.051  1.00  0.00    -0.019 N 
ATOM      6  H3  UNL     1      17.060  12.203   2.246  1.00  0.00     0.203 HD
HETATM    7  C4  UNL     1      16.113  10.509   2.893  1.00  0.00     0.705 A 
HETATM    8  N5  UNL     1      15.664   9.807   3.955  1.00  0.00    -0.018 N 
ATOM      9  H5  UNL     1      15.200   8.912   3.798  1.00  0.00     0.203 HD
HETATM   10  C5  UNL     1      15.812  10.256   5.216  1.00  0.00     0.753 A 
HETATM   11  N6  UNL     1      15.377   9.583   6.212  1.00  0.00    -0.085 N 
ATOM     12  H6  UNL     1      14.914   8.696   6.016  1.00  0.00     0.214 HD
HETATM   13  N7  UNL     1      16.435  11.447   5.366  1.00  0.00     0.108 N 
HETATM   14  N8  UNL     1      16.717  12.114   6.463  1.00  0.00    -0.092 N 
ATOM     15  H8  UNL     1      16.492  11.814   7.411  1.00  0.00     0.207 HD
ENDROOT
BRANCH   1  16
HETATM   16  N1  UNL     1      17.851  14.284   6.965  1.00  0.00     0.132 N 
BRANCH  16  17
HETATM   17  O1  UNL     1      18.091  14.128   8.269  1.00  0.00    -0.251 OA
HETATM   18  C1  UNL     1      19.344  13.602   8.557  1.00  0.00     0.239 C 
ENDBRANCH  16  17
BRANCH  16  19
HETATM   19  C8  UNL     1      18.084  15.540   6.353  1.00  0.00     0.753 A 
HETATM   20  N9  UNL     1      17.137  16.422   5.910  1.00  0.00    -0.114 N 
HETATM   21  N10 UNL     1      17.727  17.486   5.396  1.00  0.00    -0.115 N 
ATOM     22  H9  UNL     1      16.129  16.281   5.969  1.00  0.00     0.206 HD
HETATM   23  C9  UNL     1      19.063  17.335   5.486  1.00  0.00     0.731 A 
ATOM     24  H10 UNL     1      17.248  18.293   4.995  1.00  0.00     0.206 HD
HETATM   25  N12 UNL     1      19.259  16.141   6.072  1.00  0.00    -0.015 N 
ATOM     26  H12 UNL     1      20.176  15.743   6.278  1.00  0.00     0.203 HD
BRANCH  23  27
HETATM   27  N11 UNL     1      19.932  18.209   5.068  1.00  0.00    -0.097 N 
ATOM     28  H11 UNL     1      19.592  19.070   4.641  1.00  0.00     0.213 HD
BRANCH  27  29
HETATM   29  O4  UNL     1      21.277  18.023   5.176  1.00  0.00    -0.276 OA
ATOM     30  H4  UNL     1      21.866  18.694   5.500  1.00  0.00     0.245 HD
ENDBRANCH  27  29
ENDBRANCH  23  27
ENDBRANCH  16  19
ENDBRANCH   1  16
BRANCH   7  31
HETATM   31  N4  UNL     1      15.939  10.021   1.697  1.00  0.00    -0.234 N 
ATOM     32  H42 UNL     1      16.350   9.115   1.470  1.00  0.00     0.174 HD
ATOM     33  H41 UNL     1      15.399  10.543   1.005  1.00  0.00     0.174 HD
ENDBRANCH   7  31
BRANCH  11  34
HETATM   34  O2  UNL     1      15.487   9.966   7.522  1.00  0.00    -0.185 OA
BRANCH  34  35
HETATM   35  C6  UNL     1      16.368   9.258   8.328  1.00  0.00     0.278 C 
HETATM   36  C7  UNL     1      17.838   9.551   8.327  1.00  0.00     0.128 C 
HETATM   37  O3  UNL     1      15.989   8.322   9.112  1.00  0.00    -0.264 OA
ENDBRANCH  34  35
ENDBRANCH  11  34
TORSDOF 8
ENDMDL
MODEL 4
REMARK VINA RESULT: -9.184180792      4.935      9.911
REMARK  8 active torsions:
REMARK  status: ('A' for Active; 'I' for Inactive)
REMARK    1  A    between atoms: O1_2  and  N1_3 
REMARK    2  A    between atoms: N1_3  and  C2_4 
REMARK    3  A    between atoms: N1_3  and  C8_26 
REMARK    4  A    between atoms: C4_10  and  N4_11 
REMARK    5  A    between atoms: N6_17  and  O2_19 
REMARK    6  A    between atoms: O2_19  and  C6_20 
REMARK    7  A    between atoms: C9_31  and  N11_32 
REMARK    8  A    between atoms: N11_32  and  O4_34 
ROOT
HETATM    1  C2  UNL     1      19.510  19.286   7.735  1.00  0.00     0.754 A 
HETATM    2  N2  UNL     1      18.767  19.022   8.814  1.00  0.00    -0.015 N 
ATOM      3  H2  UNL     1      18.333  18.126   9.037  1.00  0.00     0.203 HD
HETATM    4  C3  UNL     1      18.692  20.138   9.551  1.00  0.00     0.748 A 
HETATM    5  N3  UNL     1      18.072  20.422  10.739  1.00  0.00    -0.019 N 
ATOM      6  H3  UNL     1      17.535  19.709  11.233  1.00  0.00     0.203 HD
HETATM    7  C4  UNL     1      18.189  21.648  11.229  1.00  0.00     0.705 A 
HETATM    8  N5  UNL     1      18.899  22.594  10.579  1.00  0.00    -0.018 N 
ATOM      9  H5  UNL     1      18.970  23.528  10.984  1.00  0.00     0.203 HD
HETATM   10  C5  UNL     1      19.517  22.339   9.410  1.00  0.00     0.753 A 
HETATM   11  N6  UNL     1      20.182  23.246   8.802  1.00  0.00    -0.085 N 
ATOM     12  H6  UNL     1      20.226  24.169   9.235  1.00  0.00     0.214 HD
HETATM   13  N7  UNL     1      19.392  21.085   8.919  1.00  0.00     0.108 N 
HETATM   14  N8  UNL     1      19.886  20.562   7.819  1.00  0.00    -0.092 N 
ATOM     15  H8  UNL     1      20.464  21.053   7.138  1.00  0.00     0.207 HD
ENDROOT
BRANCH   1  16
HETATM   16  N1  UNL     1      19.792  18.308   6.743  1.00  0.00     0.132 N 
BRANCH  16  17
HETATM   17  O1  UNL     1      19.630  18.526   5.436  1.00  0.00    -0.251 OA
HETATM   18  C1  UNL     1      18.306  18.504   5.016  1.00  0.00     0.239 C 
ENDBRANCH  16  17
BRANCH  16  19
HETATM   19  C8  UNL     1      20.248  17.044   7.192  1.00  0.00     0.753 A 
HETATM   20  N9  UNL     1      21.527  16.717   7.553  1.00  0.00    -0.114 N 
HETATM   21  N10 UNL     1      21.576  15.449   7.916  1.00  0.00    -0.115 N 
ATOM     22  H9  UNL     1      22.322  17.357   7.543  1.00  0.00     0.206 HD
HETATM   23  C9  UNL     1      20.346  14.912   7.806  1.00  0.00     0.731 A 
ATOM     24  H10 UNL     1      22.412  14.955   8.230  1.00  0.00     0.206 HD
HETATM   25  N12 UNL     1      19.551  15.901   7.362  1.00  0.00    -0.015 N 
ATOM     26  H12 UNL     1      18.552  15.802   7.179  1.00  0.00     0.203 HD
BRANCH  23  27
HETATM   27  N11 UNL     1      20.054  13.676   8.088  1.00  0.00    -0.097 N 
ATOM     28  H11 UNL     1      20.040  12.992   7.332  1.00  0.00     0.213 HD
BRANCH  27  29
HETATM   29  O4  UNL     1      19.766  13.255   9.351  1.00  0.00    -0.276 OA
ATOM     30  H4  UNL     1      19.249  12.478   9.530  1.00  0.00     0.245 HD
ENDBRANCH  27  29
ENDBRANCH  23  27
ENDBRANCH  16  19
ENDBRANCH   1  16
BRANCH   7  31
HETATM   31  N4  UNL     1      17.613  21.957  12.357  1.00  0.00    -0.234 N 
ATOM     32  H42 UNL     1      17.842  21.417  13.191  1.00  0.00     0.174 HD
ATOM     33  H41 UNL     1      16.946  22.729  12.395  1.00  0.00     0.174 HD
ENDBRANCH   7  31
BRANCH  11  34
HETATM   34  O2  UNL     1      20.839  23.071   7.614  1.00  0.00    -0.185 OA
BRANCH  34  35
HETATM   35  C6  UNL     1      21.949  23.867   7.369  1.00  0.00     0.278 C 
HETATM   36  C7  UNL     1      23.305  23.506   7.898  1.00  0.00     0.128 C 
HETATM   37  O3  UNL     1      21.890  24.946   6.685  1.00  0.00    -0.264 OA
ENDBRANCH  34  35
ENDBRANCH  11  34
TORSDOF 8
ENDMDL
MODEL 5
REMARK VINA RESULT: -9.046769571      2.640      4.630
REMARK  8 active torsions:
REMARK  status: ('A' for Active; 'I' for Inactive)
REMARK    1  A    between atoms: O1_2  and  N1_3 
REMARK    2  A    between atoms: N1_3  and  C2_4 
REMARK    3  A    between atoms: N1_3  and  C8_26 
REMARK    4  A    between atoms: C4_10  and  N4_11 
REMARK    5  A    between atoms: N6_17  and  O2_19 
REMARK    6  A    between atoms: O2_19  and  C6_20 
REMARK    7  A    between atoms: C9_31  and  N11_32 
REMARK    8  A    between atoms: N11_32  and  O4_34 
ROOT
HETATM    1  C2  UNL     1      17.958  15.341   6.234  1.00  0.00     0.754 A 
HETATM    2  N2  UNL     1      17.812  15.369   4.906  1.00  0.00    -0.015 N 
ATOM      3  H2  UNL     1      18.013  16.163   4.298  1.00  0.00     0.203 HD
HETATM    4  C3  UNL     1      17.355  14.174   4.512  1.00  0.00     0.748 A 
HETATM    5  N3  UNL     1      17.040  13.663   3.281  1.00  0.00    -0.019 N 
ATOM      6  H3  UNL     1      17.137  14.229   2.438  1.00  0.00     0.203 HD
HETATM    7  C4  UNL     1      16.607  12.412   3.213  1.00  0.00     0.705 A 
HETATM    8  N5  UNL     1      16.478  11.657   4.325  1.00  0.00    -0.018 N 
ATOM      9  H5  UNL     1      16.143  10.698   4.238  1.00  0.00     0.203 HD
HETATM   10  C5  UNL     1      16.780  12.137   5.547  1.00  0.00     0.753 A 
HETATM   11  N6  UNL     1      16.648  11.414   6.592  1.00  0.00    -0.085 N 
ATOM     12  H6  UNL     1      16.305  10.461   6.466  1.00  0.00     0.214 HD
HETATM   13  N7  UNL     1      17.222  13.414   5.604  1.00  0.00     0.108 N 
HETATM   14  N8  UNL     1      17.589  14.129   6.645  1.00  0.00    -0.092 N 
ATOM     15  H8  UNL     1      17.593  13.806   7.612  1.00  0.00     0.207 HD
ENDROOT
BRANCH   1  16
HETATM   16  N1  UNL     1      18.434  16.458   6.974  1.00  0.00     0.132 N 
BRANCH  16  17
HETATM   17  O1  UNL     1      17.627  17.293   7.634  1.00  0.00    -0.251 OA
HETATM   18  C1  UNL     1      17.535  18.559   7.069  1.00  0.00     0.239 C 
ENDBRANCH  16  17
BRANCH  16  19
HETATM   19  C8  UNL     1      19.832  16.682   6.980  1.00  0.00     0.753 A 
HETATM   20  N9  UNL     1      20.774  15.957   7.658  1.00  0.00    -0.114 N 
HETATM   21  N10 UNL     1      21.973  16.458   7.426  1.00  0.00    -0.115 N 
ATOM     22  H9  UNL     1      20.579  15.151   8.252  1.00  0.00     0.206 HD
HETATM   23  C9  UNL     1      21.855  17.514   6.598  1.00  0.00     0.731 A 
ATOM     24  H10 UNL     1      22.848  16.102   7.811  1.00  0.00     0.206 HD
HETATM   25  N12 UNL     1      20.542  17.634   6.338  1.00  0.00    -0.015 N 
ATOM     26  H12 UNL     1      20.135  18.350   5.736  1.00  0.00     0.203 HD
BRANCH  23  27
HETATM   27  N11 UNL     1      22.855  18.232   6.174  1.00  0.00    -0.097 N 
ATOM     28  H11 UNL     1      23.185  19.001   6.756  1.00  0.00     0.213 HD
BRANCH  27  29
HETATM   29  O4  UNL     1      23.479  18.000   4.986  1.00  0.00    -0.276 OA
ATOM     30  H4  UNL     1      24.396  18.199   4.838  1.00  0.00     0.245 HD
ENDBRANCH  27  29
ENDBRANCH  23  27
ENDBRANCH  16  19
ENDBRANCH   1  16
BRANCH   7  31
HETATM   31  N4  UNL     1      16.298  11.890   2.059  1.00  0.00    -0.234 N 
ATOM     32  H42 UNL     1      17.010  11.850   1.330  1.00  0.00     0.174 HD
ATOM     33  H41 UNL     1      15.357  11.529   1.897  1.00  0.00     0.174 HD
ENDBRANCH   7  31
BRANCH  11  34
HETATM   34  O2  UNL     1      16.933  11.822   7.867  1.00  0.00    -0.185 OA
BRANCH  34  35
HETATM   35  C6  UNL     1      18.163  11.460   8.400  1.00  0.00     0.278 C 
HETATM   36  C7  UNL     1      18.598  10.026   8.461  1.00  0.00     0.128 C 
HETATM   37  O3  UNL     1      18.993  12.312   8.867  1.00  0.00    -0.264 OA
ENDBRANCH  34  35
ENDBRANCH  11  34
TORSDOF 8
ENDMDL
