MODEL 1
REMARK VINA RESULT: -8.618552399      0.000      0.000
REMARK  10 active torsions:
REMARK  status: ('A' for Active; 'I' for Inactive)
REMARK    1  A    between atoms: O1_2  and  C2_3 
REMARK    2  A    between atoms: C2_3  and  C3_5 
REMARK    3  A    between atoms: C4_8  and  N2_9 
REMARK    4  A    between atoms: N2_9  and  N3_11 
REMARK    5  A    between atoms: C5_16  and  N5_17 
REMARK    6  A    between atoms: N5_17  and  C6_19 
REMARK    7  A    between atoms: C7_22  and  C8_23 
REMARK    8  A    between atoms: C8_23  and  O3_24 
REMARK    9  A    between atoms: C8_23  and  O4_26 
REMARK   10  A    between atoms: C10_31  and  N8_32 
ROOT
HETATM    1  C3  UNL     1      17.403  12.011   5.547  1.00  0.00     0.161 A 
HETATM    2  N1  UNL     1      17.705  11.232   6.634  1.00  0.00    -0.182 N 
ATOM      3  H1  UNL     1      17.189  10.366   6.790  1.00  0.00     0.184 HD
HETATM    4  C4  UNL     1      18.663  11.587   7.491  1.00  0.00     0.698 A 
HETATM    5  N4  UNL     1      19.390  12.730   7.341  1.00  0.00    -0.172 N 
ATOM      6  H4  UNL     1      20.114  12.966   8.019  1.00  0.00     0.186 HD
HETATM    7  C5  UNL     1      19.159  13.534   6.316  1.00  0.00     0.159 A 
HETATM    8  C10 UNL     1      18.130  13.146   5.402  1.00  0.00     0.180 A 
ENDROOT
BRANCH   7   9
HETATM    9  N5  UNL     1      19.782  14.598   6.080  1.00  0.00    -0.320 N 
ATOM     10  H5  UNL     1      20.556  14.520   5.420  1.00  0.00     0.169 HD
BRANCH   9  11
HETATM   11  C6  UNL     1      19.556  15.875   6.603  1.00  0.00     0.152 A 
HETATM   12  N6  UNL     1      18.674  16.823   6.357  1.00  0.00    -0.334 N 
HETATM   13  C7  UNL     1      18.667  17.936   6.997  1.00  0.00     0.098 A 
ATOM     14  H6  UNL     1      17.973  16.666   5.633  1.00  0.00     0.168 HD
HETATM   15  C9  UNL     1      19.629  18.113   7.967  1.00  0.00     0.118 A 
HETATM   16  N7  UNL     1      19.819  19.255   8.810  1.00  0.00    -0.092 NA
HETATM   17  S1  UNL     1      20.484  16.644   7.885  1.00  0.00    -0.037 SA
BRANCH  13  18
HETATM   18  C8  UNL     1      17.661  19.045   6.721  1.00  0.00     0.307 C 
BRANCH  18  19
HETATM   19  O3  UNL     1      17.556  19.267   5.371  1.00  0.00    -0.366 OA
ATOM     20  H3  UNL     1      18.038  20.049   5.127  1.00  0.00     0.213 HD
ENDBRANCH  18  19
BRANCH  18  21
HETATM   21  O4  UNL     1      16.424  18.542   7.169  1.00  0.00    -0.366 OA
ATOM     22  H4  UNL     1      16.401  18.731   8.101  1.00  0.00     0.213 HD
ENDBRANCH  18  21
ENDBRANCH  13  18
ENDBRANCH   9  11
ENDBRANCH   7   9
BRANCH   8  23
HETATM   23  N8  UNL     1      17.910  14.034   4.314  1.00  0.00    -0.109 N 
HETATM   24  O5  UNL     1      17.082  14.966   4.414  1.00  0.00    -0.532 OA
HETATM   25  O6  UNL     1      18.569  13.884   3.122  1.00  0.00    -0.532 OA
ENDBRANCH   8  23
BRANCH   4  26
HETATM   26  N2  UNL     1      18.942  10.854   8.508  1.00  0.00    -0.138 N 
ATOM     27  H2  UNL     1      18.927  11.276   9.436  1.00  0.00     0.205 HD
BRANCH  26  28
HETATM   28  N3  UNL     1      19.263   9.511   8.391  1.00  0.00    -0.331 N 
ATOM     29  H32 UNL     1      20.141   9.270   7.931  1.00  0.00     0.177 HD
ATOM     30  H31 UNL     1      18.658   8.770   8.746  1.00  0.00     0.177 HD
ENDBRANCH  26  28
ENDBRANCH   4  26
BRANCH   1  31
HETATM   31  C2  UNL     1      16.346  11.592   4.637  1.00  0.00     0.312 C 
HETATM   32  O2  UNL     1      15.164  11.612   5.021  1.00  0.00    -0.258 OA
BRANCH  31  33
HETATM   33  O1  UNL     1      16.612  11.170   3.357  1.00  0.00    -0.321 OA
HETATM   34  C1  UNL     1      15.896  10.192   2.653  1.00  0.00     0.213 C 
ENDBRANCH  31  33
ENDBRANCH   1  31
TORSDOF 10
ENDMDL
MODEL 2
REMARK VINA RESULT: -8.557469740      2.644      6.632
REMARK  10 active torsions:
REMARK  status: ('A' for Active; 'I' for Inactive)
REMARK    1  A    between atoms: O1_2  and  C2_3 
REMARK    2  A    between atoms: C2_3  and  C3_5 
REMARK    3  A    between atoms: C4_8  and  N2_9 
REMARK    4  A    between atoms: N2_9  and  N3_11 
REMARK    5  A    between atoms: C5_16  and  N5_17 
REMARK    6  A    between atoms: N5_17  and  C6_19 
REMARK    7  A    between atoms: C7_22  and  C8_23 
REMARK    8  A    between atoms: C8_23  and  O3_24 
REMARK    9  A    between atoms: C8_23  and  O4_26 
REMARK   10  A    between atoms: C10_31  and  N8_32 
ROOT
HETATM    1  C3  UNL     1      20.091  16.096   6.987  1.00  0.00     0.161 A 
HETATM    2  N1  UNL     1      20.209  15.200   8.019  1.00  0.00    -0.182 N 
ATOM      3  H1  UNL     1      20.827  15.415   8.801  1.00  0.00     0.184 HD
HETATM    4  C4  UNL     1      19.527  14.054   8.017  1.00  0.00     0.698 A 
HETATM    5  N4  UNL     1      18.684  13.707   7.004  1.00  0.00    -0.172 N 
ATOM      6  H4  UNL     1      18.181  12.820   7.040  1.00  0.00     0.186 HD
HETATM    7  C5  UNL     1      18.516  14.518   5.973  1.00  0.00     0.159 A 
HETATM    8  C10 UNL     1      19.250  15.746   5.982  1.00  0.00     0.180 A 
ENDROOT
BRANCH   7   9
HETATM    9  N5  UNL     1      17.753  14.299   5.001  1.00  0.00    -0.320 N 
ATOM     10  H5  UNL     1      17.632  15.075   4.349  1.00  0.00     0.169 HD
BRANCH   9  11
HETATM   11  C6  UNL     1      17.045  13.132   4.693  1.00  0.00     0.152 A 
HETATM   12  N6  UNL     1      16.399  12.236   5.410  1.00  0.00    -0.334 N 
HETATM   13  C7  UNL     1      15.805  11.230   4.877  1.00  0.00     0.098 A 
ATOM     14  H6  UNL     1      16.370  12.346   6.423  1.00  0.00     0.168 HD
HETATM   15  C9  UNL     1      15.866  11.113   3.506  1.00  0.00     0.118 A 
HETATM   16  N7  UNL     1      15.284  10.091   2.690  1.00  0.00    -0.092 NA
HETATM   17  S1  UNL     1      16.787  12.480   3.079  1.00  0.00    -0.037 SA
BRANCH  13  18
HETATM   18  C8  UNL     1      15.061  10.180   5.691  1.00  0.00     0.307 C 
BRANCH  18  19
HETATM   19  O3  UNL     1      15.370   8.921   5.239  1.00  0.00    -0.366 OA
ATOM     20  H3  UNL     1      15.328   8.296   5.953  1.00  0.00     0.213 HD
ENDBRANCH  18  19
BRANCH  18  21
HETATM   21  O4  UNL     1      15.565  10.301   7.000  1.00  0.00    -0.366 OA
ATOM     22  H4  UNL     1      15.459   9.440   7.388  1.00  0.00     0.213 HD
ENDBRANCH  18  21
ENDBRANCH  13  18
ENDBRANCH   9  11
ENDBRANCH   7   9
BRANCH   8  23
HETATM   23  N8  UNL     1      19.044  16.591   4.858  1.00  0.00    -0.109 N 
HETATM   24  O5  UNL     1      18.259  17.562   4.931  1.00  0.00    -0.532 OA
HETATM   25  O6  UNL     1      19.670  16.359   3.662  1.00  0.00    -0.532 OA
ENDBRANCH   8  23
BRANCH   4  26
HETATM   26  N2  UNL     1      19.641  13.219   8.986  1.00  0.00    -0.138 N 
ATOM     27  H2  UNL     1      20.202  13.482   9.797  1.00  0.00     0.205 HD
BRANCH  26  28
HETATM   28  N3  UNL     1      19.030  11.975   8.973  1.00  0.00    -0.331 N 
ATOM     29  H32 UNL     1      19.086  11.427   8.114  1.00  0.00     0.177 HD
ATOM     30  H31 UNL     1      18.535  11.599   9.782  1.00  0.00     0.177 HD
ENDBRANCH  26  28
ENDBRANCH   4  26
BRANCH   1  31
HETATM   31  C2  UNL     1      20.856  17.334   7.022  1.00  0.00     0.312 C 
HETATM   32  O2  UNL     1      21.887  17.436   6.337  1.00  0.00    -0.258 OA
BRANCH  31  33
HETATM   33  O1  UNL     1      20.474  18.404   7.795  1.00  0.00    -0.321 OA
HETATM   34  C1  UNL     1      19.173  18.662   8.246  1.00  0.00     0.213 C 
ENDBRANCH  31  33
ENDBRANCH   1  31
TORSDOF 10
ENDMDL
MODEL 3
REMARK VINA RESULT: -8.442610571      2.295      2.854
REMARK  10 active torsions:
REMARK  status: ('A' for Active; 'I' for Inactive)
REMARK    1  A    between atoms: O1_2  and  C2_3 
REMARK    2  A    between atoms: C2_3  and  C3_5 
REMARK    3  A    between atoms: C4_8  and  N2_9 
REMARK    4  A    between atoms: N2_9  and  N3_11 
REMARK    5  A    between atoms: C5_16  and  N5_17 
REMARK    6  A    between atoms: N5_17  and  C6_19 
REMARK    7  A    between atoms: C7_22  and  C8_23 
REMARK    8  A    between atoms: C8_23  and  O3_24 
REMARK    9  A    between atoms: C8_23  and  O4_26 
REMARK   10  A    between atoms: C10_31  and  N8_32 
ROOT
HETATM    1  C3  UNL     1      16.651  11.056   5.049  1.00  0.00     0.161 A 
HETATM    2  N1  UNL     1      16.752  10.547   6.318  1.00  0.00    -0.182 N 
ATOM      3  H1  UNL     1      16.526   9.567   6.485  1.00  0.00     0.184 HD
HETATM    4  C4  UNL     1      17.142  11.312   7.339  1.00  0.00     0.698 A 
HETATM    5  N4  UNL     1      17.461  12.629   7.184  1.00  0.00    -0.172 N 
ATOM      6  H4  UNL     1      17.754  13.180   7.991  1.00  0.00     0.186 HD
HETATM    7  C5  UNL     1      17.389  13.193   5.990  1.00  0.00     0.159 A 
HETATM    8  C10 UNL     1      16.970  12.366   4.901  1.00  0.00     0.180 A 
ENDROOT
BRANCH   7   9
HETATM    9  N5  UNL     1      17.675  14.390   5.741  1.00  0.00    -0.320 N 
ATOM     10  H5  UNL     1      17.207  14.797   4.931  1.00  0.00     0.169 HD
BRANCH   9  11
HETATM   11  C6  UNL     1      18.549  15.239   6.427  1.00  0.00     0.152 A 
HETATM   12  N6  UNL     1      19.837  15.198   6.704  1.00  0.00    -0.334 N 
HETATM   13  C7  UNL     1      20.427  16.132   7.359  1.00  0.00     0.098 A 
ATOM     14  H6  UNL     1      20.383  14.397   6.388  1.00  0.00     0.168 HD
HETATM   15  C9  UNL     1      19.658  17.198   7.771  1.00  0.00     0.118 A 
HETATM   16  N7  UNL     1      20.086  18.352   8.503  1.00  0.00    -0.092 NA
HETATM   17  S1  UNL     1      18.121  16.772   7.178  1.00  0.00    -0.037 SA
BRANCH  13  18
HETATM   18  C8  UNL     1      21.911  16.098   7.696  1.00  0.00     0.307 C 
BRANCH  18  19
HETATM   19  O3  UNL     1      22.472  14.924   7.257  1.00  0.00    -0.366 OA
ATOM     20  H3  UNL     1      22.383  14.849   6.314  1.00  0.00     0.213 HD
ENDBRANCH  18  19
BRANCH  18  21
HETATM   21  O4  UNL     1      22.483  17.149   6.953  1.00  0.00    -0.366 OA
ATOM     22  H4  UNL     1      22.561  17.873   7.563  1.00  0.00     0.213 HD
ENDBRANCH  18  21
ENDBRANCH  13  18
ENDBRANCH   9  11
ENDBRANCH   7   9
BRANCH   8  23
HETATM   23  N8  UNL     1      16.905  13.007   3.634  1.00  0.00    -0.109 N 
HETATM   24  O5  UNL     1      17.941  13.458   3.098  1.00  0.00    -0.532 OA
HETATM   25  O6  UNL     1      15.714  13.176   2.977  1.00  0.00    -0.532 OA
ENDBRANCH   8  23
BRANCH   4  26
HETATM   26  N2  UNL     1      17.236  10.830   8.525  1.00  0.00    -0.138 N 
ATOM     27  H2  UNL     1      17.349  11.474   9.309  1.00  0.00     0.205 HD
BRANCH  26  28
HETATM   28  N3  UNL     1      17.188   9.469   8.782  1.00  0.00    -0.331 N 
ATOM     29  H32 UNL     1      16.626   9.155   9.573  1.00  0.00     0.177 HD
ATOM     30  H31 UNL     1      17.689   8.786   8.214  1.00  0.00     0.177 HD
ENDBRANCH  26  28
ENDBRANCH   4  26
BRANCH   1  31
HETATM   31  C2  UNL     1      16.216  10.190   3.962  1.00  0.00     0.312 C 
HETATM   32  O2  UNL     1      16.936  10.060   2.958  1.00  0.00    -0.258 OA
BRANCH  31  33
HETATM   33  O1  UNL     1      15.026   9.506   4.009  1.00  0.00    -0.321 OA
HETATM   34  C1  UNL     1      14.325   9.166   5.173  1.00  0.00     0.213 C 
ENDBRANCH  31  33
ENDBRANCH   1  31
TORSDOF 10
ENDMDL
MODEL 4
REMARK VINA RESULT: -8.293351587      2.515      3.550
REMARK  10 active torsions:
REMARK  status: ('A' for Active; 'I' for Inactive)
REMARK    1  A    between atoms: O1_2  and  C2_3 
REMARK    2  A    between atoms: C2_3  and  C3_5 
REMARK    3  A    between atoms: C4_8  and  N2_9 
REMARK    4  A    between atoms: N2_9  and  N3_11 
REMARK    5  A    between atoms: C5_16  and  N5_17 
REMARK    6  A    between atoms: N5_17  and  C6_19 
REMARK    7  A    between atoms: C7_22  and  C8_23 
REMARK    8  A    between atoms: C8_23  and  O3_24 
REMARK    9  A    between atoms: C8_23  and  O4_26 
REMARK   10  A    between atoms: C10_31  and  N8_32 
ROOT
HETATM    1  C3  UNL     1      18.150  12.581   5.787  1.00  0.00     0.161 A 
HETATM    2  N1  UNL     1      17.265  12.339   4.768  1.00  0.00    -0.182 N 
ATOM      3  H1  UNL     1      16.724  11.474   4.769  1.00  0.00     0.184 HD
HETATM    4  C4  UNL     1      17.098  13.216   3.778  1.00  0.00     0.698 A 
HETATM    5  N4  UNL     1      17.787  14.390   3.718  1.00  0.00    -0.172 N 
ATOM      6  H4  UNL     1      17.631  15.034   2.943  1.00  0.00     0.186 HD
HETATM    7  C5  UNL     1      18.659  14.697   4.664  1.00  0.00     0.159 A 
HETATM    8  C10 UNL     1      18.833  13.751   5.723  1.00  0.00     0.180 A 
ENDROOT
BRANCH   7   9
HETATM    9  N5  UNL     1      19.331  15.756   4.709  1.00  0.00    -0.320 N 
ATOM     10  H5  UNL     1      20.202  15.751   4.178  1.00  0.00     0.169 HD
BRANCH   9  11
HETATM   11  C6  UNL     1      19.043  16.943   5.392  1.00  0.00     0.152 A 
HETATM   12  N6  UNL     1      17.933  17.504   5.825  1.00  0.00    -0.334 N 
HETATM   13  C7  UNL     1      17.930  18.625   6.451  1.00  0.00     0.098 A 
ATOM     14  H6  UNL     1      17.045  17.032   5.658  1.00  0.00     0.168 HD
HETATM   15  C9  UNL     1      19.147  19.236   6.659  1.00  0.00     0.118 A 
HETATM   16  N7  UNL     1      19.399  20.475   7.330  1.00  0.00    -0.092 NA
HETATM   17  S1  UNL     1      20.221  18.136   5.928  1.00  0.00    -0.037 SA
BRANCH  13  18
HETATM   18  C8  UNL     1      16.657  19.293   6.953  1.00  0.00     0.307 C 
BRANCH  18  19
HETATM   19  O3  UNL     1      16.815  19.703   8.253  1.00  0.00    -0.366 OA
ATOM     20  H3  UNL     1      16.467  20.580   8.366  1.00  0.00     0.213 HD
ENDBRANCH  18  19
BRANCH  18  21
HETATM   21  O4  UNL     1      16.504  20.444   6.156  1.00  0.00    -0.366 OA
ATOM     22  H4  UNL     1      17.352  20.579   5.748  1.00  0.00     0.213 HD
ENDBRANCH  18  21
ENDBRANCH  13  18
ENDBRANCH   9  11
ENDBRANCH   7   9
BRANCH   8  23
HETATM   23  N8  UNL     1      19.778  14.114   6.721  1.00  0.00    -0.109 N 
HETATM   24  O5  UNL     1      20.997  13.897   6.547  1.00  0.00    -0.532 OA
HETATM   25  O6  UNL     1      19.387  14.681   7.906  1.00  0.00    -0.532 OA
ENDBRANCH   8  23
BRANCH   4  26
HETATM   26  N2  UNL     1      16.267  12.985   2.827  1.00  0.00    -0.138 N 
ATOM     27  H2  UNL     1      15.767  13.770   2.410  1.00  0.00     0.205 HD
BRANCH  26  28
HETATM   28  N3  UNL     1      16.024  11.708   2.343  1.00  0.00    -0.331 N 
ATOM     29  H32 UNL     1      15.165  11.556   1.816  1.00  0.00     0.177 HD
ATOM     30  H31 UNL     1      16.668  10.932   2.497  1.00  0.00     0.177 HD
ENDBRANCH  26  28
ENDBRANCH   4  26
BRANCH   1  31
HETATM   31  C2  UNL     1      18.309  11.595   6.848  1.00  0.00     0.312 C 
HETATM   32  O2  UNL     1      19.346  10.914   6.900  1.00  0.00    -0.258 OA
BRANCH  31  33
HETATM   33  O1  UNL     1      17.342  11.391   7.802  1.00  0.00    -0.321 OA
HETATM   34  C1  UNL     1      16.596  10.217   7.970  1.00  0.00     0.213 C 
ENDBRANCH  31  33
ENDBRANCH   1  31
TORSDOF 10
ENDMDL
MODEL 5
REMARK VINA RESULT: -8.292791170      3.279      8.079
REMARK  10 active torsions:
REMARK  status: ('A' for Active; 'I' for Inactive)
REMARK    1  A    between atoms: O1_2  and  C2_3 
REMARK    2  A    between atoms: C2_3  and  C3_5 
REMARK    3  A    between atoms: C4_8  and  N2_9 
REMARK    4  A    between atoms: N2_9  and  N3_11 
REMARK    5  A    between atoms: C5_16  and  N5_17 
REMARK    6  A    between atoms: N5_17  and  C6_19 
REMARK    7  A    between atoms: C7_22  and  C8_23 
REMARK    8  A    between atoms: C8_23  and  O3_24 
REMARK    9  A    between atoms: C8_23  and  O4_26 
REMARK   10  A    between atoms: C10_31  and  N8_32 
ROOT
HETATM    1  C3  UNL     1      17.333  21.026   9.383  1.00  0.00     0.161 A 
HETATM    2  N1  UNL     1      17.780  21.482  10.597  1.00  0.00    -0.182 N 
ATOM      3  H1  UNL     1      17.163  22.049  11.178  1.00  0.00     0.184 HD
HETATM    4  C4  UNL     1      19.008  21.194  11.031  1.00  0.00     0.698 A 
HETATM    5  N4  UNL     1      19.881  20.440  10.305  1.00  0.00    -0.172 N 
ATOM      6  H4  UNL     1      20.812  20.244  10.672  1.00  0.00     0.186 HD
HETATM    7  C5  UNL     1      19.524  19.963   9.124  1.00  0.00     0.159 A 
HETATM    8  C10 UNL     1      18.206  20.276   8.665  1.00  0.00     0.180 A 
ENDROOT
BRANCH   7   9
HETATM    9  N5  UNL     1      20.246  19.248   8.387  1.00  0.00    -0.320 N 
ATOM     10  H5  UNL     1      21.044  19.718   7.960  1.00  0.00     0.169 HD
BRANCH   9  11
HETATM   11  C6  UNL     1      20.101  17.892   8.075  1.00  0.00     0.152 A 
HETATM   12  N6  UNL     1      19.087  17.052   8.092  1.00  0.00    -0.334 N 
HETATM   13  C7  UNL     1      19.209  15.823   7.739  1.00  0.00     0.098 A 
ATOM     14  H6  UNL     1      18.174  17.388   8.396  1.00  0.00     0.168 HD
HETATM   15  C9  UNL     1      20.457  15.402   7.336  1.00  0.00     0.118 A 
HETATM   16  N7  UNL     1      20.838  14.094   6.896  1.00  0.00    -0.092 NA
HETATM   17  S1  UNL     1      21.376  16.826   7.495  1.00  0.00    -0.037 SA
BRANCH  13  18
HETATM   18  C8  UNL     1      18.051  14.835   7.760  1.00  0.00     0.307 C 
BRANCH  18  19
HETATM   19  O3  UNL     1      17.736  14.445   6.482  1.00  0.00    -0.366 OA
ATOM     20  H3  UNL     1      17.163  15.085   6.075  1.00  0.00     0.213 HD
ENDBRANCH  18  19
BRANCH  18  21
HETATM   21  O4  UNL     1      18.541  13.705   8.444  1.00  0.00    -0.366 OA
ATOM     22  H4  UNL     1      19.281  14.021   8.949  1.00  0.00     0.213 HD
ENDBRANCH  18  21
ENDBRANCH  13  18
ENDBRANCH   9  11
ENDBRANCH   7   9
BRANCH   8  23
HETATM   23  N8  UNL     1      17.857  19.747   7.393  1.00  0.00    -0.109 N 
HETATM   24  O5  UNL     1      18.371  20.211   6.352  1.00  0.00    -0.532 OA
HETATM   25  O6  UNL     1      16.936  18.740   7.263  1.00  0.00    -0.532 OA
ENDBRANCH   8  23
BRANCH   4  26
HETATM   26  N2  UNL     1      19.421  21.623  12.168  1.00  0.00    -0.138 N 
ATOM     27  H2  UNL     1      19.208  22.584  12.437  1.00  0.00     0.205 HD
BRANCH  26  28
HETATM   28  N3  UNL     1      20.145  20.830  13.045  1.00  0.00    -0.331 N 
ATOM     29  H32 UNL     1      21.154  20.975  13.094  1.00  0.00     0.177 HD
ATOM     30  H31 UNL     1      19.707  20.118  13.630  1.00  0.00     0.177 HD
ENDBRANCH  26  28
ENDBRANCH   4  26
BRANCH   1  31
HETATM   31  C2  UNL     1      15.987  21.366   8.942  1.00  0.00     0.312 C 
HETATM   32  O2  UNL     1      15.016  20.750   9.410  1.00  0.00    -0.258 OA
BRANCH  31  33
HETATM   33  O1  UNL     1      15.753  22.354   8.016  1.00  0.00    -0.321 OA
HETATM   34  C1  UNL     1      15.149  23.591   8.277  1.00  0.00     0.213 C 
ENDBRANCH  31  33
ENDBRANCH   1  31
TORSDOF 10
ENDMDL
