MODEL 1
REMARK VINA RESULT: -10.385036827      0.000      0.000
REMARK  14 active torsions:
REMARK  status: ('A' for Active; 'I' for Inactive)
REMARK    1  A    between atoms: C2_2  and  C3_4 
REMARK    2  A    between atoms: C4_5  and  O2_6 
REMARK    3  A    between atoms: C5_8  and  O3_9 
REMARK    4  A    between atoms: C6_11  and  C7_12 
REMARK    5  A    between atoms: C7_12  and  O4_13 
REMARK    6  A    between atoms: O4_13  and  C8_14 
REMARK       I    between atoms: C8_14  and  N1_16 
REMARK    7  A    between atoms: N1_16  and  C9_18 
REMARK    8  A    between atoms: C9_18  and  C10_19 
REMARK       I    between atoms: C10_19  and  N2_21 
REMARK    9  A    between atoms: N2_21  and  C11_23 
REMARK   10  A    between atoms: C11_23  and  C12_24 
REMARK   11  A    between atoms: C11_23  and  C19_33 
REMARK   12  A    between atoms: C12_24  and  C13_25 
REMARK   13  A    between atoms: C18_30  and  O7_31 
REMARK       I    between atoms: C19_33  and  N3_35 
REMARK       I    between atoms: N3_35  and  C20_37 
REMARK   14  A    between atoms: N6_42  and  N7_43 
ROOT
HETATM    1  C9  UNL     1     108.418  62.021  43.888  1.00  0.00     0.227 C 
ENDROOT
BRANCH   1   2
HETATM    2  N1  UNL     1     108.211  60.938  42.954  1.00  0.00    -0.328 N 
HETATM    3  C8  UNL     1     106.897  60.577  42.583  1.00  0.00     0.361 C 
HETATM    4  O5  UNL     1     105.878  61.167  43.025  1.00  0.00    -0.238 OA
ATOM      5  H1  UNL     1     109.010  60.436  42.565  1.00  0.00     0.165 HD
BRANCH   3   6
HETATM    6  O4  UNL     1     106.625  59.532  41.692  1.00  0.00    -0.298 OA
BRANCH   6   7
HETATM    7  C7  UNL     1     106.606  58.185  42.110  1.00  0.00     0.243 C 
BRANCH   7   8
HETATM    8  C6  UNL     1     106.618  57.241  40.985  1.00  0.00     0.097 A 
HETATM    9  C5  UNL     1     105.423  56.544  40.745  1.00  0.00     0.127 A 
HETATM   10  C4  UNL     1     105.337  55.626  39.705  1.00  0.00     0.120 A 
HETATM   11  C3  UNL     1     106.449  55.399  38.897  1.00  0.00     0.115 A 
HETATM   12  C21 UNL     1     107.601  56.114  39.182  1.00  0.00     0.283 A 
HETATM   13  N6  UNL     1     107.648  56.995  40.196  1.00  0.00    -0.225 N 
HETATM   14  O9  UNL     1     108.628  55.919  38.454  1.00  0.00    -0.265 OA
BRANCH   9  15
HETATM   15  O3  UNL     1     104.335  56.788  41.558  1.00  0.00    -0.356 OA
ATOM     16  H3  UNL     1     104.454  56.973  42.482  1.00  0.00     0.218 HD
ENDBRANCH   9  15
BRANCH  10  17
HETATM   17  O2  UNL     1     104.165  54.942  39.467  1.00  0.00    -0.357 OA
ATOM     18  H2  UNL     1     103.426  55.391  39.076  1.00  0.00     0.218 HD
ENDBRANCH  10  17
BRANCH  11  19
HETATM   19  C2  UNL     1     106.373  54.451  37.813  1.00  0.00     0.164 C 
HETATM   20  C1  UNL     1     106.913  53.096  37.852  1.00  0.00     0.097 C 
HETATM   21  O1  UNL     1     105.784  54.847  36.750  1.00  0.00    -0.292 OA
ENDBRANCH  11  19
BRANCH  13  22
HETATM   22  N7  UNL     1     108.843  57.685  40.427  1.00  0.00    -0.335 N 
ATOM     23  H72 UNL     1     109.017  58.546  39.909  1.00  0.00     0.177 HD
ATOM     24  H71 UNL     1     109.501  57.302  41.106  1.00  0.00     0.177 HD
ENDBRANCH  13  22
ENDBRANCH   7   8
ENDBRANCH   6   7
ENDBRANCH   3   6
ENDBRANCH   1   2
BRANCH   1  25
HETATM   25  C10 UNL     1     109.605  62.839  43.615  1.00  0.00     0.236 C 
HETATM   26  O6  UNL     1     110.510  62.942  44.472  1.00  0.00    -0.272 OA
HETATM   27  N2  UNL     1     109.763  63.527  42.392  1.00  0.00    -0.346 N 
ATOM     28  H2  UNL     1     109.025  63.446  41.692  1.00  0.00     0.163 HD
BRANCH  27  29
HETATM   29  C11 UNL     1     110.913  64.335  42.086  1.00  0.00     0.181 C 
BRANCH  29  30
HETATM   30  C12 UNL     1     111.423  65.211  43.165  1.00  0.00     0.076 C 
BRANCH  30  31
HETATM   31  C13 UNL     1     111.590  66.628  42.879  1.00  0.00    -0.023 A 
HETATM   32  C14 UNL     1     110.648  67.591  43.211  1.00  0.00     0.010 A 
HETATM   33  C15 UNL     1     110.829  68.938  43.004  1.00  0.00     0.001 A 
HETATM   34  C16 UNL     1     111.994  69.384  42.441  1.00  0.00     0.003 A 
HETATM   35  C17 UNL     1     112.940  68.466  42.101  1.00  0.00     0.037 A 
HETATM   36  C18 UNL     1     112.750  67.087  42.313  1.00  0.00     0.072 A 
BRANCH  36  37
HETATM   37  O7  UNL     1     113.805  66.306  41.898  1.00  0.00    -0.360 OA
ATOM     38  H7  UNL     1     113.865  65.854  41.065  1.00  0.00     0.217 HD
ENDBRANCH  36  37
ENDBRANCH  30  31
ENDBRANCH  29  30
BRANCH  29  39
HETATM   39  C19 UNL     1     112.023  63.429  41.691  1.00  0.00     0.247 C 
HETATM   40  O8  UNL     1     112.063  62.930  40.535  1.00  0.00    -0.271 OA
HETATM   41  N3  UNL     1     113.032  63.135  42.626  1.00  0.00    -0.300 N 
HETATM   42  C20 UNL     1     114.128  62.275  42.335  1.00  0.00     0.188 C 
ATOM     43  H3  UNL     1     112.976  63.556  43.553  1.00  0.00     0.171 HD
HETATM   44  N4  UNL     1     115.059  61.993  43.169  1.00  0.00    -0.373 N 
HETATM   45  N5  UNL     1     114.184  61.696  41.043  1.00  0.00    -0.064 NA
ATOM     46  H42 UNL     1     115.019  62.409  44.099  1.00  0.00     0.158 HD
ATOM     47  H41 UNL     1     115.845  61.376  42.961  1.00  0.00     0.158 HD
ENDBRANCH  29  39
ENDBRANCH  27  29
ENDBRANCH   1  25
TORSDOF 14
ENDMDL
MODEL 2
REMARK VINA RESULT: -10.188112312      2.316      4.530
REMARK  14 active torsions:
REMARK  status: ('A' for Active; 'I' for Inactive)
REMARK    1  A    between atoms: C2_2  and  C3_4 
REMARK    2  A    between atoms: C4_5  and  O2_6 
REMARK    3  A    between atoms: C5_8  and  O3_9 
REMARK    4  A    between atoms: C6_11  and  C7_12 
REMARK    5  A    between atoms: C7_12  and  O4_13 
REMARK    6  A    between atoms: O4_13  and  C8_14 
REMARK       I    between atoms: C8_14  and  N1_16 
REMARK    7  A    between atoms: N1_16  and  C9_18 
REMARK    8  A    between atoms: C9_18  and  C10_19 
REMARK       I    between atoms: C10_19  and  N2_21 
REMARK    9  A    between atoms: N2_21  and  C11_23 
REMARK   10  A    between atoms: C11_23  and  C12_24 
REMARK   11  A    between atoms: C11_23  and  C19_33 
REMARK   12  A    between atoms: C12_24  and  C13_25 
REMARK   13  A    between atoms: C18_30  and  O7_31 
REMARK       I    between atoms: C19_33  and  N3_35 
REMARK       I    between atoms: N3_35  and  C20_37 
REMARK   14  A    between atoms: N6_42  and  N7_43 
ROOT
HETATM    1  C9  UNL     1     110.742  62.563  45.938  1.00  0.00     0.227 C 
ENDROOT
BRANCH   1   2
HETATM    2  N1  UNL     1     110.067  61.462  45.290  1.00  0.00    -0.328 N 
HETATM    3  C8  UNL     1     108.873  61.701  44.573  1.00  0.00     0.361 C 
HETATM    4  O5  UNL     1     108.363  62.844  44.460  1.00  0.00    -0.238 OA
ATOM      5  H1  UNL     1     110.449  60.518  45.350  1.00  0.00     0.165 HD
BRANCH   3   6
HETATM    6  O4  UNL     1     108.162  60.679  43.931  1.00  0.00    -0.298 OA
BRANCH   6   7
HETATM    7  C7  UNL     1     107.468  60.902  42.724  1.00  0.00     0.243 C 
BRANCH   7   8
HETATM    8  C6  UNL     1     107.065  59.654  42.063  1.00  0.00     0.097 A 
HETATM    9  C5  UNL     1     105.683  59.418  41.969  1.00  0.00     0.127 A 
HETATM   10  C4  UNL     1     105.203  58.263  41.364  1.00  0.00     0.120 A 
HETATM   11  C3  UNL     1     106.105  57.334  40.846  1.00  0.00     0.115 A 
HETATM   12  C21 UNL     1     107.455  57.620  40.968  1.00  0.00     0.283 A 
HETATM   13  N6  UNL     1     107.884  58.748  41.560  1.00  0.00    -0.225 N 
HETATM   14  O9  UNL     1     108.293  56.783  40.501  1.00  0.00    -0.265 OA
BRANCH   9  15
HETATM   15  O3  UNL     1     104.811  60.353  42.487  1.00  0.00    -0.356 OA
ATOM     16  H3  UNL     1     104.188  60.112  43.163  1.00  0.00     0.218 HD
ENDBRANCH   9  15
BRANCH  10  17
HETATM   17  O2  UNL     1     103.849  58.029  41.270  1.00  0.00    -0.357 OA
ATOM     18  H2  UNL     1     103.452  57.881  40.420  1.00  0.00     0.218 HD
ENDBRANCH  10  17
BRANCH  11  19
HETATM   19  C2  UNL     1     105.620  56.133  40.212  1.00  0.00     0.164 C 
HETATM   20  C1  UNL     1     105.839  55.784  38.813  1.00  0.00     0.097 C 
HETATM   21  O1  UNL     1     104.952  55.329  40.948  1.00  0.00    -0.292 OA
ENDBRANCH  11  19
BRANCH  13  22
HETATM   22  N7  UNL     1     109.262  58.975  41.647  1.00  0.00    -0.335 N 
ATOM     23  H72 UNL     1     109.782  59.155  40.789  1.00  0.00     0.177 HD
ATOM     24  H71 UNL     1     109.699  58.951  42.569  1.00  0.00     0.177 HD
ENDBRANCH  13  22
ENDBRANCH   7   8
ENDBRANCH   6   7
ENDBRANCH   3   6
ENDBRANCH   1   2
BRANCH   1  25
HETATM   25  C10 UNL     1     111.669  63.300  45.071  1.00  0.00     0.236 C 
HETATM   26  O6  UNL     1     112.904  63.191  45.231  1.00  0.00    -0.272 OA
HETATM   27  N2  UNL     1     111.202  64.145  44.040  1.00  0.00    -0.346 N 
ATOM     28  H2  UNL     1     110.195  64.237  43.908  1.00  0.00     0.163 HD
BRANCH  27  29
HETATM   29  C11 UNL     1     112.078  64.881  43.168  1.00  0.00     0.181 C 
BRANCH  29  30
HETATM   30  C12 UNL     1     112.292  64.329  41.810  1.00  0.00     0.076 C 
BRANCH  30  31
HETATM   31  C13 UNL     1     112.814  62.976  41.693  1.00  0.00    -0.023 A 
HETATM   32  C14 UNL     1     114.166  62.672  41.748  1.00  0.00     0.010 A 
HETATM   33  C15 UNL     1     114.662  61.390  41.706  1.00  0.00     0.001 A 
HETATM   34  C16 UNL     1     113.796  60.335  41.605  1.00  0.00     0.003 A 
HETATM   35  C17 UNL     1     112.462  60.597  41.547  1.00  0.00     0.037 A 
HETATM   36  C18 UNL     1     111.959  61.912  41.589  1.00  0.00     0.072 A 
BRANCH  36  37
HETATM   37  O7  UNL     1     110.587  61.989  41.507  1.00  0.00    -0.360 OA
ATOM     38  H7  UNL     1     110.009  61.296  41.211  1.00  0.00     0.217 HD
ENDBRANCH  36  37
ENDBRANCH  30  31
ENDBRANCH  29  30
BRANCH  29  39
HETATM   39  C19 UNL     1     111.526  66.251  43.007  1.00  0.00     0.247 C 
HETATM   40  O8  UNL     1     110.309  66.483  43.237  1.00  0.00    -0.271 OA
HETATM   41  N3  UNL     1     112.381  67.289  42.594  1.00  0.00    -0.300 N 
HETATM   42  C20 UNL     1     111.936  68.629  42.410  1.00  0.00     0.188 C 
ATOM     43  H3  UNL     1     113.362  67.073  42.418  1.00  0.00     0.171 HD
HETATM   44  N4  UNL     1     112.695  69.591  42.036  1.00  0.00    -0.373 N 
HETATM   45  N5  UNL     1     110.568  68.907  42.655  1.00  0.00    -0.064 NA
ATOM     46  H42 UNL     1     113.680  69.391  41.860  1.00  0.00     0.158 HD
ATOM     47  H41 UNL     1     112.377  70.552  41.904  1.00  0.00     0.158 HD
ENDBRANCH  29  39
ENDBRANCH  27  29
ENDBRANCH   1  25
TORSDOF 14
ENDMDL
MODEL 3
REMARK VINA RESULT: -10.174049240      2.373      4.566
REMARK  14 active torsions:
REMARK  status: ('A' for Active; 'I' for Inactive)
REMARK    1  A    between atoms: C2_2  and  C3_4 
REMARK    2  A    between atoms: C4_5  and  O2_6 
REMARK    3  A    between atoms: C5_8  and  O3_9 
REMARK    4  A    between atoms: C6_11  and  C7_12 
REMARK    5  A    between atoms: C7_12  and  O4_13 
REMARK    6  A    between atoms: O4_13  and  C8_14 
REMARK       I    between atoms: C8_14  and  N1_16 
REMARK    7  A    between atoms: N1_16  and  C9_18 
REMARK    8  A    between atoms: C9_18  and  C10_19 
REMARK       I    between atoms: C10_19  and  N2_21 
REMARK    9  A    between atoms: N2_21  and  C11_23 
REMARK   10  A    between atoms: C11_23  and  C12_24 
REMARK   11  A    between atoms: C11_23  and  C19_33 
REMARK   12  A    between atoms: C12_24  and  C13_25 
REMARK   13  A    between atoms: C18_30  and  O7_31 
REMARK       I    between atoms: C19_33  and  N3_35 
REMARK       I    between atoms: N3_35  and  C20_37 
REMARK   14  A    between atoms: N6_42  and  N7_43 
ROOT
HETATM    1  C9  UNL     1     114.227  61.668  41.884  1.00  0.00     0.227 C 
ENDROOT
BRANCH   1   2
HETATM    2  N1  UNL     1     113.656  60.343  41.832  1.00  0.00    -0.328 N 
HETATM    3  C8  UNL     1     112.524  60.102  41.022  1.00  0.00     0.361 C 
HETATM    4  O5  UNL     1     111.983  60.997  40.324  1.00  0.00    -0.238 OA
ATOM      5  H1  UNL     1     114.067  59.585  42.377  1.00  0.00     0.165 HD
BRANCH   3   6
HETATM    6  O4  UNL     1     111.914  58.845  40.933  1.00  0.00    -0.298 OA
BRANCH   6   7
HETATM    7  C7  UNL     1     111.225  58.274  42.023  1.00  0.00     0.243 C 
BRANCH   7   8
HETATM    8  C6  UNL     1     109.766  58.359  41.881  1.00  0.00     0.097 A 
HETATM    9  C5  UNL     1     109.095  59.168  42.814  1.00  0.00     0.127 A 
HETATM   10  C4  UNL     1     107.714  59.308  42.764  1.00  0.00     0.120 A 
HETATM   11  C3  UNL     1     106.992  58.639  41.778  1.00  0.00     0.115 A 
HETATM   12  C21 UNL     1     107.706  57.856  40.886  1.00  0.00     0.283 A 
HETATM   13  N6  UNL     1     109.043  57.743  40.963  1.00  0.00    -0.225 N 
HETATM   14  O9  UNL     1     107.062  57.237  39.977  1.00  0.00    -0.265 OA
BRANCH   9  15
HETATM   15  O3  UNL     1     109.833  59.821  43.780  1.00  0.00    -0.356 OA
ATOM     16  H3  UNL     1     110.166  59.350  44.535  1.00  0.00     0.218 HD
ENDBRANCH   9  15
BRANCH  10  17
HETATM   17  O2  UNL     1     107.055  60.101  43.678  1.00  0.00    -0.357 OA
ATOM     18  H2  UNL     1     107.124  59.910  44.606  1.00  0.00     0.218 HD
ENDBRANCH  10  17
BRANCH  11  19
HETATM   19  C2  UNL     1     105.558  58.779  41.712  1.00  0.00     0.164 C 
HETATM   20  C1  UNL     1     104.614  57.667  41.678  1.00  0.00     0.097 C 
HETATM   21  O1  UNL     1     105.102  59.972  41.684  1.00  0.00    -0.292 OA
ENDBRANCH  11  19
BRANCH  13  22
HETATM   22  N7  UNL     1     109.701  56.936  40.029  1.00  0.00    -0.335 N 
ATOM     23  H72 UNL     1     109.918  57.328  39.113  1.00  0.00     0.177 HD
ATOM     24  H71 UNL     1     109.942  55.981  40.297  1.00  0.00     0.177 HD
ENDBRANCH  13  22
ENDBRANCH   7   8
ENDBRANCH   6   7
ENDBRANCH   3   6
ENDBRANCH   1   2
BRANCH   1  25
HETATM   25  C10 UNL     1     113.556  62.582  42.816  1.00  0.00     0.236 C 
HETATM   26  O6  UNL     1     114.084  62.863  43.914  1.00  0.00    -0.272 OA
HETATM   27  N2  UNL     1     112.309  63.168  42.505  1.00  0.00    -0.346 N 
ATOM     28  H2  UNL     1     111.875  62.939  41.611  1.00  0.00     0.163 HD
BRANCH  27  29
HETATM   29  C11 UNL     1     111.622  64.071  43.391  1.00  0.00     0.181 C 
BRANCH  29  30
HETATM   30  C12 UNL     1     110.890  65.195  42.765  1.00  0.00     0.076 C 
BRANCH  30  31
HETATM   31  C13 UNL     1     111.555  66.486  42.682  1.00  0.00    -0.023 A 
HETATM   32  C14 UNL     1     112.870  66.644  42.268  1.00  0.00     0.010 A 
HETATM   33  C15 UNL     1     113.483  67.865  42.122  1.00  0.00     0.001 A 
HETATM   34  C16 UNL     1     112.781  69.009  42.394  1.00  0.00     0.003 A 
HETATM   35  C17 UNL     1     111.489  68.892  42.803  1.00  0.00     0.037 A 
HETATM   36  C18 UNL     1     110.865  67.638  42.953  1.00  0.00     0.072 A 
BRANCH  36  37
HETATM   37  O7  UNL     1     109.561  67.709  43.387  1.00  0.00    -0.360 OA
ATOM     38  H7  UNL     1     108.818  67.993  42.867  1.00  0.00     0.217 HD
ENDBRANCH  36  37
ENDBRANCH  30  31
ENDBRANCH  29  30
BRANCH  29  39
HETATM   39  C19 UNL     1     110.636  63.284  44.178  1.00  0.00     0.247 C 
HETATM   40  O8  UNL     1     109.565  62.885  43.648  1.00  0.00    -0.271 OA
HETATM   41  N3  UNL     1     110.915  62.990  45.525  1.00  0.00    -0.300 N 
HETATM   42  C20 UNL     1     110.027  62.248  46.353  1.00  0.00     0.188 C 
ATOM     43  H3  UNL     1     111.792  63.323  45.925  1.00  0.00     0.171 HD
HETATM   44  N4  UNL     1     110.260  61.966  47.582  1.00  0.00    -0.373 N 
HETATM   45  N5  UNL     1     108.812  61.799  45.778  1.00  0.00    -0.064 NA
ATOM     46  H42 UNL     1     111.134  62.289  47.996  1.00  0.00     0.158 HD
ATOM     47  H41 UNL     1     109.624  61.434  48.176  1.00  0.00     0.158 HD
ENDBRANCH  29  39
ENDBRANCH  27  29
ENDBRANCH   1  25
TORSDOF 14
ENDMDL
MODEL 4
REMARK VINA RESULT: -10.093172116      0.868      1.134
REMARK  14 active torsions:
REMARK  status: ('A' for Active; 'I' for Inactive)
REMARK    1  A    between atoms: C2_2  and  C3_4 
REMARK    2  A    between atoms: C4_5  and  O2_6 
REMARK    3  A    between atoms: C5_8  and  O3_9 
REMARK    4  A    between atoms: C6_11  and  C7_12 
REMARK    5  A    between atoms: C7_12  and  O4_13 
REMARK    6  A    between atoms: O4_13  and  C8_14 
REMARK       I    between atoms: C8_14  and  N1_16 
REMARK    7  A    between atoms: N1_16  and  C9_18 
REMARK    8  A    between atoms: C9_18  and  C10_19 
REMARK       I    between atoms: C10_19  and  N2_21 
REMARK    9  A    between atoms: N2_21  and  C11_23 
REMARK   10  A    between atoms: C11_23  and  C12_24 
REMARK   11  A    between atoms: C11_23  and  C19_33 
REMARK   12  A    between atoms: C12_24  and  C13_25 
REMARK   13  A    between atoms: C18_30  and  O7_31 
REMARK       I    between atoms: C19_33  and  N3_35 
REMARK       I    between atoms: N3_35  and  C20_37 
REMARK   14  A    between atoms: N6_42  and  N7_43 
ROOT
HETATM    1  C9  UNL     1     108.455  61.776  44.166  1.00  0.00     0.227 C 
ENDROOT
BRANCH   1   2
HETATM    2  N1  UNL     1     108.175  60.697  43.247  1.00  0.00    -0.328 N 
HETATM    3  C8  UNL     1     106.890  60.588  42.670  1.00  0.00     0.361 C 
HETATM    4  O5  UNL     1     105.963  61.401  42.912  1.00  0.00    -0.238 OA
ATOM      5  H1  UNL     1     108.901  60.018  43.017  1.00  0.00     0.165 HD
BRANCH   3   6
HETATM    6  O4  UNL     1     106.549  59.562  41.780  1.00  0.00    -0.298 OA
BRANCH   6   7
HETATM    7  C7  UNL     1     106.595  58.204  42.158  1.00  0.00     0.243 C 
BRANCH   7   8
HETATM    8  C6  UNL     1     106.641  57.295  41.006  1.00  0.00     0.097 A 
HETATM    9  C5  UNL     1     105.462  56.583  40.728  1.00  0.00     0.127 A 
HETATM   10  C4  UNL     1     105.408  55.695  39.660  1.00  0.00     0.120 A 
HETATM   11  C3  UNL     1     106.535  55.513  38.862  1.00  0.00     0.115 A 
HETATM   12  C21 UNL     1     107.669  56.241  39.184  1.00  0.00     0.283 A 
HETATM   13  N6  UNL     1     107.686  57.092  40.224  1.00  0.00    -0.225 N 
HETATM   14  O9  UNL     1     108.709  56.088  38.465  1.00  0.00    -0.265 OA
BRANCH   9  15
HETATM   15  O3  UNL     1     104.359  56.782  41.533  1.00  0.00    -0.356 OA
ATOM     16  H3  UNL     1     103.494  56.881  41.151  1.00  0.00     0.218 HD
ENDBRANCH   9  15
BRANCH  10  17
HETATM   17  O2  UNL     1     104.253  54.996  39.386  1.00  0.00    -0.357 OA
ATOM     18  H2  UNL     1     103.488  55.456  39.061  1.00  0.00     0.218 HD
ENDBRANCH  10  17
BRANCH  11  19
HETATM   19  C2  UNL     1     106.492  54.597  37.749  1.00  0.00     0.164 C 
HETATM   20  C1  UNL     1     107.165  53.303  37.709  1.00  0.00     0.097 C 
HETATM   21  O1  UNL     1     105.809  54.965  36.733  1.00  0.00    -0.292 OA
ENDBRANCH  11  19
BRANCH  13  22
HETATM   22  N7  UNL     1     108.864  57.797  40.493  1.00  0.00    -0.335 N 
ATOM     23  H72 UNL     1     109.073  58.047  41.459  1.00  0.00     0.177 HD
ATOM     24  H71 UNL     1     109.475  58.037  39.711  1.00  0.00     0.177 HD
ENDBRANCH  13  22
ENDBRANCH   7   8
ENDBRANCH   6   7
ENDBRANCH   3   6
ENDBRANCH   1   2
BRANCH   1  25
HETATM   25  C10 UNL     1     109.603  62.610  43.791  1.00  0.00     0.236 C 
HETATM   26  O6  UNL     1     110.585  62.711  44.558  1.00  0.00    -0.272 OA
HETATM   27  N2  UNL     1     109.636  63.314  42.568  1.00  0.00    -0.346 N 
ATOM     28  H2  UNL     1     108.835  63.235  41.941  1.00  0.00     0.163 HD
BRANCH  27  29
HETATM   29  C11 UNL     1     110.744  64.139  42.164  1.00  0.00     0.181 C 
BRANCH  29  30
HETATM   30  C12 UNL     1     111.348  65.005  43.201  1.00  0.00     0.076 C 
BRANCH  30  31
HETATM   31  C13 UNL     1     111.508  66.421  42.906  1.00  0.00    -0.023 A 
HETATM   32  C14 UNL     1     110.567  67.382  43.240  1.00  0.00     0.010 A 
HETATM   33  C15 UNL     1     110.742  68.729  43.025  1.00  0.00     0.001 A 
HETATM   34  C16 UNL     1     111.902  69.175  42.450  1.00  0.00     0.003 A 
HETATM   35  C17 UNL     1     112.847  68.258  42.108  1.00  0.00     0.037 A 
HETATM   36  C18 UNL     1     112.663  66.880  42.329  1.00  0.00     0.072 A 
BRANCH  36  37
HETATM   37  O7  UNL     1     113.717  66.100  41.910  1.00  0.00    -0.360 OA
ATOM     38  H7  UNL     1     114.082  66.086  41.033  1.00  0.00     0.217 HD
ENDBRANCH  36  37
ENDBRANCH  30  31
ENDBRANCH  29  30
BRANCH  29  39
HETATM   39  C19 UNL     1     111.818  63.249  41.650  1.00  0.00     0.247 C 
HETATM   40  O8  UNL     1     112.965  63.263  42.169  1.00  0.00    -0.271 OA
HETATM   41  N3  UNL     1     111.535  62.388  40.573  1.00  0.00    -0.300 N 
HETATM   42  C20 UNL     1     112.503  61.506  40.016  1.00  0.00     0.188 C 
ATOM     43  H3  UNL     1     110.596  62.395  40.176  1.00  0.00     0.171 HD
HETATM   44  N4  UNL     1     112.270  60.712  39.036  1.00  0.00    -0.373 N 
HETATM   45  N5  UNL     1     113.803  61.515  40.580  1.00  0.00    -0.064 NA
ATOM     46  H42 UNL     1     111.334  60.705  38.631  1.00  0.00     0.158 HD
ATOM     47  H41 UNL     1     112.964  60.080  38.636  1.00  0.00     0.158 HD
ENDBRANCH  29  39
ENDBRANCH  27  29
ENDBRANCH   1  25
TORSDOF 14
ENDMDL
MODEL 5
REMARK VINA RESULT: -10.049709131      1.179      1.283
REMARK  14 active torsions:
REMARK  status: ('A' for Active; 'I' for Inactive)
REMARK    1  A    between atoms: C2_2  and  C3_4 
REMARK    2  A    between atoms: C4_5  and  O2_6 
REMARK    3  A    between atoms: C5_8  and  O3_9 
REMARK    4  A    between atoms: C6_11  and  C7_12 
REMARK    5  A    between atoms: C7_12  and  O4_13 
REMARK    6  A    between atoms: O4_13  and  C8_14 
REMARK       I    between atoms: C8_14  and  N1_16 
REMARK    7  A    between atoms: N1_16  and  C9_18 
REMARK    8  A    between atoms: C9_18  and  C10_19 
REMARK       I    between atoms: C10_19  and  N2_21 
REMARK    9  A    between atoms: N2_21  and  C11_23 
REMARK   10  A    between atoms: C11_23  and  C12_24 
REMARK   11  A    between atoms: C11_23  and  C19_33 
REMARK   12  A    between atoms: C12_24  and  C13_25 
REMARK   13  A    between atoms: C18_30  and  O7_31 
REMARK       I    between atoms: C19_33  and  N3_35 
REMARK       I    between atoms: N3_35  and  C20_37 
REMARK   14  A    between atoms: N6_42  and  N7_43 
ROOT
HETATM    1  C9  UNL     1     108.886  61.593  44.314  1.00  0.00     0.227 C 
ENDROOT
BRANCH   1   2
HETATM    2  N1  UNL     1     107.883  60.658  43.858  1.00  0.00    -0.328 N 
HETATM    3  C8  UNL     1     108.249  59.322  43.580  1.00  0.00     0.361 C 
HETATM    4  O5  UNL     1     109.423  58.894  43.720  1.00  0.00    -0.238 OA
ATOM      5  H1  UNL     1     106.917  60.961  43.738  1.00  0.00     0.165 HD
BRANCH   3   6
HETATM    6  O4  UNL     1     107.331  58.368  43.126  1.00  0.00    -0.298 OA
BRANCH   6   7
HETATM    7  C7  UNL     1     106.531  58.590  41.986  1.00  0.00     0.243 C 
BRANCH   7   8
HETATM    8  C6  UNL     1     106.618  57.497  41.009  1.00  0.00     0.097 A 
HETATM    9  C5  UNL     1     105.433  56.783  40.767  1.00  0.00     0.127 A 
HETATM   10  C4  UNL     1     105.415  55.728  39.863  1.00  0.00     0.120 A 
HETATM   11  C3  UNL     1     106.586  55.379  39.193  1.00  0.00     0.115 A 
HETATM   12  C21 UNL     1     107.725  56.118  39.473  1.00  0.00     0.283 A 
HETATM   13  N6  UNL     1     107.705  57.133  40.354  1.00  0.00    -0.225 N 
HETATM   14  O9  UNL     1     108.804  55.813  38.870  1.00  0.00    -0.265 OA
BRANCH   9  15
HETATM   15  O3  UNL     1     104.285  57.149  41.442  1.00  0.00    -0.356 OA
ATOM     16  H3  UNL     1     103.575  56.529  41.560  1.00  0.00     0.218 HD
ENDBRANCH   9  15
BRANCH  10  17
HETATM   17  O2  UNL     1     104.254  55.027  39.623  1.00  0.00    -0.357 OA
ATOM     18  H2  UNL     1     103.416  55.473  39.658  1.00  0.00     0.218 HD
ENDBRANCH  10  17
BRANCH  11  19
HETATM   19  C2  UNL     1     106.581  54.288  38.250  1.00  0.00     0.164 C 
HETATM   20  C1  UNL     1     107.059  52.940  38.535  1.00  0.00     0.097 C 
HETATM   21  O1  UNL     1     106.120  54.543  37.085  1.00  0.00    -0.292 OA
ENDBRANCH  11  19
BRANCH  13  22
HETATM   22  N7  UNL     1     108.891  57.838  40.588  1.00  0.00    -0.335 N 
ATOM     23  H72 UNL     1     109.366  58.269  39.795  1.00  0.00     0.177 HD
ATOM     24  H71 UNL     1     109.240  57.895  41.544  1.00  0.00     0.177 HD
ENDBRANCH  13  22
ENDBRANCH   7   8
ENDBRANCH   6   7
ENDBRANCH   3   6
ENDBRANCH   1   2
BRANCH   1  25
HETATM   25  C10 UNL     1     109.544  62.348  43.241  1.00  0.00     0.236 C 
HETATM   26  O6  UNL     1     108.998  62.456  42.121  1.00  0.00    -0.272 OA
HETATM   27  N2  UNL     1     110.795  62.971  43.437  1.00  0.00    -0.346 N 
ATOM     28  H2  UNL     1     111.244  62.883  44.349  1.00  0.00     0.163 HD
BRANCH  27  29
HETATM   29  C11 UNL     1     111.469  63.723  42.412  1.00  0.00     0.181 C 
BRANCH  29  30
HETATM   30  C12 UNL     1     112.405  64.779  42.860  1.00  0.00     0.076 C 
BRANCH  30  31
HETATM   31  C13 UNL     1     111.969  66.165  42.773  1.00  0.00    -0.023 A 
HETATM   32  C14 UNL     1     110.717  66.599  43.182  1.00  0.00     0.010 A 
HETATM   33  C15 UNL     1     110.324  67.916  43.165  1.00  0.00     0.001 A 
HETATM   34  C16 UNL     1     111.196  68.876  42.726  1.00  0.00     0.003 A 
HETATM   35  C17 UNL     1     112.433  68.484  42.316  1.00  0.00     0.037 A 
HETATM   36  C18 UNL     1     112.831  67.134  42.333  1.00  0.00     0.072 A 
BRANCH  36  37
HETATM   37  O7  UNL     1     114.111  66.921  41.872  1.00  0.00    -0.360 OA
ATOM     38  H7  UNL     1     114.907  67.242  42.279  1.00  0.00     0.217 HD
ENDBRANCH  36  37
ENDBRANCH  30  31
ENDBRANCH  29  30
BRANCH  29  39
HETATM   39  C19 UNL     1     112.246  62.770  41.575  1.00  0.00     0.247 C 
HETATM   40  O8  UNL     1     112.220  62.852  40.319  1.00  0.00    -0.271 OA
HETATM   41  N3  UNL     1     113.013  61.774  42.207  1.00  0.00    -0.300 N 
HETATM   42  C20 UNL     1     113.783  60.819  41.486  1.00  0.00     0.188 C 
ATOM     43  H3  UNL     1     113.018  61.735  43.226  1.00  0.00     0.171 HD
HETATM   44  N4  UNL     1     114.491  59.904  42.038  1.00  0.00    -0.373 N 
HETATM   45  N5  UNL     1     113.758  60.888  40.070  1.00  0.00    -0.064 NA
ATOM     46  H42 UNL     1     114.509  59.854  43.056  1.00  0.00     0.158 HD
ATOM     47  H41 UNL     1     115.043  59.219  41.521  1.00  0.00     0.158 HD
ENDBRANCH  29  39
ENDBRANCH  27  29
ENDBRANCH   1  25
TORSDOF 14
ENDMDL
