MODEL 1
REMARK VINA RESULT: -8.126761033      0.000      0.000
REMARK  12 active torsions:
REMARK  status: ('A' for Active; 'I' for Inactive)
REMARK    1  A    between atoms: C3_5  and  N2_6 
REMARK    2  A    between atoms: C4_10  and  N3_11 
REMARK       I    between atoms: N3_11  and  C5_13 
REMARK    3  A    between atoms: C5_13  and  C6_15 
REMARK    4  A    between atoms: C6_15  and  N4_16 
REMARK    5  A    between atoms: C8_18  and  N5_19 
REMARK    6  A    between atoms: C9_24  and  N8_25 
REMARK    7  A    between atoms: C10_30  and  N10_31 
REMARK    8  A    between atoms: N10_31  and  O2_32 
REMARK    9  A    between atoms: N11_34  and  O3_36 
REMARK   10  A    between atoms: O3_36  and  C11_37 
REMARK   11  A    between atoms: C11_37  and  N13_41 
REMARK   12  A    between atoms: N13_41  and  N14_43 
ROOT
HETATM    1  N4  UNL     1     -10.977  97.757  18.574  1.00  0.00    -0.290 N 
HETATM    2  C7  UNL     1     -10.389  96.963  17.653  1.00  0.00     0.148 A 
HETATM    3  C8  UNL     1     -10.905  97.236  16.403  1.00  0.00     0.143 A 
HETATM    4  C10 UNL     1     -11.834  98.235  16.605  1.00  0.00     0.200 A 
HETATM    5  N15 UNL     1     -11.851  98.522  17.923  1.00  0.00    -0.278 N 
ATOM      6  H15 UNL     1     -12.447  99.226  18.358  1.00  0.00     0.189 HD
ENDROOT
BRANCH   1   7
HETATM    7  C6  UNL     1     -10.758  97.825  19.995  1.00  0.00     0.251 C 
BRANCH   7   8
HETATM    8  C5  UNL     1     -11.730  96.849  20.685  1.00  0.00     0.242 C 
HETATM    9  N3  UNL     1     -11.363  96.255  21.856  1.00  0.00    -0.318 N 
ATOM     10  H3  UNL     1     -10.437  96.538  22.175  1.00  0.00     0.169 HD
HETATM   11  O1  UNL     1     -12.781  96.719  20.056  1.00  0.00    -0.271 OA
BRANCH   9  12
HETATM   12  C4  UNL     1     -11.986  95.335  22.721  1.00  0.00     0.102 A 
HETATM   13  C2  UNL     1     -12.649  94.161  22.664  1.00  0.00     0.041 A 
HETATM   14  C1  UNL     1     -12.817  93.416  21.341  1.00  0.00     0.071 C 
HETATM   15  N1  UNL     1     -13.128  93.637  23.768  1.00  0.00    -0.338 N 
HETATM   16  C3  UNL     1     -12.954  94.265  24.919  1.00  0.00     0.144 A 
ATOM     17  H1  UNL     1     -13.632  92.751  23.738  1.00  0.00     0.168 HD
HETATM   18  S1  UNL     1     -12.093  95.640  24.479  1.00  0.00    -0.035 SA
BRANCH  16  19
HETATM   19  N2  UNL     1     -13.373  93.867  26.105  1.00  0.00    -0.380 N 
ATOM     20  H22 UNL     1     -13.845  93.006  26.382  1.00  0.00     0.158 HD
ATOM     21  H21 UNL     1     -13.293  94.379  26.983  1.00  0.00     0.158 HD
ENDBRANCH  16  19
ENDBRANCH   9  12
ENDBRANCH   7   8
ENDBRANCH   1   7
BRANCH   3  22
HETATM   22  N5  UNL     1     -10.540  96.605  15.151  1.00  0.00    -0.162 N 
HETATM   23  N6  UNL     1     -10.595  95.312  14.911  1.00  0.00    -0.206 N 
HETATM   24  N7  UNL     1     -10.196  95.089  13.688  1.00  0.00    -0.115 N 
ATOM     25  H6  UNL     1     -10.900  94.599  15.574  1.00  0.00     0.211 HD
HETATM   26  C9  UNL     1      -9.880  96.257  13.132  1.00  0.00     0.707 A 
ATOM     27  H7  UNL     1     -10.137  94.177  13.236  1.00  0.00     0.207 HD
HETATM   28  N9  UNL     1     -10.103  97.189  14.066  1.00  0.00    -0.108 N 
ATOM     29  H9  UNL     1      -9.956  98.191  13.950  1.00  0.00     0.208 HD
BRANCH  26  30
HETATM   30  N8  UNL     1      -9.449  96.458  11.947  1.00  0.00    -0.232 N 
ATOM     31  H82 UNL     1      -8.690  95.957  11.485  1.00  0.00     0.174 HD
ATOM     32  H81 UNL     1      -9.789  97.145  11.273  1.00  0.00     0.174 HD
ENDBRANCH  26  30
ENDBRANCH   3  22
BRANCH   4  33
HETATM   33  N10 UNL     1     -12.619  98.834  15.594  1.00  0.00    -0.122 N 
HETATM   34  N11 UNL     1     -12.939 100.062  15.670  1.00  0.00    -0.170 N 
ATOM     35  H11 UNL     1     -12.623 100.612  16.469  1.00  0.00     0.219 HD
BRANCH  33  36
HETATM   36  O2  UNL     1     -13.051  98.111  14.514  1.00  0.00    -0.265 OA
ATOM     37  H2  UNL     1     -13.819  98.378  14.022  1.00  0.00     0.247 HD
ENDBRANCH  33  36
BRANCH  34  38
HETATM   38  O3  UNL     1     -13.701 100.663  14.697  1.00  0.00    -0.182 OA
BRANCH  38  39
HETATM   39  C11 UNL     1     -13.214 101.839  14.155  1.00  0.00     0.257 C 
HETATM   40  N12 UNL     1     -13.836 102.934  14.376  1.00  0.00    -0.363 N 
ATOM     41 2H12 UNL     1     -14.680 102.933  14.947  1.00  0.00     0.159 HD
ATOM     42 1H12 UNL     1     -13.477 103.801  13.975  1.00  0.00     0.159 HD
BRANCH  39  43
HETATM   43  N13 UNL     1     -12.050 101.841  13.367  1.00  0.00    -0.270 N 
ATOM     44  H13 UNL     1     -12.080 101.491  12.409  1.00  0.00     0.190 HD
BRANCH  43  45
HETATM   45  N14 UNL     1     -10.854 102.321  13.895  1.00  0.00    -0.342 N 
ATOM     46 2H14 UNL     1     -10.774 102.451  14.904  1.00  0.00     0.176 HD
ATOM     47 1H14 UNL     1     -10.074 102.538  13.275  1.00  0.00     0.176 HD
ENDBRANCH  43  45
ENDBRANCH  39  43
ENDBRANCH  38  39
ENDBRANCH  34  38
ENDBRANCH   4  33
TORSDOF 12
ENDMDL
MODEL 2
REMARK VINA RESULT: -8.101732141      2.696      3.990
REMARK  12 active torsions:
REMARK  status: ('A' for Active; 'I' for Inactive)
REMARK    1  A    between atoms: C3_5  and  N2_6 
REMARK    2  A    between atoms: C4_10  and  N3_11 
REMARK       I    between atoms: N3_11  and  C5_13 
REMARK    3  A    between atoms: C5_13  and  C6_15 
REMARK    4  A    between atoms: C6_15  and  N4_16 
REMARK    5  A    between atoms: C8_18  and  N5_19 
REMARK    6  A    between atoms: C9_24  and  N8_25 
REMARK    7  A    between atoms: C10_30  and  N10_31 
REMARK    8  A    between atoms: N10_31  and  O2_32 
REMARK    9  A    between atoms: N11_34  and  O3_36 
REMARK   10  A    between atoms: O3_36  and  C11_37 
REMARK   11  A    between atoms: C11_37  and  N13_41 
REMARK   12  A    between atoms: N13_41  and  N14_43 
ROOT
HETATM    1  N4  UNL     1     -11.628  95.635  19.643  1.00  0.00    -0.290 N 
HETATM    2  C7  UNL     1     -12.273  96.070  18.539  1.00  0.00     0.148 A 
HETATM    3  C8  UNL     1     -11.616  97.161  18.011  1.00  0.00     0.143 A 
HETATM    4  C10 UNL     1     -10.537  97.370  18.844  1.00  0.00     0.200 A 
HETATM    5  N15 UNL     1     -10.576  96.434  19.814  1.00  0.00    -0.278 N 
ATOM      6  H15 UNL     1      -9.897  96.350  20.570  1.00  0.00     0.189 HD
ENDROOT
BRANCH   1   7
HETATM    7  C6  UNL     1     -11.946  94.534  20.513  1.00  0.00     0.251 C 
BRANCH   7   8
HETATM    8  C5  UNL     1     -12.308  95.099  21.900  1.00  0.00     0.242 C 
HETATM    9  N3  UNL     1     -12.364  94.259  22.972  1.00  0.00    -0.318 N 
ATOM     10  H3  UNL     1     -12.141  93.292  22.734  1.00  0.00     0.169 HD
HETATM   11  O1  UNL     1     -12.516  96.313  21.867  1.00  0.00    -0.271 OA
BRANCH   9  12
HETATM   12  C4  UNL     1     -12.662  94.435  24.337  1.00  0.00     0.102 A 
HETATM   13  C2  UNL     1     -13.192  93.743  25.368  1.00  0.00     0.041 A 
HETATM   14  C1  UNL     1     -13.589  92.276  25.210  1.00  0.00     0.071 C 
HETATM   15  N1  UNL     1     -13.338  94.332  26.532  1.00  0.00    -0.338 N 
HETATM   16  C3  UNL     1     -12.963  95.592  26.679  1.00  0.00     0.144 A 
ATOM     17  H1  UNL     1     -13.737  93.821  27.318  1.00  0.00     0.168 HD
HETATM   18  S1  UNL     1     -12.381  95.998  25.155  1.00  0.00    -0.035 SA
BRANCH  16  19
HETATM   19  N2  UNL     1     -13.044  96.315  27.779  1.00  0.00    -0.380 N 
ATOM     20  H22 UNL     1     -13.809  96.891  28.133  1.00  0.00     0.158 HD
ATOM     21  H21 UNL     1     -12.322  96.426  28.491  1.00  0.00     0.158 HD
ENDBRANCH  16  19
ENDBRANCH   9  12
ENDBRANCH   7   8
ENDBRANCH   1   7
BRANCH   3  22
HETATM   22  N5  UNL     1     -11.985  97.917  16.831  1.00  0.00    -0.162 N 
HETATM   23  N6  UNL     1     -12.021  97.437  15.607  1.00  0.00    -0.206 N 
HETATM   24  N7  UNL     1     -12.393  98.386  14.790  1.00  0.00    -0.115 N 
ATOM     25  H6  UNL     1     -11.795  96.479  15.338  1.00  0.00     0.211 HD
HETATM   26  C9  UNL     1     -12.600  99.493  15.500  1.00  0.00     0.707 A 
ATOM     27  H7  UNL     1     -12.506  98.294  13.780  1.00  0.00     0.207 HD
HETATM   28  N9  UNL     1     -12.337  99.174  16.774  1.00  0.00    -0.108 N 
ATOM     29  H9  UNL     1     -12.402  99.809  17.569  1.00  0.00     0.208 HD
BRANCH  26  30
HETATM   30  N8  UNL     1     -12.972 100.634  15.065  1.00  0.00    -0.232 N 
ATOM     31  H82 UNL     1     -13.853 100.846  14.597  1.00  0.00     0.174 HD
ATOM     32  H81 UNL     1     -12.457 101.513  15.114  1.00  0.00     0.174 HD
ENDBRANCH  26  30
ENDBRANCH   3  22
BRANCH   4  33
HETATM   33  N10 UNL     1      -9.574  98.393  18.688  1.00  0.00    -0.122 N 
HETATM   34  N11 UNL     1      -9.797  99.562  19.137  1.00  0.00    -0.170 N 
ATOM     35  H11 UNL     1     -10.679  99.755  19.611  1.00  0.00     0.219 HD
BRANCH  33  36
HETATM   36  O2  UNL     1      -8.384  98.152  18.054  1.00  0.00    -0.265 OA
ATOM     37  H2  UNL     1      -7.811  98.866  17.799  1.00  0.00     0.247 HD
ENDBRANCH  33  36
BRANCH  34  38
HETATM   38  O3  UNL     1      -8.873 100.569  18.995  1.00  0.00    -0.182 OA
BRANCH  38  39
HETATM   39  C11 UNL     1      -9.256 101.673  18.254  1.00  0.00     0.257 C 
HETATM   40  N12 UNL     1      -9.782 101.501  17.103  1.00  0.00    -0.363 N 
ATOM     41 2H12 UNL     1      -9.917 100.557  16.740  1.00  0.00     0.159 HD
ATOM     42 1H12 UNL     1     -10.064 102.315  16.556  1.00  0.00     0.159 HD
BRANCH  39  43
HETATM   43  N13 UNL     1      -9.071 102.974  18.753  1.00  0.00    -0.270 N 
ATOM     44  H13 UNL     1      -9.489 103.770  18.272  1.00  0.00     0.190 HD
BRANCH  43  45
HETATM   45  N14 UNL     1      -8.316 103.175  19.906  1.00  0.00    -0.342 N 
ATOM     46 2H14 UNL     1      -8.336 102.469  20.642  1.00  0.00     0.176 HD
ATOM     47 1H14 UNL     1      -7.754 104.020  20.005  1.00  0.00     0.176 HD
ENDBRANCH  43  45
ENDBRANCH  39  43
ENDBRANCH  38  39
ENDBRANCH  34  38
ENDBRANCH   4  33
TORSDOF 12
ENDMDL
MODEL 3
REMARK VINA RESULT: -8.014203750      1.103      1.203
REMARK  12 active torsions:
REMARK  status: ('A' for Active; 'I' for Inactive)
REMARK    1  A    between atoms: C3_5  and  N2_6 
REMARK    2  A    between atoms: C4_10  and  N3_11 
REMARK       I    between atoms: N3_11  and  C5_13 
REMARK    3  A    between atoms: C5_13  and  C6_15 
REMARK    4  A    between atoms: C6_15  and  N4_16 
REMARK    5  A    between atoms: C8_18  and  N5_19 
REMARK    6  A    between atoms: C9_24  and  N8_25 
REMARK    7  A    between atoms: C10_30  and  N10_31 
REMARK    8  A    between atoms: N10_31  and  O2_32 
REMARK    9  A    between atoms: N11_34  and  O3_36 
REMARK   10  A    between atoms: O3_36  and  C11_37 
REMARK   11  A    between atoms: C11_37  and  N13_41 
REMARK   12  A    between atoms: N13_41  and  N14_43 
ROOT
HETATM    1  N4  UNL     1     -11.072  97.814  18.611  1.00  0.00    -0.290 N 
HETATM    2  C7  UNL     1     -10.502  96.975  17.719  1.00  0.00     0.148 A 
HETATM    3  C8  UNL     1     -10.993  97.229  16.455  1.00  0.00     0.143 A 
HETATM    4  C10 UNL     1     -11.890  98.265  16.619  1.00  0.00     0.200 A 
HETATM    5  N15 UNL     1     -11.911  98.591  17.927  1.00  0.00    -0.278 N 
ATOM      6  H15 UNL     1     -12.487  99.326  18.335  1.00  0.00     0.189 HD
ENDROOT
BRANCH   1   7
HETATM    7  C6  UNL     1     -10.866  97.915  20.031  1.00  0.00     0.251 C 
BRANCH   7   8
HETATM    8  C5  UNL     1     -10.891  96.495  20.629  1.00  0.00     0.242 C 
HETATM    9  N3  UNL     1     -12.089  95.894  20.877  1.00  0.00    -0.318 N 
ATOM     10  H3  UNL     1     -12.888  96.474  20.622  1.00  0.00     0.169 HD
HETATM   11  O1  UNL     1      -9.757  96.052  20.820  1.00  0.00    -0.271 OA
BRANCH   9  12
HETATM   12  C4  UNL     1     -12.463  94.646  21.411  1.00  0.00     0.102 A 
HETATM   13  C2  UNL     1     -12.764  93.400  20.989  1.00  0.00     0.041 A 
HETATM   14  C1  UNL     1     -12.655  93.021  19.513  1.00  0.00     0.071 C 
HETATM   15  N1  UNL     1     -13.125  92.492  21.866  1.00  0.00    -0.338 N 
HETATM   16  C3  UNL     1     -13.187  92.810  23.148  1.00  0.00     0.144 A 
ATOM     17  H1  UNL     1     -13.355  91.547  21.560  1.00  0.00     0.168 HD
HETATM   18  S1  UNL     1     -12.731  94.427  23.164  1.00  0.00    -0.035 SA
BRANCH  16  19
HETATM   19  N2  UNL     1     -13.529  92.012  24.142  1.00  0.00    -0.380 N 
ATOM     20  H22 UNL     1     -12.947  91.526  24.825  1.00  0.00     0.158 HD
ATOM     21  H21 UNL     1     -14.474  91.736  24.404  1.00  0.00     0.158 HD
ENDBRANCH  16  19
ENDBRANCH   9  12
ENDBRANCH   7   8
ENDBRANCH   1   7
BRANCH   3  22
HETATM   22  N5  UNL     1     -10.637  96.551  15.226  1.00  0.00    -0.162 N 
HETATM   23  N6  UNL     1     -10.709  95.251  15.032  1.00  0.00    -0.206 N 
HETATM   24  N7  UNL     1     -10.313  94.981  13.817  1.00  0.00    -0.115 N 
ATOM     25  H6  UNL     1     -11.022  94.565  15.719  1.00  0.00     0.211 HD
HETATM   26  C9  UNL     1      -9.982  96.124  13.220  1.00  0.00     0.707 A 
ATOM     27  H7  UNL     1     -10.265  94.053  13.397  1.00  0.00     0.207 HD
HETATM   28  N9  UNL     1     -10.193  97.091  14.122  1.00  0.00    -0.108 N 
ATOM     29  H9  UNL     1     -10.033  98.087  13.971  1.00  0.00     0.208 HD
BRANCH  26  30
HETATM   30  N8  UNL     1      -9.549  96.279  12.029  1.00  0.00    -0.232 N 
ATOM     31  H82 UNL     1     -10.115  96.365  11.185  1.00  0.00     0.174 HD
ATOM     32  H81 UNL     1      -8.577  96.344  11.727  1.00  0.00     0.174 HD
ENDBRANCH  26  30
ENDBRANCH   3  22
BRANCH   4  33
HETATM   33  N10 UNL     1     -12.642  98.863  15.582  1.00  0.00    -0.122 N 
HETATM   34  N11 UNL     1     -12.964 100.090  15.645  1.00  0.00    -0.170 N 
ATOM     35  H11 UNL     1     -12.674 100.642  16.452  1.00  0.00     0.219 HD
BRANCH  33  36
HETATM   36  O2  UNL     1     -13.039  98.137  14.490  1.00  0.00    -0.265 OA
ATOM     37  H2  UNL     1     -13.903  98.254  14.113  1.00  0.00     0.247 HD
ENDBRANCH  33  36
BRANCH  34  38
HETATM   38  O3  UNL     1     -13.694 100.689  14.647  1.00  0.00    -0.182 OA
BRANCH  38  39
HETATM   39  C11 UNL     1     -13.196 101.870  14.126  1.00  0.00     0.257 C 
HETATM   40  N12 UNL     1     -13.791 102.970  14.391  1.00  0.00    -0.363 N 
ATOM     41 2H12 UNL     1     -14.622 102.970  14.982  1.00  0.00     0.159 HD
ATOM     42 1H12 UNL     1     -13.424 103.841  14.006  1.00  0.00     0.159 HD
BRANCH  39  43
HETATM   43  N13 UNL     1     -12.051 101.871  13.311  1.00  0.00    -0.270 N 
ATOM     44  H13 UNL     1     -12.111 101.552  12.344  1.00  0.00     0.190 HD
BRANCH  43  45
HETATM   45  N14 UNL     1     -10.833 102.309  13.826  1.00  0.00    -0.342 N 
ATOM     46 2H14 UNL     1     -10.825 103.082  14.491  1.00  0.00     0.176 HD
ATOM     47 1H14 UNL     1      -9.966 101.856  13.537  1.00  0.00     0.176 HD
ENDBRANCH  43  45
ENDBRANCH  39  43
ENDBRANCH  38  39
ENDBRANCH  34  38
ENDBRANCH   4  33
TORSDOF 12
ENDMDL
MODEL 4
REMARK VINA RESULT: -7.967974157      1.440      1.867
REMARK  12 active torsions:
REMARK  status: ('A' for Active; 'I' for Inactive)
REMARK    1  A    between atoms: C3_5  and  N2_6 
REMARK    2  A    between atoms: C4_10  and  N3_11 
REMARK       I    between atoms: N3_11  and  C5_13 
REMARK    3  A    between atoms: C5_13  and  C6_15 
REMARK    4  A    between atoms: C6_15  and  N4_16 
REMARK    5  A    between atoms: C8_18  and  N5_19 
REMARK    6  A    between atoms: C9_24  and  N8_25 
REMARK    7  A    between atoms: C10_30  and  N10_31 
REMARK    8  A    between atoms: N10_31  and  O2_32 
REMARK    9  A    between atoms: N11_34  and  O3_36 
REMARK   10  A    between atoms: O3_36  and  C11_37 
REMARK   11  A    between atoms: C11_37  and  N13_41 
REMARK   12  A    between atoms: N13_41  and  N14_43 
ROOT
HETATM    1  N4  UNL     1     -10.933  97.784  18.584  1.00  0.00    -0.290 N 
HETATM    2  C7  UNL     1     -10.366  96.964  17.673  1.00  0.00     0.148 A 
HETATM    3  C8  UNL     1     -10.891  97.218  16.423  1.00  0.00     0.143 A 
HETATM    4  C10 UNL     1     -11.806  98.233  16.615  1.00  0.00     0.200 A 
HETATM    5  N15 UNL     1     -11.804  98.548  17.927  1.00  0.00    -0.278 N 
ATOM      6  H15 UNL     1     -12.386  99.268  18.354  1.00  0.00     0.189 HD
ENDROOT
BRANCH   1   7
HETATM    7  C6  UNL     1     -10.698  97.877  20.000  1.00  0.00     0.251 C 
BRANCH   7   8
HETATM    8  C5  UNL     1     -10.797  96.464  20.606  1.00  0.00     0.242 C 
HETATM    9  N3  UNL     1     -12.015  95.861  20.702  1.00  0.00    -0.318 N 
ATOM     10  H3  UNL     1     -12.776  96.435  20.337  1.00  0.00     0.169 HD
HETATM   11  O1  UNL     1      -9.697  96.028  20.948  1.00  0.00    -0.271 OA
BRANCH   9  12
HETATM   12  C4  UNL     1     -12.453  94.617  21.195  1.00  0.00     0.102 A 
HETATM   13  C2  UNL     1     -12.817  94.048  22.363  1.00  0.00     0.041 A 
HETATM   14  C1  UNL     1     -12.905  94.873  23.646  1.00  0.00     0.071 C 
HETATM   15  N1  UNL     1     -13.132  92.774  22.390  1.00  0.00    -0.338 N 
HETATM   16  C3  UNL     1     -13.089  92.067  21.273  1.00  0.00     0.144 A 
ATOM     17  H1  UNL     1     -13.408  92.332  23.266  1.00  0.00     0.168 HD
HETATM   18  S1  UNL     1     -12.596  93.192  20.126  1.00  0.00    -0.035 SA
BRANCH  16  19
HETATM   19  N2  UNL     1     -13.375  90.786  21.140  1.00  0.00    -0.380 N 
ATOM     20  H22 UNL     1     -14.225  90.333  20.801  1.00  0.00     0.158 HD
ATOM     21  H21 UNL     1     -12.768  89.998  21.365  1.00  0.00     0.158 HD
ENDBRANCH  16  19
ENDBRANCH   9  12
ENDBRANCH   7   8
ENDBRANCH   1   7
BRANCH   3  22
HETATM   22  N5  UNL     1     -10.549  96.557  15.180  1.00  0.00    -0.162 N 
HETATM   23  N6  UNL     1     -10.628  95.262  14.966  1.00  0.00    -0.206 N 
HETATM   24  N7  UNL     1     -10.244  95.009  13.744  1.00  0.00    -0.115 N 
ATOM     25  H6  UNL     1     -10.940  94.566  15.645  1.00  0.00     0.211 HD
HETATM   26  C9  UNL     1      -9.913  96.160  13.162  1.00  0.00     0.707 A 
ATOM     27  H7  UNL     1     -10.205  94.087  13.309  1.00  0.00     0.207 HD
HETATM   28  N9  UNL     1     -10.111  97.113  14.081  1.00  0.00    -0.108 N 
ATOM     29  H9  UNL     1      -9.948  98.111  13.945  1.00  0.00     0.208 HD
BRANCH  26  30
HETATM   30  N8  UNL     1      -9.489  96.331  11.970  1.00  0.00    -0.232 N 
ATOM     31  H82 UNL     1      -8.892  95.695  11.442  1.00  0.00     0.174 HD
ATOM     32  H81 UNL     1      -9.676  97.123  11.355  1.00  0.00     0.174 HD
ENDBRANCH  26  30
ENDBRANCH   3  22
BRANCH   4  33
HETATM   33  N10 UNL     1     -12.594  98.823  15.600  1.00  0.00    -0.122 N 
HETATM   34  N11 UNL     1     -12.906 100.053  15.660  1.00  0.00    -0.170 N 
ATOM     35  H11 UNL     1     -12.582 100.613  16.449  1.00  0.00     0.219 HD
BRANCH  33  36
HETATM   36  O2  UNL     1     -13.037  98.086  14.534  1.00  0.00    -0.265 OA
ATOM     37  H2  UNL     1     -12.818  98.333  13.643  1.00  0.00     0.247 HD
ENDBRANCH  33  36
BRANCH  34  38
HETATM   38  O3  UNL     1     -13.671 100.645  14.684  1.00  0.00    -0.182 OA
BRANCH  38  39
HETATM   39  C11 UNL     1     -13.197 101.827  14.145  1.00  0.00     0.257 C 
HETATM   40  N12 UNL     1     -13.815 102.918  14.392  1.00  0.00    -0.363 N 
ATOM     41 2H12 UNL     1     -14.647 102.910  14.982  1.00  0.00     0.159 HD
ATOM     42 1H12 UNL     1     -13.466 103.791  13.994  1.00  0.00     0.159 HD
BRANCH  39  43
HETATM   43  N13 UNL     1     -12.050 101.840  13.332  1.00  0.00    -0.270 N 
ATOM     44  H13 UNL     1     -12.103 101.506  12.370  1.00  0.00     0.190 HD
BRANCH  43  45
HETATM   45  N14 UNL     1     -10.843 102.310  13.842  1.00  0.00    -0.342 N 
ATOM     46 2H14 UNL     1     -10.652 103.311  13.823  1.00  0.00     0.176 HD
ATOM     47 1H14 UNL     1     -10.163 101.654  14.227  1.00  0.00     0.176 HD
ENDBRANCH  43  45
ENDBRANCH  39  43
ENDBRANCH  38  39
ENDBRANCH  34  38
ENDBRANCH   4  33
TORSDOF 12
ENDMDL
MODEL 5
REMARK VINA RESULT: -7.923158192      0.883      1.274
REMARK  12 active torsions:
REMARK  status: ('A' for Active; 'I' for Inactive)
REMARK    1  A    between atoms: C3_5  and  N2_6 
REMARK    2  A    between atoms: C4_10  and  N3_11 
REMARK       I    between atoms: N3_11  and  C5_13 
REMARK    3  A    between atoms: C5_13  and  C6_15 
REMARK    4  A    between atoms: C6_15  and  N4_16 
REMARK    5  A    between atoms: C8_18  and  N5_19 
REMARK    6  A    between atoms: C9_24  and  N8_25 
REMARK    7  A    between atoms: C10_30  and  N10_31 
REMARK    8  A    between atoms: N10_31  and  O2_32 
REMARK    9  A    between atoms: N11_34  and  O3_36 
REMARK   10  A    between atoms: O3_36  and  C11_37 
REMARK   11  A    between atoms: C11_37  and  N13_41 
REMARK   12  A    between atoms: N13_41  and  N14_43 
ROOT
HETATM    1  N4  UNL     1     -10.941  97.692  18.483  1.00  0.00    -0.290 N 
HETATM    2  C7  UNL     1     -10.386  96.877  17.560  1.00  0.00     0.148 A 
HETATM    3  C8  UNL     1     -10.909  97.155  16.314  1.00  0.00     0.143 A 
HETATM    4  C10 UNL     1     -11.809  98.180  16.521  1.00  0.00     0.200 A 
HETATM    5  N15 UNL     1     -11.802  98.477  17.837  1.00  0.00    -0.278 N 
ATOM      6  H15 UNL     1     -12.373  99.199  18.274  1.00  0.00     0.189 HD
ENDROOT
BRANCH   1   7
HETATM    7  C6  UNL     1     -10.704  97.763  19.900  1.00  0.00     0.251 C 
BRANCH   7   8
HETATM    8  C5  UNL     1     -11.698  96.824  20.609  1.00  0.00     0.242 C 
HETATM    9  N3  UNL     1     -11.297  96.135  21.715  1.00  0.00    -0.318 N 
ATOM     10  H3  UNL     1     -10.330  96.329  21.978  1.00  0.00     0.169 HD
HETATM   11  O1  UNL     1     -12.799  96.810  20.056  1.00  0.00    -0.271 OA
BRANCH   9  12
HETATM   12  C4  UNL     1     -11.926  95.215  22.575  1.00  0.00     0.102 A 
HETATM   13  C2  UNL     1     -12.176  95.046  23.890  1.00  0.00     0.041 A 
HETATM   14  C1  UNL     1     -11.787  96.116  24.909  1.00  0.00     0.071 C 
HETATM   15  N1  UNL     1     -12.792  93.960  24.295  1.00  0.00    -0.338 N 
HETATM   16  C3  UNL     1     -13.159  93.048  23.411  1.00  0.00     0.144 A 
ATOM     17  H1  UNL     1     -12.986  93.820  25.286  1.00  0.00     0.168 HD
HETATM   18  S1  UNL     1     -12.642  93.701  21.951  1.00  0.00    -0.035 SA
BRANCH  16  19
HETATM   19  N2  UNL     1     -13.784  91.913  23.661  1.00  0.00    -0.380 N 
ATOM     20  H22 UNL     1     -14.168  91.552  24.535  1.00  0.00     0.158 HD
ATOM     21  H21 UNL     1     -13.994  91.172  22.992  1.00  0.00     0.158 HD
ENDBRANCH  16  19
ENDBRANCH   9  12
ENDBRANCH   7   8
ENDBRANCH   1   7
BRANCH   3  22
HETATM   22  N5  UNL     1     -10.576  96.506  15.063  1.00  0.00    -0.162 N 
HETATM   23  N6  UNL     1     -10.712  95.221  14.818  1.00  0.00    -0.206 N 
HETATM   24  N7  UNL     1     -10.319  94.977  13.597  1.00  0.00    -0.115 N 
ATOM     25  H6  UNL     1     -11.066  94.526  15.476  1.00  0.00     0.211 HD
HETATM   26  C9  UNL     1      -9.925  96.124  13.047  1.00  0.00     0.707 A 
ATOM     27  H7  UNL     1     -10.315  94.064  13.142  1.00  0.00     0.207 HD
HETATM   28  N9  UNL     1     -10.095  97.065  13.983  1.00  0.00    -0.108 N 
ATOM     29  H9  UNL     1      -9.883  98.056  13.872  1.00  0.00     0.208 HD
BRANCH  26  30
HETATM   30  N8  UNL     1      -9.474  96.301  11.866  1.00  0.00    -0.232 N 
ATOM     31  H82 UNL     1      -9.953  96.771  11.098  1.00  0.00     0.174 HD
ATOM     32  H81 UNL     1      -8.568  96.007  11.498  1.00  0.00     0.174 HD
ENDBRANCH  26  30
ENDBRANCH   3  22
BRANCH   4  33
HETATM   33  N10 UNL     1     -12.589  98.794  15.515  1.00  0.00    -0.122 N 
HETATM   34  N11 UNL     1     -12.916 100.018  15.611  1.00  0.00    -0.170 N 
ATOM     35  H11 UNL     1     -12.610 100.555  16.423  1.00  0.00     0.219 HD
BRANCH  33  36
HETATM   36  O2  UNL     1     -13.008  98.089  14.418  1.00  0.00    -0.265 OA
ATOM     37  H2  UNL     1     -13.035  98.492  13.558  1.00  0.00     0.247 HD
ENDBRANCH  33  36
BRANCH  34  38
HETATM   38  O3  UNL     1     -13.674 100.633  14.644  1.00  0.00    -0.182 OA
BRANCH  38  39
HETATM   39  C11 UNL     1     -13.195 101.827  14.134  1.00  0.00     0.257 C 
HETATM   40  N12 UNL     1     -13.809 102.914  14.406  1.00  0.00    -0.363 N 
ATOM     41 2H12 UNL     1     -14.643 102.894  14.993  1.00  0.00     0.159 HD
ATOM     42 1H12 UNL     1     -13.456 103.794  14.030  1.00  0.00     0.159 HD
BRANCH  39  43
HETATM   43  N13 UNL     1     -12.045 101.855  13.325  1.00  0.00    -0.270 N 
ATOM     44  H13 UNL     1     -12.095 101.537  12.357  1.00  0.00     0.190 HD
BRANCH  43  45
HETATM   45  N14 UNL     1     -10.840 102.317  13.847  1.00  0.00    -0.342 N 
ATOM     46 2H14 UNL     1     -10.820 103.214  14.331  1.00  0.00     0.176 HD
ATOM     47 1H14 UNL     1      -9.993 101.759  13.741  1.00  0.00     0.176 HD
ENDBRANCH  43  45
ENDBRANCH  39  43
ENDBRANCH  38  39
ENDBRANCH  34  38
ENDBRANCH   4  33
TORSDOF 12
ENDMDL
