MODEL 1
REMARK VINA RESULT: -8.821475310      0.000      0.000
REMARK  11 active torsions:
REMARK  status: ('A' for Active; 'I' for Inactive)
REMARK    1  A    between atoms: C2_2  and  N1_4 
REMARK    2  A    between atoms: N1_4  and  N2_5 
REMARK       I    between atoms: N1_4  and  C4_8 
REMARK    3  A    between atoms: N2_5  and  O1_6 
REMARK       I    between atoms: C4_8  and  N3_10 
REMARK    4  A    between atoms: N3_10  and  N4_12 
REMARK    5  A    between atoms: N4_12  and  C5_14 
REMARK    6  A    between atoms: C6_17  and  N6_18 
REMARK    7  A    between atoms: N6_18  and  C7_20 
REMARK    8  A    between atoms: C9_23  and  C10_24 
REMARK    9  A    between atoms: C10_24  and  O3_25 
REMARK   10  A    between atoms: N10_31  and  N11_32 
REMARK   11  A    between atoms: C13_37  and  N13_38 
ROOT
HETATM    1  C5  UNL     1     -10.835  97.958  17.320  1.00  0.00     0.172 A 
HETATM    2  N5  UNL     1     -12.006  98.169  16.730  1.00  0.00    -0.171 N 
ATOM      3  H5  UNL     1     -12.701  98.718  17.237  1.00  0.00     0.186 HD
HETATM    4  C6  UNL     1     -12.350  97.698  15.480  1.00  0.00     0.708 A 
HETATM    5  N10 UNL     1     -11.483  96.972  14.766  1.00  0.00    -0.076 N 
HETATM    6  C12 UNL     1     -10.261  96.729  15.341  1.00  0.00     0.192 A 
HETATM    7  N12 UNL     1      -9.341  95.939  14.556  1.00  0.00    -0.077 NA
HETATM    8  C13 UNL     1      -9.913  97.190  16.575  1.00  0.00     0.192 A 
ENDROOT
BRANCH   1   9
HETATM    9  N4  UNL     1     -10.503  98.409  18.452  1.00  0.00    -0.279 N 
ATOM     10  H4  UNL     1     -10.171  99.373  18.427  1.00  0.00     0.189 HD
BRANCH   9  11
HETATM   11  N3  UNL     1     -10.500  97.870  19.678  1.00  0.00    -0.249 N 
HETATM   12  C4  UNL     1     -11.537  97.008  20.178  1.00  0.00     0.354 C 
HETATM   13  N1  UNL     1     -11.556  96.442  21.462  1.00  0.00    -0.215 N 
HETATM   14  O2  UNL     1     -12.515  96.741  19.394  1.00  0.00    -0.244 OA
ATOM     15  H3  UNL     1      -9.716  98.083  20.293  1.00  0.00     0.192 HD
BRANCH  13  16
HETATM   16  C2  UNL     1     -12.668  95.604  21.874  1.00  0.00     0.103 C 
HETATM   17  C1  UNL     1     -12.428  94.177  21.519  1.00  0.00     0.034 C 
HETATM   18  C3  UNL     1     -12.835  95.676  23.393  1.00  0.00     0.034 C 
ENDBRANCH  13  16
BRANCH  13  19
HETATM   19  N2  UNL     1     -10.507  96.682  22.345  1.00  0.00     0.025 NA
BRANCH  19  20
HETATM   20  O1  UNL     1      -9.439  95.929  22.027  1.00  0.00    -0.277 OA
ATOM     21  H1  UNL     1      -8.781  95.975  22.711  1.00  0.00     0.240 HD
ENDBRANCH  19  20
ENDBRANCH  13  19
ENDBRANCH   9  11
ENDBRANCH   1   9
BRANCH   8  22
HETATM   22  N13 UNL     1      -8.638  96.916  17.147  1.00  0.00    -0.108 N 
HETATM   23  O4  UNL     1      -7.660  97.379  16.500  1.00  0.00    -0.532 OA
HETATM   24  O5  UNL     1      -8.511  96.212  18.294  1.00  0.00    -0.532 OA
ENDBRANCH   8  22
BRANCH   4  25
HETATM   25  N6  UNL     1     -13.513  97.961  15.036  1.00  0.00    -0.171 N 
ATOM     26  H6  UNL     1     -14.226  97.295  15.333  1.00  0.00     0.186 HD
BRANCH  25  27
HETATM   27  C7  UNL     1     -14.002  98.980  14.227  1.00  0.00     0.164 A 
HETATM   28  C8  UNL     1     -13.582 100.315  14.287  1.00  0.00     0.118 A 
HETATM   29  N7  UNL     1     -12.628 100.897  15.146  1.00  0.00    -0.096 NA
HETATM   30  C9  UNL     1     -14.279 101.010  13.327  1.00  0.00     0.077 A 
HETATM   31  N8  UNL     1     -15.075 100.127  12.728  1.00  0.00    -0.297 N 
HETATM   32  N9  UNL     1     -14.938  98.921  13.230  1.00  0.00    -0.279 N 
ATOM     33  H8  UNL     1     -15.714 100.360  11.968  1.00  0.00     0.187 HD
HETATM   34  C11 UNL     1     -15.617  97.693  12.853  1.00  0.00     0.179 C 
BRANCH  30  35
HETATM   35  C10 UNL     1     -14.150 102.485  13.021  1.00  0.00     0.224 C 
BRANCH  35  36
HETATM   36  O3  UNL     1     -13.977 103.177  14.219  1.00  0.00    -0.395 OA
ATOM     37  H3  UNL     1     -13.179 103.690  14.161  1.00  0.00     0.209 HD
ENDBRANCH  35  36
ENDBRANCH  30  35
ENDBRANCH  25  27
ENDBRANCH   4  25
BRANCH   5  38
HETATM   38  N11 UNL     1     -11.710  96.464  13.484  1.00  0.00    -0.323 N 
ATOM     39 2H11 UNL     1     -10.980  96.600  12.784  1.00  0.00     0.178 HD
ATOM     40 1H11 UNL     1     -12.554  95.980  13.178  1.00  0.00     0.178 HD
ENDBRANCH   5  38
TORSDOF 11
ENDMDL
MODEL 2
REMARK VINA RESULT: -8.647892235      1.177      1.348
REMARK  11 active torsions:
REMARK  status: ('A' for Active; 'I' for Inactive)
REMARK    1  A    between atoms: C2_2  and  N1_4 
REMARK    2  A    between atoms: N1_4  and  N2_5 
REMARK       I    between atoms: N1_4  and  C4_8 
REMARK    3  A    between atoms: N2_5  and  O1_6 
REMARK       I    between atoms: C4_8  and  N3_10 
REMARK    4  A    between atoms: N3_10  and  N4_12 
REMARK    5  A    between atoms: N4_12  and  C5_14 
REMARK    6  A    between atoms: C6_17  and  N6_18 
REMARK    7  A    between atoms: N6_18  and  C7_20 
REMARK    8  A    between atoms: C9_23  and  C10_24 
REMARK    9  A    between atoms: C10_24  and  O3_25 
REMARK   10  A    between atoms: N10_31  and  N11_32 
REMARK   11  A    between atoms: C13_37  and  N13_38 
ROOT
HETATM    1  C5  UNL     1     -11.246  97.994  18.070  1.00  0.00     0.172 A 
HETATM    2  N5  UNL     1     -12.084  98.004  17.038  1.00  0.00    -0.171 N 
ATOM      3  H5  UNL     1     -13.062  98.226  17.224  1.00  0.00     0.186 HD
HETATM    4  C6  UNL     1     -11.723  97.737  15.735  1.00  0.00     0.708 A 
HETATM    5  N10 UNL     1     -10.456  97.440  15.428  1.00  0.00    -0.076 N 
HETATM    6  C12 UNL     1      -9.559  97.416  16.466  1.00  0.00     0.192 A 
HETATM    7  N12 UNL     1      -8.196  97.089  16.114  1.00  0.00    -0.077 NA
HETATM    8  C13 UNL     1      -9.906  97.679  17.757  1.00  0.00     0.192 A 
ENDROOT
BRANCH   1   9
HETATM    9  N4  UNL     1     -11.563  98.265  19.262  1.00  0.00    -0.279 N 
ATOM     10  H4  UNL     1     -12.170  99.080  19.349  1.00  0.00     0.189 HD
BRANCH   9  11
HETATM   11  N3  UNL     1     -11.258  97.692  20.434  1.00  0.00    -0.249 N 
HETATM   12  C4  UNL     1     -12.070  96.694  21.075  1.00  0.00     0.354 C 
HETATM   13  N1  UNL     1     -11.772  96.090  22.306  1.00  0.00    -0.215 N 
HETATM   14  O2  UNL     1     -13.144  96.331  20.478  1.00  0.00    -0.244 OA
ATOM     15  H3  UNL     1     -10.399  97.983  20.899  1.00  0.00     0.192 HD
BRANCH  13  16
HETATM   16  C2  UNL     1     -12.676  95.107  22.876  1.00  0.00     0.103 C 
HETATM   17  C1  UNL     1     -11.988  93.806  23.099  1.00  0.00     0.034 C 
HETATM   18  C3  UNL     1     -13.183  95.597  24.234  1.00  0.00     0.034 C 
ENDBRANCH  13  16
BRANCH  13  19
HETATM   19  N2  UNL     1     -10.604  96.431  22.985  1.00  0.00     0.025 NA
BRANCH  19  20
HETATM   20  O1  UNL     1      -9.521  96.103  22.258  1.00  0.00    -0.277 OA
ATOM     21  H1  UNL     1      -8.836  95.754  22.817  1.00  0.00     0.240 HD
ENDBRANCH  19  20
ENDBRANCH  13  19
ENDBRANCH   9  11
ENDBRANCH   1   9
BRANCH   8  22
HETATM   22  N13 UNL     1      -8.952  97.642  18.813  1.00  0.00    -0.108 N 
HETATM   23  O4  UNL     1      -8.786  96.506  19.334  1.00  0.00    -0.532 OA
HETATM   24  O5  UNL     1      -8.289  98.752  19.211  1.00  0.00    -0.532 OA
ENDBRANCH   8  22
BRANCH   4  25
HETATM   25  N6  UNL     1     -12.629  97.767  14.841  1.00  0.00    -0.171 N 
ATOM     26  H6  UNL     1     -12.688  96.913  14.287  1.00  0.00     0.186 HD
BRANCH  25  27
HETATM   27  C7  UNL     1     -13.554  98.737  14.473  1.00  0.00     0.164 A 
HETATM   28  C8  UNL     1     -13.479 100.088  14.840  1.00  0.00     0.118 A 
HETATM   29  N7  UNL     1     -12.507 100.729  15.633  1.00  0.00    -0.096 NA
HETATM   30  C9  UNL     1     -14.558 100.727  14.277  1.00  0.00     0.077 A 
HETATM   31  N8  UNL     1     -15.239  99.799  13.609  1.00  0.00    -0.297 N 
HETATM   32  N9  UNL     1     -14.677  98.615  13.701  1.00  0.00    -0.279 N 
ATOM     33  H8  UNL     1     -16.096  99.985  13.087  1.00  0.00     0.187 HD
HETATM   34  C11 UNL     1     -15.105  97.354  13.120  1.00  0.00     0.179 C 
BRANCH  30  35
HETATM   35  C10 UNL     1     -14.888 102.198  14.396  1.00  0.00     0.224 C 
BRANCH  35  36
HETATM   36  O3  UNL     1     -13.702 102.928  14.337  1.00  0.00    -0.395 OA
ATOM     37  H3  UNL     1     -13.108 102.599  15.003  1.00  0.00     0.209 HD
ENDBRANCH  35  36
ENDBRANCH  30  35
ENDBRANCH  25  27
ENDBRANCH   4  25
BRANCH   5  38
HETATM   38  N11 UNL     1      -9.971  97.176  14.144  1.00  0.00    -0.323 N 
ATOM     39 2H11 UNL     1     -10.641  96.873  13.436  1.00  0.00     0.178 HD
ATOM     40 1H11 UNL     1      -8.996  97.244  13.852  1.00  0.00     0.178 HD
ENDBRANCH   5  38
TORSDOF 11
ENDMDL
MODEL 3
REMARK VINA RESULT: -7.839649245      2.103      2.681
REMARK  11 active torsions:
REMARK  status: ('A' for Active; 'I' for Inactive)
REMARK    1  A    between atoms: C2_2  and  N1_4 
REMARK    2  A    between atoms: N1_4  and  N2_5 
REMARK       I    between atoms: N1_4  and  C4_8 
REMARK    3  A    between atoms: N2_5  and  O1_6 
REMARK       I    between atoms: C4_8  and  N3_10 
REMARK    4  A    between atoms: N3_10  and  N4_12 
REMARK    5  A    between atoms: N4_12  and  C5_14 
REMARK    6  A    between atoms: C6_17  and  N6_18 
REMARK    7  A    between atoms: N6_18  and  C7_20 
REMARK    8  A    between atoms: C9_23  and  C10_24 
REMARK    9  A    between atoms: C10_24  and  O3_25 
REMARK   10  A    between atoms: N10_31  and  N11_32 
REMARK   11  A    between atoms: C13_37  and  N13_38 
ROOT
HETATM    1  C5  UNL     1     -11.137  97.158  18.392  1.00  0.00     0.172 A 
HETATM    2  N5  UNL     1     -11.882  96.494  17.515  1.00  0.00    -0.171 N 
ATOM      3  H5  UNL     1     -12.847  96.286  17.772  1.00  0.00     0.186 HD
HETATM    4  C6  UNL     1     -11.441  96.066  16.280  1.00  0.00     0.708 A 
HETATM    5  N10 UNL     1     -10.186  96.307  15.886  1.00  0.00    -0.076 N 
HETATM    6  C12 UNL     1      -9.383  96.989  16.765  1.00  0.00     0.192 A 
HETATM    7  N12 UNL     1      -8.030  97.236  16.322  1.00  0.00    -0.077 NA
HETATM    8  C13 UNL     1      -9.810  97.416  17.986  1.00  0.00     0.192 A 
ENDROOT
BRANCH   1   9
HETATM    9  N4  UNL     1     -11.542  97.578  19.513  1.00  0.00    -0.279 N 
ATOM     10  H4  UNL     1     -12.256  98.303  19.445  1.00  0.00     0.189 HD
BRANCH   9  11
HETATM   11  N3  UNL     1     -11.217  97.258  20.772  1.00  0.00    -0.249 N 
HETATM   12  C4  UNL     1     -12.005  96.397  21.611  1.00  0.00     0.354 C 
HETATM   13  N1  UNL     1     -11.686  96.058  22.935  1.00  0.00    -0.215 N 
HETATM   14  O2  UNL     1     -13.079  95.905  21.112  1.00  0.00    -0.244 OA
ATOM     15  H3  UNL     1     -10.358  97.649  21.159  1.00  0.00     0.192 HD
BRANCH  13  16
HETATM   16  C2  UNL     1     -12.568  95.197  23.702  1.00  0.00     0.103 C 
HETATM   17  C1  UNL     1     -12.089  93.787  23.691  1.00  0.00     0.034 C 
HETATM   18  C3  UNL     1     -12.602  95.658  25.160  1.00  0.00     0.034 C 
ENDBRANCH  13  16
BRANCH  13  19
HETATM   19  N2  UNL     1     -10.519  96.546  23.517  1.00  0.00     0.025 NA
BRANCH  19  20
HETATM   20  O1  UNL     1      -9.443  96.192  22.791  1.00  0.00    -0.277 OA
ATOM     21  H1  UNL     1      -8.993  96.961  22.461  1.00  0.00     0.240 HD
ENDBRANCH  19  20
ENDBRANCH  13  19
ENDBRANCH   9  11
ENDBRANCH   1   9
BRANCH   8  22
HETATM   22  N13 UNL     1      -8.951  98.118  18.879  1.00  0.00    -0.108 N 
HETATM   23  O4  UNL     1      -8.296  97.383  19.667  1.00  0.00    -0.532 OA
HETATM   24  O5  UNL     1      -8.861  99.467  18.865  1.00  0.00    -0.532 OA
ENDBRANCH   8  22
BRANCH   4  25
HETATM   25  N6  UNL     1     -12.254  95.426  15.539  1.00  0.00    -0.171 N 
ATOM     26  H6  UNL     1     -12.196  94.413  15.645  1.00  0.00     0.186 HD
BRANCH  25  27
HETATM   27  C7  UNL     1     -13.206  95.838  14.614  1.00  0.00     0.164 A 
HETATM   28  C8  UNL     1     -13.616  97.166  14.432  1.00  0.00     0.118 A 
HETATM   29  N7  UNL     1     -13.186  98.319  15.119  1.00  0.00    -0.096 NA
HETATM   30  C9  UNL     1     -14.552  97.173  13.425  1.00  0.00     0.077 A 
HETATM   31  N8  UNL     1     -14.690  95.909  13.030  1.00  0.00    -0.297 N 
HETATM   32  N9  UNL     1     -13.912  95.095  13.708  1.00  0.00    -0.279 N 
ATOM     33  H8  UNL     1     -15.324  95.609  12.290  1.00  0.00     0.187 HD
HETATM   34  C11 UNL     1     -13.767  93.656  13.579  1.00  0.00     0.179 C 
BRANCH  30  35
HETATM   35  C10 UNL     1     -15.269  98.388  12.880  1.00  0.00     0.224 C 
BRANCH  35  36
HETATM   36  O3  UNL     1     -14.364  99.444  12.802  1.00  0.00    -0.395 OA
ATOM     37  H3  UNL     1     -14.490 100.011  13.554  1.00  0.00     0.209 HD
ENDBRANCH  35  36
ENDBRANCH  30  35
ENDBRANCH  25  27
ENDBRANCH   4  25
BRANCH   5  38
HETATM   38  N11 UNL     1      -9.637  95.944  14.652  1.00  0.00    -0.323 N 
ATOM     39 2H11 UNL     1      -9.730  96.604  13.880  1.00  0.00     0.178 HD
ATOM     40 1H11 UNL     1      -9.163  95.064  14.450  1.00  0.00     0.178 HD
ENDBRANCH   5  38
TORSDOF 11
ENDMDL
MODEL 4
REMARK VINA RESULT: -7.838266171      1.554      2.238
REMARK  11 active torsions:
REMARK  status: ('A' for Active; 'I' for Inactive)
REMARK    1  A    between atoms: C2_2  and  N1_4 
REMARK    2  A    between atoms: N1_4  and  N2_5 
REMARK       I    between atoms: N1_4  and  C4_8 
REMARK    3  A    between atoms: N2_5  and  O1_6 
REMARK       I    between atoms: C4_8  and  N3_10 
REMARK    4  A    between atoms: N3_10  and  N4_12 
REMARK    5  A    between atoms: N4_12  and  C5_14 
REMARK    6  A    between atoms: C6_17  and  N6_18 
REMARK    7  A    between atoms: N6_18  and  C7_20 
REMARK    8  A    between atoms: C9_23  and  C10_24 
REMARK    9  A    between atoms: C10_24  and  O3_25 
REMARK   10  A    between atoms: N10_31  and  N11_32 
REMARK   11  A    between atoms: C13_37  and  N13_38 
ROOT
HETATM    1  C5  UNL     1     -10.903  97.771  17.214  1.00  0.00     0.172 A 
HETATM    2  N5  UNL     1     -12.113  97.807  16.668  1.00  0.00    -0.171 N 
ATOM      3  H5  UNL     1     -12.861  98.255  17.199  1.00  0.00     0.186 HD
HETATM    4  C6  UNL     1     -12.431  97.279  15.434  1.00  0.00     0.708 A 
HETATM    5  N10 UNL     1     -11.495  96.679  14.691  1.00  0.00    -0.076 N 
HETATM    6  C12 UNL     1     -10.231  96.620  15.220  1.00  0.00     0.192 A 
HETATM    7  N12 UNL     1      -9.236  95.963  14.404  1.00  0.00    -0.077 NA
HETATM    8  C13 UNL     1      -9.908  97.137  16.438  1.00  0.00     0.192 A 
ENDROOT
BRANCH   1   9
HETATM    9  N4  UNL     1     -10.598  98.276  18.331  1.00  0.00    -0.279 N 
ATOM     10  H4  UNL     1     -10.335  99.261  18.278  1.00  0.00     0.189 HD
BRANCH   9  11
HETATM   11  N3  UNL     1     -10.551  97.773  19.571  1.00  0.00    -0.249 N 
HETATM   12  C4  UNL     1     -11.579  96.945  20.141  1.00  0.00     0.354 C 
HETATM   13  N1  UNL     1     -11.552  96.416  21.441  1.00  0.00    -0.215 N 
HETATM   14  O2  UNL     1     -12.594  96.672  19.408  1.00  0.00    -0.244 OA
ATOM     15  H3  UNL     1      -9.738  97.990  20.146  1.00  0.00     0.192 HD
BRANCH  13  16
HETATM   16  C2  UNL     1     -12.658  95.610  21.925  1.00  0.00     0.103 C 
HETATM   17  C1  UNL     1     -12.456  94.169  21.604  1.00  0.00     0.034 C 
HETATM   18  C3  UNL     1     -12.760  95.731  23.447  1.00  0.00     0.034 C 
ENDBRANCH  13  16
BRANCH  13  19
HETATM   19  N2  UNL     1     -10.461  96.663  22.270  1.00  0.00     0.025 NA
BRANCH  19  20
HETATM   20  O1  UNL     1      -9.448  95.826  21.982  1.00  0.00    -0.277 OA
ATOM     21  H1  UNL     1      -9.129  95.402  22.770  1.00  0.00     0.240 HD
ENDBRANCH  19  20
ENDBRANCH  13  19
ENDBRANCH   9  11
ENDBRANCH   1   9
BRANCH   8  22
HETATM   22  N13 UNL     1      -8.587  97.055  16.963  1.00  0.00    -0.108 N 
HETATM   23  O4  UNL     1      -7.765  97.862  16.450  1.00  0.00    -0.532 OA
HETATM   24  O5  UNL     1      -8.262  96.172  17.935  1.00  0.00    -0.532 OA
ENDBRANCH   8  22
BRANCH   4  25
HETATM   25  N6  UNL     1     -13.635  97.369  15.033  1.00  0.00    -0.171 N 
ATOM     26  H6  UNL     1     -14.299  96.850  15.608  1.00  0.00     0.186 HD
BRANCH  25  27
HETATM   27  C7  UNL     1     -14.223  98.035  13.964  1.00  0.00     0.164 A 
HETATM   28  C8  UNL     1     -14.827  97.404  12.868  1.00  0.00     0.118 A 
HETATM   29  N7  UNL     1     -14.955  96.025  12.611  1.00  0.00    -0.096 NA
HETATM   30  C9  UNL     1     -15.301  98.391  12.036  1.00  0.00     0.077 A 
HETATM   31  N8  UNL     1     -14.993  99.550  12.612  1.00  0.00    -0.297 N 
HETATM   32  N9  UNL     1     -14.358  99.380  13.750  1.00  0.00    -0.279 N 
ATOM     33  H8  UNL     1     -15.222 100.462  12.217  1.00  0.00     0.187 HD
HETATM   34  C11 UNL     1     -13.857 100.383  14.674  1.00  0.00     0.179 C 
BRANCH  30  35
HETATM   35  C10 UNL     1     -16.035  98.182  10.729  1.00  0.00     0.224 C 
BRANCH  35  36
HETATM   36  O3  UNL     1     -17.217  97.491  10.986  1.00  0.00    -0.395 OA
ATOM     37  H3  UNL     1     -17.757  98.016  11.567  1.00  0.00     0.209 HD
ENDBRANCH  35  36
ENDBRANCH  30  35
ENDBRANCH  25  27
ENDBRANCH   4  25
BRANCH   5  38
HETATM   38  N11 UNL     1     -11.694  96.132  13.420  1.00  0.00    -0.323 N 
ATOM     39 2H11 UNL     1     -12.542  95.585  13.266  1.00  0.00     0.178 HD
ATOM     40 1H11 UNL     1     -11.054  96.218  12.630  1.00  0.00     0.178 HD
ENDBRANCH   5  38
TORSDOF 11
ENDMDL
MODEL 5
REMARK VINA RESULT: -7.814247329      2.314      3.322
REMARK  11 active torsions:
REMARK  status: ('A' for Active; 'I' for Inactive)
REMARK    1  A    between atoms: C2_2  and  N1_4 
REMARK    2  A    between atoms: N1_4  and  N2_5 
REMARK       I    between atoms: N1_4  and  C4_8 
REMARK    3  A    between atoms: N2_5  and  O1_6 
REMARK       I    between atoms: C4_8  and  N3_10 
REMARK    4  A    between atoms: N3_10  and  N4_12 
REMARK    5  A    between atoms: N4_12  and  C5_14 
REMARK    6  A    between atoms: C6_17  and  N6_18 
REMARK    7  A    between atoms: N6_18  and  C7_20 
REMARK    8  A    between atoms: C9_23  and  C10_24 
REMARK    9  A    between atoms: C10_24  and  O3_25 
REMARK   10  A    between atoms: N10_31  and  N11_32 
REMARK   11  A    between atoms: C13_37  and  N13_38 
ROOT
HETATM    1  C5  UNL     1     -11.236  97.936  17.995  1.00  0.00     0.172 A 
HETATM    2  N5  UNL     1     -12.021  98.058  16.930  1.00  0.00    -0.171 N 
ATOM      3  H5  UNL     1     -12.967  98.410  17.076  1.00  0.00     0.186 HD
HETATM    4  C6  UNL     1     -11.645  97.741  15.642  1.00  0.00     0.708 A 
HETATM    5  N10 UNL     1     -10.419  97.274  15.387  1.00  0.00    -0.076 N 
HETATM    6  C12 UNL     1      -9.577  97.132  16.462  1.00  0.00     0.192 A 
HETATM    7  N12 UNL     1      -8.258  96.622  16.165  1.00  0.00    -0.077 NA
HETATM    8  C13 UNL     1      -9.939  97.442  17.738  1.00  0.00     0.192 A 
ENDROOT
BRANCH   1   9
HETATM    9  N4  UNL     1     -11.563  98.250  19.174  1.00  0.00    -0.279 N 
ATOM     10  H4  UNL     1     -12.160  99.076  19.228  1.00  0.00     0.189 HD
BRANCH   9  11
HETATM   11  N3  UNL     1     -11.280  97.712  20.368  1.00  0.00    -0.249 N 
HETATM   12  C4  UNL     1     -12.078  96.698  21.001  1.00  0.00     0.354 C 
HETATM   13  N1  UNL     1     -11.802  96.129  22.254  1.00  0.00    -0.215 N 
HETATM   14  O2  UNL     1     -13.117  96.285  20.375  1.00  0.00    -0.244 OA
ATOM     15  H3  UNL     1     -10.448  98.042  20.857  1.00  0.00     0.192 HD
BRANCH  13  16
HETATM   16  C2  UNL     1     -12.691  95.126  22.813  1.00  0.00     0.103 C 
HETATM   17  C1  UNL     1     -11.974  93.842  23.048  1.00  0.00     0.034 C 
HETATM   18  C3  UNL     1     -13.228  95.605  24.163  1.00  0.00     0.034 C 
ENDBRANCH  13  16
BRANCH  13  19
HETATM   19  N2  UNL     1     -10.672  96.525  22.966  1.00  0.00     0.025 NA
BRANCH  19  20
HETATM   20  O1  UNL     1      -9.552  96.171  22.311  1.00  0.00    -0.277 OA
ATOM     21  H1  UNL     1      -8.968  96.915  22.220  1.00  0.00     0.240 HD
ENDBRANCH  19  20
ENDBRANCH  13  19
ENDBRANCH   9  11
ENDBRANCH   1   9
BRANCH   8  22
HETATM   22  N13 UNL     1      -9.044  97.278  18.833  1.00  0.00    -0.108 N 
HETATM   23  O4  UNL     1      -9.057  96.132  19.357  1.00  0.00    -0.532 OA
HETATM   24  O5  UNL     1      -8.253  98.288  19.260  1.00  0.00    -0.532 OA
ENDBRANCH   8  22
BRANCH   4  25
HETATM   25  N6  UNL     1     -12.501  97.892  14.711  1.00  0.00    -0.171 N 
ATOM     26  H6  UNL     1     -12.456  98.803  14.256  1.00  0.00     0.186 HD
BRANCH  25  27
HETATM   27  C7  UNL     1     -13.484  97.056  14.194  1.00  0.00     0.164 A 
HETATM   28  C8  UNL     1     -13.463  95.657  14.276  1.00  0.00     0.118 A 
HETATM   29  N7  UNL     1     -12.485  94.827  14.860  1.00  0.00    -0.096 NA
HETATM   30  C9  UNL     1     -14.604  95.193  13.667  1.00  0.00     0.077 A 
HETATM   31  N8  UNL     1     -15.269  96.265  13.244  1.00  0.00    -0.297 N 
HETATM   32  N9  UNL     1     -14.640  97.381  13.538  1.00  0.00    -0.279 N 
ATOM     33  H8  UNL     1     -16.161  96.226  12.751  1.00  0.00     0.187 HD
HETATM   34  C11 UNL     1     -15.031  98.751  13.254  1.00  0.00     0.179 C 
BRANCH  30  35
HETATM   35  C10 UNL     1     -15.014  93.743  13.521  1.00  0.00     0.224 C 
BRANCH  35  36
HETATM   36  O3  UNL     1     -15.005  93.148  14.781  1.00  0.00    -0.395 OA
ATOM     37  H3  UNL     1     -14.975  93.831  15.441  1.00  0.00     0.209 HD
ENDBRANCH  35  36
ENDBRANCH  30  35
ENDBRANCH  25  27
ENDBRANCH   4  25
BRANCH   5  38
HETATM   38  N11 UNL     1      -9.920  96.944  14.123  1.00  0.00    -0.323 N 
ATOM     39 2H11 UNL     1      -9.050  96.414  14.080  1.00  0.00     0.178 HD
ATOM     40 1H11 UNL     1     -10.344  97.202  13.232  1.00  0.00     0.178 HD
ENDBRANCH   5  38
TORSDOF 11
ENDMDL
