MODEL 1
REMARK VINA RESULT: -10.096887851      0.000      0.000
REMARK  18 active torsions:
REMARK  status: ('A' for Active; 'I' for Inactive)
REMARK       I    between atoms: C1_2  and  N2_4 
REMARK    1  A    between atoms: N2_4  and  C2_6 
REMARK    2  A    between atoms: C2_6  and  O2_7 
REMARK    3  A    between atoms: C2_6  and  C3_9 
REMARK    4  A    between atoms: C3_9  and  O3_10 
REMARK    5  A    between atoms: C3_9  and  N3_12 
REMARK    6  A    between atoms: N3_12  and  O4_13 
REMARK    7  A    between atoms: O4_13  and  C4_14 
REMARK    8  A    between atoms: C4_14  and  C5_15 
REMARK    9  A    between atoms: C4_14  and  C18_47 
REMARK   10  A    between atoms: C5_15  and  C6_16 
REMARK   11  A    between atoms: C6_16  and  O5_17 
REMARK   12  A    between atoms: C6_16  and  N4_19 
REMARK   13  A    between atoms: N4_19  and  C7_21 
REMARK   14  A    between atoms: C12_29  and  C13_30 
REMARK   15  A    between atoms: C13_30  and  S2_31 
REMARK   16  A    between atoms: S2_31  and  C14_32 
REMARK   17  A    between atoms: C15_37  and  S3_38 
REMARK   18  A    between atoms: C16_43  and  C17_44 
ROOT
HETATM    1  C7  UNL     1      25.177   2.308  36.253  1.00  0.00     0.109 C 
HETATM    2  C8  UNL     1      24.260   2.363  35.144  1.00  0.00     0.271 C 
HETATM    3  O6  UNL     1      24.142   1.685  34.060  1.00  0.00    -0.266 OA
HETATM    4  N5  UNL     1      23.593   3.437  35.753  1.00  0.00    -0.309 N 
HETATM    5  C9  UNL     1      24.160   3.068  37.011  1.00  0.00     0.206 C 
HETATM    6  S1  UNL     1      24.879   4.480  37.889  1.00  0.00    -0.137 SA
HETATM    7  C10 UNL     1      23.633   5.628  38.491  1.00  0.00     0.081 C 
HETATM    8  C11 UNL     1      23.028   6.326  37.267  1.00  0.00     0.047 C 
HETATM    9  C12 UNL     1      22.273   5.292  36.524  1.00  0.00    -0.040 C 
HETATM   10  C16 UNL     1      22.698   4.513  35.359  1.00  0.00     0.220 C 
ENDROOT
BRANCH   1  11
HETATM   11  N4  UNL     1      26.328   1.828  36.484  1.00  0.00    -0.360 N 
ATOM     12  H4  UNL     1      26.414   1.205  37.288  1.00  0.00     0.162 HD
BRANCH  11  13
HETATM   13  C6  UNL     1      27.536   2.077  35.715  1.00  0.00     0.220 C 
BRANCH  13  14
HETATM   14  C5  UNL     1      28.664   1.493  36.520  1.00  0.00     0.098 C 
BRANCH  14  15
HETATM   15  C4  UNL     1      29.577   2.552  37.043  1.00  0.00     0.252 C 
BRANCH  15  16
HETATM   16  O4  UNL     1      30.881   2.220  36.600  1.00  0.00    -0.267 OA
BRANCH  16  17
HETATM   17  N3  UNL     1      31.637   3.309  36.714  1.00  0.00    -0.059 NA
BRANCH  17  18
HETATM   18  C3  UNL     1      32.559   3.447  35.553  1.00  0.00     0.313 C 
BRANCH  18  19
HETATM   19  C2  UNL     1      33.867   2.992  35.959  1.00  0.00     0.167 C 
BRANCH  19  20
HETATM   20  N2  UNL     1      34.999   2.758  35.210  1.00  0.00    -0.292 N 
HETATM   21  C1  UNL     1      35.321   2.913  33.871  1.00  0.00     0.334 C 
HETATM   22  N1  UNL     1      36.662   2.555  33.430  1.00  0.00    -0.040 NA
HETATM   23  O1  UNL     1      34.561   3.336  32.990  1.00  0.00    -0.251 OA
ATOM     24  H2  UNL     1      35.772   2.389  35.764  1.00  0.00     0.172 HD
ENDBRANCH  19  20
BRANCH  19  25
HETATM   25  O2  UNL     1      33.966   2.774  37.250  1.00  0.00    -0.346 OA
ATOM     26  H2  UNL     1      33.168   2.521  37.699  1.00  0.00     0.219 HD
ENDBRANCH  19  25
ENDBRANCH  18  19
BRANCH  18  27
HETATM   27  O3  UNL     1      31.940   2.894  34.480  1.00  0.00    -0.370 OA
ATOM     28  H3  UNL     1      31.640   3.439  33.762  1.00  0.00     0.212 HD
ENDBRANCH  18  27
ENDBRANCH  17  18
ENDBRANCH  16  17
ENDBRANCH  15  16
BRANCH  15  29
HETATM   29  C18 UNL     1      29.610   2.544  38.522  1.00  0.00     0.205 C 
HETATM   30  O12 UNL     1      30.295   1.653  39.099  1.00  0.00    -0.646 OA
HETATM   31  O13 UNL     1      28.924   3.470  39.281  1.00  0.00    -0.646 OA
ENDBRANCH  15  29
ENDBRANCH  14  15
ENDBRANCH  13  14
BRANCH  13  32
HETATM   32  O5  UNL     1      27.371   1.412  34.501  1.00  0.00    -0.377 OA
ATOM     33  H5  UNL     1      26.467   1.156  34.361  1.00  0.00     0.212 HD
ENDBRANCH  13  32
ENDBRANCH  11  13
ENDBRANCH   1  11
BRANCH  10  34
HETATM   34  C17 UNL     1      21.580   3.922  34.594  1.00  0.00     0.201 C 
HETATM   35  O10 UNL     1      21.081   2.812  34.955  1.00  0.00    -0.646 OA
HETATM   36  O11 UNL     1      21.041   4.531  33.480  1.00  0.00    -0.646 OA
ENDBRANCH  10  34
BRANCH   9  37
HETATM   37  C13 UNL     1      21.065   5.040  36.985  1.00  0.00     0.058 C 
BRANCH  37  38
HETATM   38  S2  UNL     1      19.760   6.266  37.003  1.00  0.00    -0.075 SA
BRANCH  38  39
HETATM   39  C14 UNL     1      19.163   6.431  35.316  1.00  0.00     0.133 A 
HETATM   40  N6  UNL     1      18.462   5.568  34.589  1.00  0.00    -0.286 N 
HETATM   41  N7  UNL     1      18.124   5.863  33.410  1.00  0.00    -0.281 N 
ATOM     42  H6  UNL     1      18.196   4.666  34.985  1.00  0.00     0.188 HD
HETATM   43  C15 UNL     1      18.469   7.036  32.892  1.00  0.00     0.209 A 
ATOM     44  H7  UNL     1      17.586   5.198  32.853  1.00  0.00     0.188 HD
HETATM   45  S4  UNL     1      19.329   7.734  34.205  1.00  0.00    -0.030 SA
BRANCH  43  46
HETATM   46  S3  UNL     1      18.122   7.682  31.287  1.00  0.00     0.163 S 
HETATM   47  O7  UNL     1      18.128   9.190  31.455  1.00  0.00    -0.590 OA
HETATM   48  O8  UNL     1      19.136   7.226  30.292  1.00  0.00    -0.590 OA
HETATM   49  O9  UNL     1      16.586   7.190  30.817  1.00  0.00    -0.590 OA
ENDBRANCH  43  46
ENDBRANCH  38  39
ENDBRANCH  37  38
ENDBRANCH   9  37
TORSDOF 18
ENDMDL
MODEL 2
REMARK VINA RESULT: -10.037629274      1.715      2.482
REMARK  18 active torsions:
REMARK  status: ('A' for Active; 'I' for Inactive)
REMARK       I    between atoms: C1_2  and  N2_4 
REMARK    1  A    between atoms: N2_4  and  C2_6 
REMARK    2  A    between atoms: C2_6  and  O2_7 
REMARK    3  A    between atoms: C2_6  and  C3_9 
REMARK    4  A    between atoms: C3_9  and  O3_10 
REMARK    5  A    between atoms: C3_9  and  N3_12 
REMARK    6  A    between atoms: N3_12  and  O4_13 
REMARK    7  A    between atoms: O4_13  and  C4_14 
REMARK    8  A    between atoms: C4_14  and  C5_15 
REMARK    9  A    between atoms: C4_14  and  C18_47 
REMARK   10  A    between atoms: C5_15  and  C6_16 
REMARK   11  A    between atoms: C6_16  and  O5_17 
REMARK   12  A    between atoms: C6_16  and  N4_19 
REMARK   13  A    between atoms: N4_19  and  C7_21 
REMARK   14  A    between atoms: C12_29  and  C13_30 
REMARK   15  A    between atoms: C13_30  and  S2_31 
REMARK   16  A    between atoms: S2_31  and  C14_32 
REMARK   17  A    between atoms: C15_37  and  S3_38 
REMARK   18  A    between atoms: C16_43  and  C17_44 
ROOT
HETATM    1  C7  UNL     1      25.821   2.842  36.349  1.00  0.00     0.109 C 
HETATM    2  C8  UNL     1      25.657   3.788  37.422  1.00  0.00     0.271 C 
HETATM    3  O6  UNL     1      26.444   4.238  38.332  1.00  0.00    -0.266 OA
HETATM    4  N5  UNL     1      24.320   3.982  37.043  1.00  0.00    -0.309 N 
HETATM    5  C9  UNL     1      24.617   3.456  35.749  1.00  0.00     0.206 C 
HETATM    6  S1  UNL     1      23.413   2.212  35.213  1.00  0.00    -0.137 SA
HETATM    7  C10 UNL     1      21.803   2.922  34.843  1.00  0.00     0.081 C 
HETATM    8  C11 UNL     1      21.186   3.367  36.175  1.00  0.00     0.047 C 
HETATM    9  C12 UNL     1      22.004   4.500  36.660  1.00  0.00    -0.040 C 
HETATM   10  C16 UNL     1      23.093   4.486  37.640  1.00  0.00     0.220 C 
ENDROOT
BRANCH   1  11
HETATM   11  N4  UNL     1      26.626   1.910  36.047  1.00  0.00    -0.360 N 
ATOM     12  H4  UNL     1      26.315   0.956  36.231  1.00  0.00     0.162 HD
BRANCH  11  13
HETATM   13  C6  UNL     1      27.948   2.067  35.463  1.00  0.00     0.220 C 
BRANCH  13  14
HETATM   14  C5  UNL     1      28.916   1.552  36.492  1.00  0.00     0.098 C 
BRANCH  14  15
HETATM   15  C4  UNL     1      29.789   2.641  37.023  1.00  0.00     0.252 C 
BRANCH  15  16
HETATM   16  O4  UNL     1      31.077   2.434  36.471  1.00  0.00    -0.267 OA
BRANCH  16  17
HETATM   17  N3  UNL     1      31.753   3.576  36.582  1.00  0.00    -0.059 NA
BRANCH  17  18
HETATM   18  C3  UNL     1      33.222   3.331  36.599  1.00  0.00     0.313 C 
BRANCH  18  19
HETATM   19  C2  UNL     1      33.654   3.087  35.244  1.00  0.00     0.167 C 
BRANCH  19  20
HETATM   20  N2  UNL     1      34.889   2.717  34.758  1.00  0.00    -0.292 N 
HETATM   21  C1  UNL     1      35.488   2.756  33.508  1.00  0.00     0.334 C 
HETATM   22  N1  UNL     1      36.852   2.267  33.372  1.00  0.00    -0.040 NA
HETATM   23  O1  UNL     1      34.961   3.176  32.469  1.00  0.00    -0.251 OA
ATOM     24  H2  UNL     1      35.498   2.328  35.477  1.00  0.00     0.172 HD
ENDBRANCH  19  20
BRANCH  19  25
HETATM   25  O2  UNL     1      32.702   3.250  34.355  1.00  0.00    -0.346 OA
ATOM     26  H2  UNL     1      32.224   4.070  34.393  1.00  0.00     0.219 HD
ENDBRANCH  19  25
ENDBRANCH  18  19
BRANCH  18  27
HETATM   27  O3  UNL     1      33.786   4.321  37.334  1.00  0.00    -0.370 OA
ATOM     28  H3  UNL     1      33.642   4.368  38.273  1.00  0.00     0.212 HD
ENDBRANCH  18  27
ENDBRANCH  17  18
ENDBRANCH  16  17
ENDBRANCH  15  16
BRANCH  15  29
HETATM   29  C18 UNL     1      29.930   2.542  38.492  1.00  0.00     0.205 C 
HETATM   30  O12 UNL     1      29.456   3.473  39.202  1.00  0.00    -0.646 OA
HETATM   31  O13 UNL     1      30.555   1.474  39.104  1.00  0.00    -0.646 OA
ENDBRANCH  15  29
ENDBRANCH  14  15
ENDBRANCH  13  14
BRANCH  13  32
HETATM   32  O5  UNL     1      27.959   1.287  34.308  1.00  0.00    -0.377 OA
ATOM     33  H5  UNL     1      27.833   1.813  33.528  1.00  0.00     0.212 HD
ENDBRANCH  13  32
ENDBRANCH  11  13
ENDBRANCH   1  11
BRANCH  10  34
HETATM   34  C17 UNL     1      23.382   5.807  38.233  1.00  0.00     0.201 C 
HETATM   35  O10 UNL     1      22.934   6.097  39.386  1.00  0.00    -0.646 OA
HETATM   36  O11 UNL     1      24.129   6.766  37.582  1.00  0.00    -0.646 OA
ENDBRANCH  10  34
BRANCH   9  37
HETATM   37  C13 UNL     1      21.714   5.670  36.128  1.00  0.00     0.058 C 
BRANCH  37  38
HETATM   38  S2  UNL     1      20.056   6.346  36.121  1.00  0.00    -0.075 SA
BRANCH  38  39
HETATM   39  C14 UNL     1      19.577   6.563  34.402  1.00  0.00     0.133 A 
HETATM   40  N6  UNL     1      19.621   5.686  33.406  1.00  0.00    -0.286 N 
HETATM   41  N7  UNL     1      19.234   6.020  32.252  1.00  0.00    -0.281 N 
ATOM     42  H6  UNL     1      19.967   4.741  33.574  1.00  0.00     0.188 HD
HETATM   43  C15 UNL     1      18.783   7.250  32.032  1.00  0.00     0.209 A 
ATOM     44  H7  UNL     1      19.268   5.345  31.488  1.00  0.00     0.188 HD
HETATM   45  S4  UNL     1      18.937   7.941  33.596  1.00  0.00    -0.030 SA
BRANCH  43  46
HETATM   46  S3  UNL     1      18.189   7.957  30.528  1.00  0.00     0.163 S 
HETATM   47  O7  UNL     1      16.793   7.393  30.347  1.00  0.00    -0.590 OA
HETATM   48  O8  UNL     1      18.185   9.448  30.599  1.00  0.00    -0.590 OA
HETATM   49  O9  UNL     1      19.158   7.439  29.258  1.00  0.00    -0.590 OA
ENDBRANCH  43  46
ENDBRANCH  38  39
ENDBRANCH  37  38
ENDBRANCH   9  37
TORSDOF 18
ENDMDL
MODEL 3
REMARK VINA RESULT: -9.595618558      1.778      2.517
REMARK  18 active torsions:
REMARK  status: ('A' for Active; 'I' for Inactive)
REMARK       I    between atoms: C1_2  and  N2_4 
REMARK    1  A    between atoms: N2_4  and  C2_6 
REMARK    2  A    between atoms: C2_6  and  O2_7 
REMARK    3  A    between atoms: C2_6  and  C3_9 
REMARK    4  A    between atoms: C3_9  and  O3_10 
REMARK    5  A    between atoms: C3_9  and  N3_12 
REMARK    6  A    between atoms: N3_12  and  O4_13 
REMARK    7  A    between atoms: O4_13  and  C4_14 
REMARK    8  A    between atoms: C4_14  and  C5_15 
REMARK    9  A    between atoms: C4_14  and  C18_47 
REMARK   10  A    between atoms: C5_15  and  C6_16 
REMARK   11  A    between atoms: C6_16  and  O5_17 
REMARK   12  A    between atoms: C6_16  and  N4_19 
REMARK   13  A    between atoms: N4_19  and  C7_21 
REMARK   14  A    between atoms: C12_29  and  C13_30 
REMARK   15  A    between atoms: C13_30  and  S2_31 
REMARK   16  A    between atoms: S2_31  and  C14_32 
REMARK   17  A    between atoms: C15_37  and  S3_38 
REMARK   18  A    between atoms: C16_43  and  C17_44 
ROOT
HETATM    1  C7  UNL     1      24.487   2.708  36.364  1.00  0.00     0.109 C 
HETATM    2  C8  UNL     1      23.560   2.723  35.263  1.00  0.00     0.271 C 
HETATM    3  O6  UNL     1      23.397   1.973  34.233  1.00  0.00    -0.266 OA
HETATM    4  N5  UNL     1      22.950   3.868  35.797  1.00  0.00    -0.309 N 
HETATM    5  C9  UNL     1      23.516   3.567  37.073  1.00  0.00     0.206 C 
HETATM    6  S1  UNL     1      24.309   5.006  37.837  1.00  0.00    -0.137 SA
HETATM    7  C10 UNL     1      23.123   6.250  38.364  1.00  0.00     0.081 C 
HETATM    8  C11 UNL     1      22.534   6.883  37.097  1.00  0.00     0.047 C 
HETATM    9  C12 UNL     1      21.724   5.833  36.440  1.00  0.00    -0.040 C 
HETATM   10  C16 UNL     1      22.099   4.952  35.332  1.00  0.00     0.220 C 
ENDROOT
BRANCH   1  11
HETATM   11  N4  UNL     1      25.619   2.194  36.619  1.00  0.00    -0.360 N 
ATOM     12  H4  UNL     1      25.794   1.923  37.587  1.00  0.00     0.162 HD
BRANCH  11  13
HETATM   13  C6  UNL     1      26.691   1.953  35.667  1.00  0.00     0.220 C 
BRANCH  13  14
HETATM   14  C5  UNL     1      27.916   1.667  36.490  1.00  0.00     0.098 C 
BRANCH  14  15
HETATM   15  C4  UNL     1      28.696   2.909  36.768  1.00  0.00     0.252 C 
BRANCH  15  16
HETATM   16  O4  UNL     1      30.044   2.624  36.439  1.00  0.00    -0.267 OA
BRANCH  16  17
HETATM   17  N3  UNL     1      30.402   3.443  35.452  1.00  0.00    -0.059 NA
BRANCH  17  18
HETATM   18  C3  UNL     1      31.858   3.752  35.512  1.00  0.00     0.313 C 
BRANCH  18  19
HETATM   19  C2  UNL     1      32.311   3.530  36.864  1.00  0.00     0.167 C 
BRANCH  19  20
HETATM   20  N2  UNL     1      32.302   4.373  37.953  1.00  0.00    -0.292 N 
HETATM   21  C1  UNL     1      31.602   5.524  38.280  1.00  0.00     0.334 C 
HETATM   22  N1  UNL     1      31.863   6.159  39.564  1.00  0.00    -0.040 NA
HETATM   23  O1  UNL     1      30.756   6.080  37.567  1.00  0.00    -0.251 OA
ATOM     24  H2  UNL     1      32.956   4.087  38.682  1.00  0.00     0.172 HD
ENDBRANCH  19  20
BRANCH  19  25
HETATM   25  O2  UNL     1      32.802   2.329  37.060  1.00  0.00    -0.346 OA
ATOM     26  H2  UNL     1      32.494   1.646  36.475  1.00  0.00     0.219 HD
ENDBRANCH  19  25
ENDBRANCH  18  19
BRANCH  18  27
HETATM   27  O3  UNL     1      32.448   3.107  34.474  1.00  0.00    -0.370 OA
ATOM     28  H3  UNL     1      31.969   2.453  33.977  1.00  0.00     0.212 HD
ENDBRANCH  18  27
ENDBRANCH  17  18
ENDBRANCH  16  17
ENDBRANCH  15  16
BRANCH  15  29
HETATM   29  C18 UNL     1      28.668   3.245  38.209  1.00  0.00     0.205 C 
HETATM   30  O12 UNL     1      27.695   3.921  38.646  1.00  0.00    -0.646 OA
HETATM   31  O13 UNL     1      29.662   2.844  39.080  1.00  0.00    -0.646 OA
ENDBRANCH  15  29
ENDBRANCH  14  15
ENDBRANCH  13  14
BRANCH  13  32
HETATM   32  O5  UNL     1      26.304   0.843  34.917  1.00  0.00    -0.377 OA
ATOM     33  H5  UNL     1      25.601   0.363  35.338  1.00  0.00     0.212 HD
ENDBRANCH  13  32
ENDBRANCH  11  13
ENDBRANCH   1  11
BRANCH  10  34
HETATM   34  C17 UNL     1      20.946   4.358  34.624  1.00  0.00     0.201 C 
HETATM   35  O10 UNL     1      20.486   4.917  33.580  1.00  0.00    -0.646 OA
HETATM   36  O11 UNL     1      20.329   3.201  35.050  1.00  0.00    -0.646 OA
ENDBRANCH  10  34
BRANCH   9  37
HETATM   37  C13 UNL     1      20.512   5.671  36.931  1.00  0.00     0.058 C 
BRANCH  37  38
HETATM   38  S2  UNL     1      19.268   6.958  36.882  1.00  0.00    -0.075 SA
BRANCH  38  39
HETATM   39  C14 UNL     1      18.945   7.321  35.152  1.00  0.00     0.133 A 
HETATM   40  N6  UNL     1      19.780   7.771  34.222  1.00  0.00    -0.286 N 
HETATM   41  N7  UNL     1      19.371   7.964  33.045  1.00  0.00    -0.281 N 
ATOM     42  H6  UNL     1      20.754   7.960  34.461  1.00  0.00     0.188 HD
HETATM   43  C15 UNL     1      18.103   7.720  32.733  1.00  0.00     0.209 A 
ATOM     44  H7  UNL     1      20.014   8.310  32.332  1.00  0.00     0.188 HD
HETATM   45  S4  UNL     1      17.491   7.180  34.243  1.00  0.00    -0.030 SA
BRANCH  43  46
HETATM   46  S3  UNL     1      17.291   7.904  31.176  1.00  0.00     0.163 S 
HETATM   47  O7  UNL     1      16.247   6.805  31.139  1.00  0.00    -0.590 OA
HETATM   48  O8  UNL     1      16.683   9.260  31.043  1.00  0.00    -0.590 OA
HETATM   49  O9  UNL     1      18.403   7.644  29.944  1.00  0.00    -0.590 OA
ENDBRANCH  43  46
ENDBRANCH  38  39
ENDBRANCH  37  38
ENDBRANCH   9  37
TORSDOF 18
ENDMDL
MODEL 4
REMARK VINA RESULT: -9.549528718      1.782      2.313
REMARK  18 active torsions:
REMARK  status: ('A' for Active; 'I' for Inactive)
REMARK       I    between atoms: C1_2  and  N2_4 
REMARK    1  A    between atoms: N2_4  and  C2_6 
REMARK    2  A    between atoms: C2_6  and  O2_7 
REMARK    3  A    between atoms: C2_6  and  C3_9 
REMARK    4  A    between atoms: C3_9  and  O3_10 
REMARK    5  A    between atoms: C3_9  and  N3_12 
REMARK    6  A    between atoms: N3_12  and  O4_13 
REMARK    7  A    between atoms: O4_13  and  C4_14 
REMARK    8  A    between atoms: C4_14  and  C5_15 
REMARK    9  A    between atoms: C4_14  and  C18_47 
REMARK   10  A    between atoms: C5_15  and  C6_16 
REMARK   11  A    between atoms: C6_16  and  O5_17 
REMARK   12  A    between atoms: C6_16  and  N4_19 
REMARK   13  A    between atoms: N4_19  and  C7_21 
REMARK   14  A    between atoms: C12_29  and  C13_30 
REMARK   15  A    between atoms: C13_30  and  S2_31 
REMARK   16  A    between atoms: S2_31  and  C14_32 
REMARK   17  A    between atoms: C15_37  and  S3_38 
REMARK   18  A    between atoms: C16_43  and  C17_44 
ROOT
HETATM    1  C7  UNL     1      25.648   2.946  36.213  1.00  0.00     0.109 C 
HETATM    2  C8  UNL     1      25.560   3.843  37.335  1.00  0.00     0.271 C 
HETATM    3  O6  UNL     1      26.397   4.224  38.231  1.00  0.00    -0.266 OA
HETATM    4  N5  UNL     1      24.216   4.098  37.021  1.00  0.00    -0.309 N 
HETATM    5  C9  UNL     1      24.443   3.625  35.692  1.00  0.00     0.206 C 
HETATM    6  S1  UNL     1      23.177   2.447  35.150  1.00  0.00    -0.137 SA
HETATM    7  C10 UNL     1      21.579   3.225  34.880  1.00  0.00     0.081 C 
HETATM    8  C11 UNL     1      21.031   3.626  36.256  1.00  0.00     0.047 C 
HETATM    9  C12 UNL     1      21.906   4.707  36.759  1.00  0.00    -0.040 C 
HETATM   10  C16 UNL     1      23.032   4.611  37.691  1.00  0.00     0.220 C 
ENDROOT
BRANCH   1  11
HETATM   11  N4  UNL     1      26.409   2.004  35.834  1.00  0.00    -0.360 N 
ATOM     12  H4  UNL     1      26.007   1.066  35.819  1.00  0.00     0.162 HD
BRANCH  11  13
HETATM   13  C6  UNL     1      27.796   2.129  35.420  1.00  0.00     0.220 C 
BRANCH  13  14
HETATM   14  C5  UNL     1      28.618   1.634  36.578  1.00  0.00     0.098 C 
BRANCH  14  15
HETATM   15  C4  UNL     1      29.643   2.635  36.996  1.00  0.00     0.252 C 
BRANCH  15  16
HETATM   16  O4  UNL     1      30.881   2.196  36.466  1.00  0.00    -0.267 OA
BRANCH  16  17
HETATM   17  N3  UNL     1      31.800   3.109  36.771  1.00  0.00    -0.059 NA
BRANCH  17  18
HETATM   18  C3  UNL     1      32.683   3.393  35.606  1.00  0.00     0.313 C 
BRANCH  18  19
HETATM   19  C2  UNL     1      34.031   3.018  35.961  1.00  0.00     0.167 C 
BRANCH  19  20
HETATM   20  N2  UNL     1      35.115   2.737  35.159  1.00  0.00    -0.292 N 
HETATM   21  C1  UNL     1      35.395   2.917  33.813  1.00  0.00     0.334 C 
HETATM   22  N1  UNL     1      36.690   2.487  33.306  1.00  0.00    -0.040 NA
HETATM   23  O1  UNL     1      34.631   3.419  32.978  1.00  0.00    -0.251 OA
ATOM     24  H2  UNL     1      35.882   2.299  35.668  1.00  0.00     0.172 HD
ENDBRANCH  19  20
BRANCH  19  25
HETATM   25  O2  UNL     1      34.228   2.942  37.256  1.00  0.00    -0.346 OA
ATOM     26  H2  UNL     1      35.114   3.105  37.559  1.00  0.00     0.219 HD
ENDBRANCH  19  25
ENDBRANCH  18  19
BRANCH  18  27
HETATM   27  O3  UNL     1      32.086   2.861  34.510  1.00  0.00    -0.370 OA
ATOM     28  H3  UNL     1      32.526   2.873  33.668  1.00  0.00     0.212 HD
ENDBRANCH  18  27
ENDBRANCH  17  18
ENDBRANCH  16  17
ENDBRANCH  15  16
BRANCH  15  29
HETATM   29  C18 UNL     1      29.792   2.663  38.468  1.00  0.00     0.205 C 
HETATM   30  O12 UNL     1      30.255   1.637  39.041  1.00  0.00    -0.646 OA
HETATM   31  O13 UNL     1      29.444   3.763  39.225  1.00  0.00    -0.646 OA
ENDBRANCH  15  29
ENDBRANCH  14  15
ENDBRANCH  13  14
BRANCH  13  32
HETATM   32  O5  UNL     1      27.944   1.314  34.298  1.00  0.00    -0.377 OA
ATOM     33  H5  UNL     1      27.263   1.475  33.656  1.00  0.00     0.212 HD
ENDBRANCH  13  32
ENDBRANCH  11  13
ENDBRANCH   1  11
BRANCH  10  34
HETATM   34  C17 UNL     1      23.388   5.893  38.333  1.00  0.00     0.201 C 
HETATM   35  O10 UNL     1      24.203   6.684  37.763  1.00  0.00    -0.646 OA
HETATM   36  O11 UNL     1      22.869   6.283  39.549  1.00  0.00    -0.646 OA
ENDBRANCH  10  34
BRANCH   9  37
HETATM   37  C13 UNL     1      21.634   5.910  36.294  1.00  0.00     0.058 C 
BRANCH  37  38
HETATM   38  S2  UNL     1      20.055   6.714  36.552  1.00  0.00    -0.075 SA
BRANCH  38  39
HETATM   39  C14 UNL     1      19.514   7.347  34.959  1.00  0.00     0.133 A 
HETATM   40  N6  UNL     1      19.433   8.606  34.544  1.00  0.00    -0.286 N 
HETATM   41  N7  UNL     1      19.030   8.861  33.376  1.00  0.00    -0.281 N 
ATOM     42  H6  UNL     1      19.696   9.367  35.170  1.00  0.00     0.188 HD
HETATM   43  C15 UNL     1      18.686   7.872  32.559  1.00  0.00     0.209 A 
ATOM     44  H7  UNL     1      18.968   9.829  33.058  1.00  0.00     0.188 HD
HETATM   45  S4  UNL     1      18.970   6.506  33.560  1.00  0.00    -0.030 SA
BRANCH  43  46
HETATM   46  S3  UNL     1      18.100   7.962  30.896  1.00  0.00     0.163 S 
HETATM   47  O7  UNL     1      17.876   9.439  30.632  1.00  0.00    -0.590 OA
HETATM   48  O8  UNL     1      19.083   7.366  29.946  1.00  0.00    -0.590 OA
HETATM   49  O9  UNL     1      16.629   7.158  30.789  1.00  0.00    -0.590 OA
ENDBRANCH  43  46
ENDBRANCH  38  39
ENDBRANCH  37  38
ENDBRANCH   9  37
TORSDOF 18
ENDMDL
MODEL 5
REMARK VINA RESULT: -9.532692012      1.935      2.734
REMARK  18 active torsions:
REMARK  status: ('A' for Active; 'I' for Inactive)
REMARK       I    between atoms: C1_2  and  N2_4 
REMARK    1  A    between atoms: N2_4  and  C2_6 
REMARK    2  A    between atoms: C2_6  and  O2_7 
REMARK    3  A    between atoms: C2_6  and  C3_9 
REMARK    4  A    between atoms: C3_9  and  O3_10 
REMARK    5  A    between atoms: C3_9  and  N3_12 
REMARK    6  A    between atoms: N3_12  and  O4_13 
REMARK    7  A    between atoms: O4_13  and  C4_14 
REMARK    8  A    between atoms: C4_14  and  C5_15 
REMARK    9  A    between atoms: C4_14  and  C18_47 
REMARK   10  A    between atoms: C5_15  and  C6_16 
REMARK   11  A    between atoms: C6_16  and  O5_17 
REMARK   12  A    between atoms: C6_16  and  N4_19 
REMARK   13  A    between atoms: N4_19  and  C7_21 
REMARK   14  A    between atoms: C12_29  and  C13_30 
REMARK   15  A    between atoms: C13_30  and  S2_31 
REMARK   16  A    between atoms: S2_31  and  C14_32 
REMARK   17  A    between atoms: C15_37  and  S3_38 
REMARK   18  A    between atoms: C16_43  and  C17_44 
ROOT
HETATM    1  C7  UNL     1      26.188   2.698  35.927  1.00  0.00     0.109 C 
HETATM    2  C8  UNL     1      26.047   3.571  37.063  1.00  0.00     0.271 C 
HETATM    3  O6  UNL     1      26.870   4.023  37.940  1.00  0.00    -0.266 OA
HETATM    4  N5  UNL     1      24.675   3.695  36.793  1.00  0.00    -0.309 N 
HETATM    5  C9  UNL     1      24.907   3.261  35.452  1.00  0.00     0.206 C 
HETATM    6  S1  UNL     1      23.747   1.971  34.931  1.00  0.00    -0.137 SA
HETATM    7  C10 UNL     1      22.072   2.590  34.719  1.00  0.00     0.081 C 
HETATM    8  C11 UNL     1      21.530   2.920  36.116  1.00  0.00     0.047 C 
HETATM    9  C12 UNL     1      22.309   4.078  36.607  1.00  0.00    -0.040 C 
HETATM   10  C16 UNL     1      23.467   4.083  37.504  1.00  0.00     0.220 C 
ENDROOT
BRANCH   1  11
HETATM   11  N4  UNL     1      27.025   1.840  35.514  1.00  0.00    -0.360 N 
ATOM     12  H4  UNL     1      27.020   1.636  34.514  1.00  0.00     0.162 HD
BRANCH  11  13
HETATM   13  C6  UNL     1      27.992   1.118  36.325  1.00  0.00     0.220 C 
BRANCH  13  14
HETATM   14  C5  UNL     1      28.825   2.168  37.006  1.00  0.00     0.098 C 
BRANCH  14  15
HETATM   15  C4  UNL     1      30.041   2.510  36.210  1.00  0.00     0.252 C 
BRANCH  15  16
HETATM   16  O4  UNL     1      31.082   2.746  37.141  1.00  0.00    -0.267 OA
BRANCH  16  17
HETATM   17  N3  UNL     1      32.166   2.104  36.710  1.00  0.00    -0.059 NA
BRANCH  17  18
HETATM   18  C3  UNL     1      33.336   3.022  36.625  1.00  0.00     0.313 C 
BRANCH  18  19
HETATM   19  C2  UNL     1      33.803   3.031  35.259  1.00  0.00     0.167 C 
BRANCH  19  20
HETATM   20  N2  UNL     1      35.024   2.667  34.735  1.00  0.00    -0.292 N 
HETATM   21  C1  UNL     1      35.585   2.711  33.468  1.00  0.00     0.334 C 
HETATM   22  N1  UNL     1      36.947   2.229  33.290  1.00  0.00    -0.040 NA
HETATM   23  O1  UNL     1      35.025   3.130  32.446  1.00  0.00    -0.251 OA
ATOM     24  H2  UNL     1      35.657   2.280  35.435  1.00  0.00     0.172 HD
ENDBRANCH  19  20
BRANCH  19  25
HETATM   25  O2  UNL     1      32.903   3.455  34.402  1.00  0.00    -0.346 OA
ATOM     26  H2  UNL     1      32.372   2.788  33.983  1.00  0.00     0.219 HD
ENDBRANCH  19  25
ENDBRANCH  18  19
BRANCH  18  27
HETATM   27  O3  UNL     1      32.985   4.179  37.239  1.00  0.00    -0.370 OA
ATOM     28  H3  UNL     1      32.894   4.983  36.739  1.00  0.00     0.212 HD
ENDBRANCH  18  27
ENDBRANCH  17  18
ENDBRANCH  16  17
ENDBRANCH  15  16
BRANCH  15  29
HETATM   29  C18 UNL     1      29.848   3.767  35.454  1.00  0.00     0.205 C 
HETATM   30  O12 UNL     1      29.086   3.746  34.447  1.00  0.00    -0.646 OA
HETATM   31  O13 UNL     1      30.467   4.947  35.812  1.00  0.00    -0.646 OA
ENDBRANCH  15  29
ENDBRANCH  14  15
ENDBRANCH  13  14
BRANCH  13  32
HETATM   32  O5  UNL     1      27.252   0.372  37.242  1.00  0.00    -0.377 OA
ATOM     33  H5  UNL     1      26.485  -0.018  36.840  1.00  0.00     0.212 HD
ENDBRANCH  13  32
ENDBRANCH  11  13
ENDBRANCH   1  11
BRANCH  10  34
HETATM   34  C17 UNL     1      23.716   5.387  38.152  1.00  0.00     0.201 C 
HETATM   35  O10 UNL     1      23.461   5.541  39.387  1.00  0.00    -0.646 OA
HETATM   36  O11 UNL     1      24.222   6.472  37.467  1.00  0.00    -0.646 OA
ENDBRANCH  10  34
BRANCH   9  37
HETATM   37  C13 UNL     1      21.907   5.252  36.166  1.00  0.00     0.058 C 
BRANCH  37  38
HETATM   38  S2  UNL     1      20.194   5.771  36.217  1.00  0.00    -0.075 SA
BRANCH  38  39
HETATM   39  C14 UNL     1      19.698   6.134  34.529  1.00  0.00     0.133 A 
HETATM   40  N6  UNL     1      19.705   5.338  33.466  1.00  0.00    -0.286 N 
HETATM   41  N7  UNL     1      19.312   5.772  32.348  1.00  0.00    -0.281 N 
ATOM     42  H6  UNL     1      20.028   4.374  33.554  1.00  0.00     0.188 HD
HETATM   43  C15 UNL     1      18.891   7.026  32.232  1.00  0.00     0.209 A 
ATOM     44  H7  UNL     1      19.317   5.158  31.533  1.00  0.00     0.188 HD
HETATM   45  S4  UNL     1      19.084   7.588  33.843  1.00  0.00    -0.030 SA
BRANCH  43  46
HETATM   46  S3  UNL     1      18.295   7.865  30.798  1.00  0.00     0.163 S 
HETATM   47  O7  UNL     1      16.901   7.313  30.564  1.00  0.00    -0.590 OA
HETATM   48  O8  UNL     1      18.285   9.342  31.003  1.00  0.00    -0.590 OA
HETATM   49  O9  UNL     1      19.268   7.468  29.487  1.00  0.00    -0.590 OA
ENDBRANCH  43  46
ENDBRANCH  38  39
ENDBRANCH  37  38
ENDBRANCH   9  37
TORSDOF 18
ENDMDL
