MODEL 1
REMARK VINA RESULT: -9.161478416      0.000      0.000
REMARK  20 active torsions:
REMARK  status: ('A' for Active; 'I' for Inactive)
REMARK    1  A    between atoms: C5_8  and  N2_9 
REMARK       I    between atoms: N2_9  and  C6_11 
REMARK    2  A    between atoms: C6_11  and  C7_13 
REMARK    3  A    between atoms: C8_18  and  N5_19 
REMARK       I    between atoms: N5_19  and  C9_21 
REMARK    4  A    between atoms: C9_21  and  O4_23 
REMARK    5  A    between atoms: O4_23  and  C10_24 
REMARK    6  A    between atoms: C14_28  and  C15_29 
REMARK    7  A    between atoms: C15_29  and  O6_31 
REMARK    8  A    between atoms: O6_31  and  N6_32 
REMARK    9  A    between atoms: N6_32  and  C16_33 
REMARK   10  A    between atoms: C16_33  and  C17_34 
REMARK   11  A    between atoms: C17_34  and  O7_35 
REMARK   12  A    between atoms: C17_34  and  C18_37 
REMARK   13  A    between atoms: C17_34  and  O8_40 
REMARK   14  A    between atoms: O8_40  and  C21_41 
REMARK   15  A    between atoms: C21_41  and  C22_42 
REMARK   16  A    between atoms: C21_41  and  C23_45 
REMARK   17  A    between atoms: C22_42  and  O9_43 
REMARK   18  A    between atoms: C23_45  and  O10_46 
REMARK   19  A    between atoms: C24_51  and  C25_52 
REMARK   20  A    between atoms: C25_52  and  N8_53 
ROOT
HETATM    1  C1  UNL     1      18.117  10.195  36.857  1.00  0.00     0.099 C 
HETATM    2  C2  UNL     1      17.632   9.446  36.022  1.00  0.00    -0.160 C 
HETATM    3  C3  UNL     1      17.029   8.564  35.012  1.00  0.00     0.181 C 
HETATM    4  N1  UNL     1      16.734   7.250  35.556  1.00  0.00    -0.341 N 
ATOM      5  H1  UNL     1      15.836   7.029  35.987  1.00  0.00     0.164 HD
HETATM    6  C4  UNL     1      17.779   6.293  35.448  1.00  0.00     0.267 C 
HETATM    7  O1  UNL     1      17.549   5.052  35.428  1.00  0.00    -0.269 OA
HETATM    8  C5  UNL     1      19.155   6.875  35.363  1.00  0.00     0.317 C 
HETATM    9  O11 UNL     1      19.291   7.886  34.464  1.00  0.00    -0.348 OA
HETATM   10  C24 UNL     1      18.069   8.310  33.948  1.00  0.00     0.178 C 
ENDROOT
BRANCH  10  11
HETATM   11  C25 UNL     1      18.222   9.396  32.947  1.00  0.00     0.184 C 
BRANCH  11  12
HETATM   12  N8  UNL     1      18.285   8.843  31.615  1.00  0.00    -0.285 N 
HETATM   13  C26 UNL     1      17.786   9.435  30.486  1.00  0.00     0.130 A 
HETATM   14  C27 UNL     1      18.008   8.611  29.416  1.00  0.00     0.127 A 
HETATM   15  N9  UNL     1      18.634   7.533  29.891  1.00  0.00    -0.296 N 
HETATM   16  N10 UNL     1      18.790   7.693  31.212  1.00  0.00    -0.241 N 
ATOM     17  H9  UNL     1      18.940   6.729  29.344  1.00  0.00     0.187 HD
ATOM     18  H10 UNL     1      19.242   7.014  31.825  1.00  0.00     0.208 HD
ENDBRANCH  11  12
ENDBRANCH  10  11
BRANCH   8  19
HETATM   19  N2  UNL     1      20.166   5.856  35.278  1.00  0.00    -0.320 N 
HETATM   20  C6  UNL     1      21.391   5.961  35.963  1.00  0.00     0.289 C 
HETATM   21  O2  UNL     1      21.598   6.978  36.670  1.00  0.00    -0.264 OA
ATOM     22  H2  UNL     1      19.990   5.032  34.704  1.00  0.00     0.166 HD
BRANCH  20  23
HETATM   23  C7  UNL     1      22.423   4.946  35.890  1.00  0.00     0.190 A 
HETATM   24  N3  UNL     1      22.454   3.935  35.007  1.00  0.00    -0.279 N 
HETATM   25  N4  UNL     1      23.395   3.008  34.955  1.00  0.00    -0.282 N 
ATOM     26  H3  UNL     1      21.695   3.879  34.327  1.00  0.00     0.189 HD
HETATM   27  C8  UNL     1      24.417   3.011  35.807  1.00  0.00     0.158 A 
ATOM     28  H4  UNL     1      23.336   2.277  34.247  1.00  0.00     0.188 HD
HETATM   29  C14 UNL     1      24.438   4.042  36.752  1.00  0.00     0.159 A 
HETATM   30  N7  UNL     1      23.471   4.951  36.765  1.00  0.00    -0.329 N 
ATOM     31  H7  UNL     1      23.513   5.692  37.465  1.00  0.00     0.168 HD
BRANCH  27  32
HETATM   32  N5  UNL     1      25.380   2.157  35.840  1.00  0.00    -0.285 N 
HETATM   33  C9  UNL     1      25.962   1.607  34.696  1.00  0.00     0.367 C 
HETATM   34  O3  UNL     1      25.265   0.995  33.862  1.00  0.00    -0.238 OA
ATOM     35  H5  UNL     1      25.737   1.866  36.751  1.00  0.00     0.172 HD
BRANCH  33  36
HETATM   36  O4  UNL     1      27.314   1.747  34.503  1.00  0.00    -0.294 OA
BRANCH  36  37
HETATM   37  C10 UNL     1      27.876   2.547  33.507  1.00  0.00     0.061 C 
HETATM   38  C11 UNL     1      28.587   1.719  32.455  1.00  0.00     0.046 C 
HETATM   39  C12 UNL     1      28.959   3.396  34.193  1.00  0.00     0.046 C 
HETATM   40  C13 UNL     1      26.824   3.444  32.913  1.00  0.00     0.046 C 
ENDBRANCH  36  37
ENDBRANCH  33  36
ENDBRANCH  27  32
BRANCH  29  41
HETATM   41  C15 UNL     1      25.521   4.109  37.717  1.00  0.00     0.349 C 
HETATM   42  O5  UNL     1      25.303   4.449  38.906  1.00  0.00    -0.254 OA
BRANCH  41  43
HETATM   43  O6  UNL     1      26.830   3.808  37.391  1.00  0.00    -0.120 OA
BRANCH  43  44
HETATM   44  N6  UNL     1      27.896   3.777  38.062  1.00  0.00    -0.283 NA
BRANCH  44  45
HETATM   45  C16 UNL     1      28.900   3.748  38.694  1.00  0.00     0.273 C 
BRANCH  45  46
HETATM   46  C17 UNL     1      30.119   4.532  38.259  1.00  0.00     0.280 C 
BRANCH  46  47
HETATM   47  O7  UNL     1      29.936   4.842  36.886  1.00  0.00    -0.350 OA
ATOM     48  H7  UNL     1      30.773   4.697  36.460  1.00  0.00     0.214 HD
ENDBRANCH  46  47
BRANCH  46  49
HETATM   49  C18 UNL     1      30.228   5.756  39.013  1.00  0.00    -0.032 C 
HETATM   50  C19 UNL     1      30.311   6.815  39.628  1.00  0.00    -0.105 C 
HETATM   51  C20 UNL     1      30.387   8.082  40.347  1.00  0.00     0.112 C 
ENDBRANCH  46  49
BRANCH  46  52
HETATM   52  O8  UNL     1      31.275   3.796  38.329  1.00  0.00    -0.330 OA
BRANCH  52  53
HETATM   53  C21 UNL     1      31.707   3.422  37.068  1.00  0.00     0.173 C 
BRANCH  53  54
HETATM   54  C22 UNL     1      31.500   1.879  36.929  1.00  0.00     0.198 C 
BRANCH  54  55
HETATM   55  O9  UNL     1      31.547   1.290  38.186  1.00  0.00    -0.398 OA
ATOM     56  H9  UNL     1      30.684   1.320  38.582  1.00  0.00     0.209 HD
ENDBRANCH  54  55
ENDBRANCH  53  54
BRANCH  53  57
HETATM   57  C23 UNL     1      33.152   3.721  36.797  1.00  0.00     0.198 C 
BRANCH  57  58
HETATM   58  O10 UNL     1      34.043   2.757  37.198  1.00  0.00    -0.398 OA
ATOM     59  H10 UNL     1      34.949   2.909  36.956  1.00  0.00     0.209 HD
ENDBRANCH  57  58
ENDBRANCH  53  57
ENDBRANCH  52  53
ENDBRANCH  46  52
ENDBRANCH  45  46
ENDBRANCH  44  45
ENDBRANCH  43  44
ENDBRANCH  41  43
ENDBRANCH  29  41
ENDBRANCH  20  23
ENDBRANCH   8  19
TORSDOF 20
ENDMDL
MODEL 2
REMARK VINA RESULT: -8.854502629      2.882      5.037
REMARK  20 active torsions:
REMARK  status: ('A' for Active; 'I' for Inactive)
REMARK    1  A    between atoms: C5_8  and  N2_9 
REMARK       I    between atoms: N2_9  and  C6_11 
REMARK    2  A    between atoms: C6_11  and  C7_13 
REMARK    3  A    between atoms: C8_18  and  N5_19 
REMARK       I    between atoms: N5_19  and  C9_21 
REMARK    4  A    between atoms: C9_21  and  O4_23 
REMARK    5  A    between atoms: O4_23  and  C10_24 
REMARK    6  A    between atoms: C14_28  and  C15_29 
REMARK    7  A    between atoms: C15_29  and  O6_31 
REMARK    8  A    between atoms: O6_31  and  N6_32 
REMARK    9  A    between atoms: N6_32  and  C16_33 
REMARK   10  A    between atoms: C16_33  and  C17_34 
REMARK   11  A    between atoms: C17_34  and  O7_35 
REMARK   12  A    between atoms: C17_34  and  C18_37 
REMARK   13  A    between atoms: C17_34  and  O8_40 
REMARK   14  A    between atoms: O8_40  and  C21_41 
REMARK   15  A    between atoms: C21_41  and  C22_42 
REMARK   16  A    between atoms: C21_41  and  C23_45 
REMARK   17  A    between atoms: C22_42  and  O9_43 
REMARK   18  A    between atoms: C23_45  and  O10_46 
REMARK   19  A    between atoms: C24_51  and  C25_52 
REMARK   20  A    between atoms: C25_52  and  N8_53 
ROOT
HETATM    1  C1  UNL     1      20.008   6.195  37.421  1.00  0.00     0.099 C 
HETATM    2  C2  UNL     1      19.983   5.555  36.380  1.00  0.00    -0.160 C 
HETATM    3  C3  UNL     1      19.926   4.794  35.123  1.00  0.00     0.181 C 
HETATM    4  N1  UNL     1      20.235   3.391  35.333  1.00  0.00    -0.341 N 
ATOM      5  H1  UNL     1      19.514   2.700  35.543  1.00  0.00     0.164 HD
HETATM    6  C4  UNL     1      21.609   3.043  35.224  1.00  0.00     0.267 C 
HETATM    7  O1  UNL     1      21.980   1.876  34.916  1.00  0.00    -0.269 OA
HETATM    8  C5  UNL     1      22.563   4.162  35.505  1.00  0.00     0.317 C 
HETATM    9  O11 UNL     1      22.277   5.327  34.864  1.00  0.00    -0.348 OA
HETATM   10  C24 UNL     1      21.036   5.299  34.234  1.00  0.00     0.178 C 
ENDROOT
BRANCH  10  11
HETATM   11  C25 UNL     1      20.737   6.562  33.513  1.00  0.00     0.184 C 
BRANCH  11  12
HETATM   12  N8  UNL     1      21.526   7.644  34.054  1.00  0.00    -0.285 N 
HETATM   13  C26 UNL     1      21.034   8.712  34.756  1.00  0.00     0.130 A 
HETATM   14  C27 UNL     1      22.069   9.543  35.087  1.00  0.00     0.127 A 
HETATM   15  N9  UNL     1      23.175   8.986  34.592  1.00  0.00    -0.296 N 
HETATM   16  N10 UNL     1      22.827   7.848  33.976  1.00  0.00    -0.241 N 
ATOM     17  H9  UNL     1      24.121   9.360  34.668  1.00  0.00     0.187 HD
ATOM     18  H10 UNL     1      23.483   7.221  33.509  1.00  0.00     0.208 HD
ENDBRANCH  11  12
ENDBRANCH  10  11
BRANCH   8  19
HETATM   19  N2  UNL     1      23.934   3.739  35.400  1.00  0.00    -0.320 N 
HETATM   20  C6  UNL     1      24.752   3.576  36.533  1.00  0.00     0.289 C 
HETATM   21  O2  UNL     1      24.263   3.807  37.665  1.00  0.00    -0.264 OA
ATOM     22  H2  UNL     1      24.324   3.552  34.477  1.00  0.00     0.166 HD
BRANCH  20  23
HETATM   23  C7  UNL     1      26.136   3.153  36.449  1.00  0.00     0.190 A 
HETATM   24  N3  UNL     1      26.640   2.337  35.510  1.00  0.00    -0.279 N 
HETATM   25  N4  UNL     1      27.903   1.948  35.448  1.00  0.00    -0.282 N 
ATOM     26  H3  UNL     1      26.003   1.992  34.792  1.00  0.00     0.189 HD
HETATM   27  C8  UNL     1      28.797   2.353  36.347  1.00  0.00     0.158 A 
ATOM     28  H4  UNL     1      28.197   1.326  34.696  1.00  0.00     0.188 HD
HETATM   29  C14 UNL     1      28.328   3.206  37.351  1.00  0.00     0.159 A 
HETATM   30  N7  UNL     1      27.051   3.570  37.372  1.00  0.00    -0.329 N 
ATOM     31  H7  UNL     1      26.738   4.193  38.116  1.00  0.00     0.168 HD
BRANCH  27  32
HETATM   32  N5  UNL     1      30.043   2.032  36.376  1.00  0.00    -0.285 N 
HETATM   33  C9  UNL     1      31.034   2.729  35.682  1.00  0.00     0.367 C 
HETATM   34  O3  UNL     1      30.959   2.875  34.446  1.00  0.00    -0.238 OA
ATOM     35  H5  UNL     1      30.322   1.226  36.935  1.00  0.00     0.172 HD
BRANCH  33  36
HETATM   36  O4  UNL     1      32.095   3.251  36.380  1.00  0.00    -0.294 OA
BRANCH  36  37
HETATM   37  C10 UNL     1      32.617   4.526  36.158  1.00  0.00     0.061 C 
HETATM   38  C11 UNL     1      33.753   4.501  35.154  1.00  0.00     0.046 C 
HETATM   39  C12 UNL     1      33.230   4.981  37.493  1.00  0.00     0.046 C 
HETATM   40  C13 UNL     1      31.517   5.469  35.753  1.00  0.00     0.046 C 
ENDBRANCH  36  37
ENDBRANCH  33  36
ENDBRANCH  27  32
BRANCH  29  41
HETATM   41  C15 UNL     1      29.244   3.686  38.370  1.00  0.00     0.349 C 
HETATM   42  O5  UNL     1      29.787   2.889  39.175  1.00  0.00    -0.254 OA
BRANCH  41  43
HETATM   43  O6  UNL     1      29.565   5.023  38.513  1.00  0.00    -0.120 OA
BRANCH  43  44
HETATM   44  N6  UNL     1      29.779   5.752  39.520  1.00  0.00    -0.283 NA
BRANCH  44  45
HETATM   45  C16 UNL     1      29.981   6.437  40.466  1.00  0.00     0.273 C 
BRANCH  45  46
HETATM   46  C17 UNL     1      30.927   7.615  40.390  1.00  0.00     0.280 C 
BRANCH  46  47
HETATM   47  O7  UNL     1      32.001   7.220  39.550  1.00  0.00    -0.350 OA
ATOM     48  H7  UNL     1      32.616   6.747  40.098  1.00  0.00     0.214 HD
ENDBRANCH  46  47
BRANCH  46  49
HETATM   49  C18 UNL     1      30.267   8.758  39.813  1.00  0.00    -0.032 C 
HETATM   50  C19 UNL     1      29.676   9.715  39.320  1.00  0.00    -0.105 C 
HETATM   51  C20 UNL     1      28.952  10.845  38.748  1.00  0.00     0.112 C 
ENDBRANCH  46  49
BRANCH  46  52
HETATM   52  O8  UNL     1      31.491   7.922  41.603  1.00  0.00    -0.330 OA
BRANCH  52  53
HETATM   53  C21 UNL     1      32.462   6.999  41.951  1.00  0.00     0.173 C 
BRANCH  53  54
HETATM   54  C22 UNL     1      32.035   6.340  43.303  1.00  0.00     0.198 C 
BRANCH  54  55
HETATM   55  O9  UNL     1      33.083   6.423  44.210  1.00  0.00    -0.398 OA
ATOM     56  H9  UNL     1      32.744   6.341  45.094  1.00  0.00     0.209 HD
ENDBRANCH  54  55
ENDBRANCH  53  54
BRANCH  53  57
HETATM   57  C23 UNL     1      33.832   7.585  42.135  1.00  0.00     0.198 C 
BRANCH  57  58
HETATM   58  O10 UNL     1      34.094   8.721  41.410  1.00  0.00    -0.398 OA
ATOM     59  H10 UNL     1      34.909   8.718  40.923  1.00  0.00     0.209 HD
ENDBRANCH  57  58
ENDBRANCH  53  57
ENDBRANCH  52  53
ENDBRANCH  46  52
ENDBRANCH  45  46
ENDBRANCH  44  45
ENDBRANCH  43  44
ENDBRANCH  41  43
ENDBRANCH  29  41
ENDBRANCH  20  23
ENDBRANCH   8  19
TORSDOF 20
ENDMDL
MODEL 3
REMARK VINA RESULT: -8.778896604      1.072      1.309
REMARK  20 active torsions:
REMARK  status: ('A' for Active; 'I' for Inactive)
REMARK    1  A    between atoms: C5_8  and  N2_9 
REMARK       I    between atoms: N2_9  and  C6_11 
REMARK    2  A    between atoms: C6_11  and  C7_13 
REMARK    3  A    between atoms: C8_18  and  N5_19 
REMARK       I    between atoms: N5_19  and  C9_21 
REMARK    4  A    between atoms: C9_21  and  O4_23 
REMARK    5  A    between atoms: O4_23  and  C10_24 
REMARK    6  A    between atoms: C14_28  and  C15_29 
REMARK    7  A    between atoms: C15_29  and  O6_31 
REMARK    8  A    between atoms: O6_31  and  N6_32 
REMARK    9  A    between atoms: N6_32  and  C16_33 
REMARK   10  A    between atoms: C16_33  and  C17_34 
REMARK   11  A    between atoms: C17_34  and  O7_35 
REMARK   12  A    between atoms: C17_34  and  C18_37 
REMARK   13  A    between atoms: C17_34  and  O8_40 
REMARK   14  A    between atoms: O8_40  and  C21_41 
REMARK   15  A    between atoms: C21_41  and  C22_42 
REMARK   16  A    between atoms: C21_41  and  C23_45 
REMARK   17  A    between atoms: C22_42  and  O9_43 
REMARK   18  A    between atoms: C23_45  and  O10_46 
REMARK   19  A    between atoms: C24_51  and  C25_52 
REMARK   20  A    between atoms: C25_52  and  N8_53 
ROOT
HETATM    1  C1  UNL     1      17.953  10.174  37.462  1.00  0.00     0.099 C 
HETATM    2  C2  UNL     1      17.588   9.586  36.455  1.00  0.00    -0.160 C 
HETATM    3  C3  UNL     1      17.131   8.901  35.237  1.00  0.00     0.181 C 
HETATM    4  N1  UNL     1      16.697   7.544  35.518  1.00  0.00    -0.341 N 
ATOM      5  H1  UNL     1      15.731   7.320  35.760  1.00  0.00     0.164 HD
HETATM    6  C4  UNL     1      17.707   6.548  35.434  1.00  0.00     0.267 C 
HETATM    7  O1  UNL     1      17.435   5.340  35.187  1.00  0.00    -0.269 OA
HETATM    8  C5  UNL     1      19.100   7.047  35.663  1.00  0.00     0.317 C 
HETATM    9  O11 UNL     1      19.425   8.166  34.964  1.00  0.00    -0.348 OA
HETATM   10  C24 UNL     1      18.325   8.738  34.329  1.00  0.00     0.178 C 
ENDROOT
BRANCH  10  11
HETATM   11  C25 UNL     1      18.687   9.946  33.545  1.00  0.00     0.184 C 
BRANCH  11  12
HETATM   12  N8  UNL     1      17.601  10.316  32.669  1.00  0.00    -0.285 N 
HETATM   13  C26 UNL     1      17.100   9.543  31.655  1.00  0.00     0.130 A 
HETATM   14  C27 UNL     1      16.095  10.228  31.028  1.00  0.00     0.127 A 
HETATM   15  N9  UNL     1      15.988  11.401  31.653  1.00  0.00    -0.296 N 
HETATM   16  N10 UNL     1      16.900  11.434  32.634  1.00  0.00    -0.241 N 
ATOM     17  H9  UNL     1      15.328  12.144  31.425  1.00  0.00     0.187 HD
ATOM     18  H10 UNL     1      17.035  12.219  33.271  1.00  0.00     0.208 HD
ENDBRANCH  11  12
ENDBRANCH  10  11
BRANCH   8  19
HETATM   19  N2  UNL     1      20.070   5.988  35.587  1.00  0.00    -0.320 N 
HETATM   20  C6  UNL     1      21.372   6.132  36.099  1.00  0.00     0.289 C 
HETATM   21  O2  UNL     1      21.688   7.220  36.639  1.00  0.00    -0.264 OA
ATOM     22  H2  UNL     1      19.806   5.106  35.148  1.00  0.00     0.166 HD
BRANCH  20  23
HETATM   23  C7  UNL     1      22.366   5.079  36.031  1.00  0.00     0.190 A 
HETATM   24  N3  UNL     1      22.340   4.044  35.176  1.00  0.00    -0.279 N 
HETATM   25  N4  UNL     1      23.246   3.082  35.128  1.00  0.00    -0.282 N 
ATOM     26  H3  UNL     1      21.565   3.997  34.514  1.00  0.00     0.189 HD
HETATM   27  C8  UNL     1      24.287   3.070  35.957  1.00  0.00     0.158 A 
ATOM     28  H4  UNL     1      23.145   2.335  34.442  1.00  0.00     0.188 HD
HETATM   29  C14 UNL     1      24.367   4.125  36.872  1.00  0.00     0.159 A 
HETATM   30  N7  UNL     1      23.433   5.068  36.882  1.00  0.00    -0.329 N 
ATOM     31  H7  UNL     1      23.518   5.825  37.560  1.00  0.00     0.168 HD
BRANCH  27  32
HETATM   32  N5  UNL     1      25.219   2.183  35.992  1.00  0.00    -0.285 N 
HETATM   33  C9  UNL     1      25.721   1.547  34.855  1.00  0.00     0.367 C 
HETATM   34  O3  UNL     1      24.961   0.917  34.093  1.00  0.00    -0.238 OA
ATOM     35  H5  UNL     1      25.611   1.930  36.899  1.00  0.00     0.172 HD
BRANCH  33  36
HETATM   36  O4  UNL     1      27.065   1.624  34.587  1.00  0.00    -0.294 OA
BRANCH  36  37
HETATM   37  C10 UNL     1      27.627   2.535  33.692  1.00  0.00     0.061 C 
HETATM   38  C11 UNL     1      28.396   1.837  32.588  1.00  0.00     0.046 C 
HETATM   39  C12 UNL     1      28.660   3.347  34.491  1.00  0.00     0.046 C 
HETATM   40  C13 UNL     1      26.561   3.451  33.155  1.00  0.00     0.046 C 
ENDBRANCH  36  37
ENDBRANCH  33  36
ENDBRANCH  27  32
BRANCH  29  41
HETATM   41  C15 UNL     1      25.473   4.177  37.812  1.00  0.00     0.349 C 
HETATM   42  O5  UNL     1      25.290   4.536  39.001  1.00  0.00    -0.254 OA
BRANCH  41  43
HETATM   43  O6  UNL     1      26.766   3.844  37.458  1.00  0.00    -0.120 OA
BRANCH  43  44
HETATM   44  N6  UNL     1      27.852   3.819  38.099  1.00  0.00    -0.283 NA
BRANCH  44  45
HETATM   45  C16 UNL     1      28.873   3.795  38.702  1.00  0.00     0.273 C 
BRANCH  45  46
HETATM   46  C17 UNL     1      30.083   4.564  38.218  1.00  0.00     0.280 C 
BRANCH  46  47
HETATM   47  O7  UNL     1      29.798   4.979  36.891  1.00  0.00    -0.350 OA
ATOM     48  H7  UNL     1      30.586   4.825  36.382  1.00  0.00     0.214 HD
ENDBRANCH  46  47
BRANCH  46  49
HETATM   49  C18 UNL     1      30.308   5.724  39.042  1.00  0.00    -0.032 C 
HETATM   50  C19 UNL     1      30.522   6.724  39.722  1.00  0.00    -0.105 C 
HETATM   51  C20 UNL     1      30.780   7.926  40.508  1.00  0.00     0.112 C 
ENDBRANCH  46  49
BRANCH  46  52
HETATM   52  O8  UNL     1      31.209   3.782  38.136  1.00  0.00    -0.330 OA
BRANCH  52  53
HETATM   53  C21 UNL     1      31.879   3.996  36.944  1.00  0.00     0.173 C 
BRANCH  53  54
HETATM   54  C22 UNL     1      32.052   2.613  36.236  1.00  0.00     0.198 C 
BRANCH  54  55
HETATM   55  O9  UNL     1      31.964   2.782  34.860  1.00  0.00    -0.398 OA
ATOM     56  H9  UNL     1      32.834   2.751  34.481  1.00  0.00     0.209 HD
ENDBRANCH  54  55
ENDBRANCH  53  54
BRANCH  53  57
HETATM   57  C23 UNL     1      33.241   4.607  37.102  1.00  0.00     0.198 C 
BRANCH  57  58
HETATM   58  O10 UNL     1      34.235   4.049  36.338  1.00  0.00    -0.398 OA
ATOM     59  H10 UNL     1      34.474   3.157  36.562  1.00  0.00     0.209 HD
ENDBRANCH  57  58
ENDBRANCH  53  57
ENDBRANCH  52  53
ENDBRANCH  46  52
ENDBRANCH  45  46
ENDBRANCH  44  45
ENDBRANCH  43  44
ENDBRANCH  41  43
ENDBRANCH  29  41
ENDBRANCH  20  23
ENDBRANCH   8  19
TORSDOF 20
ENDMDL
MODEL 4
REMARK VINA RESULT: -8.758331244      2.991      9.908
REMARK  20 active torsions:
REMARK  status: ('A' for Active; 'I' for Inactive)
REMARK    1  A    between atoms: C5_8  and  N2_9 
REMARK       I    between atoms: N2_9  and  C6_11 
REMARK    2  A    between atoms: C6_11  and  C7_13 
REMARK    3  A    between atoms: C8_18  and  N5_19 
REMARK       I    between atoms: N5_19  and  C9_21 
REMARK    4  A    between atoms: C9_21  and  O4_23 
REMARK    5  A    between atoms: O4_23  and  C10_24 
REMARK    6  A    between atoms: C14_28  and  C15_29 
REMARK    7  A    between atoms: C15_29  and  O6_31 
REMARK    8  A    between atoms: O6_31  and  N6_32 
REMARK    9  A    between atoms: N6_32  and  C16_33 
REMARK   10  A    between atoms: C16_33  and  C17_34 
REMARK   11  A    between atoms: C17_34  and  O7_35 
REMARK   12  A    between atoms: C17_34  and  C18_37 
REMARK   13  A    between atoms: C17_34  and  O8_40 
REMARK   14  A    between atoms: O8_40  and  C21_41 
REMARK   15  A    between atoms: C21_41  and  C22_42 
REMARK   16  A    between atoms: C21_41  and  C23_45 
REMARK   17  A    between atoms: C22_42  and  O9_43 
REMARK   18  A    between atoms: C23_45  and  O10_46 
REMARK   19  A    between atoms: C24_51  and  C25_52 
REMARK   20  A    between atoms: C25_52  and  N8_53 
ROOT
HETATM    1  C1  UNL     1      27.557   0.085  36.467  1.00  0.00     0.099 C 
HETATM    2  C2  UNL     1      27.734   1.283  36.631  1.00  0.00    -0.160 C 
HETATM    3  C3  UNL     1      27.976   2.720  36.830  1.00  0.00     0.181 C 
HETATM    4  N1  UNL     1      27.184   3.249  37.926  1.00  0.00    -0.341 N 
ATOM      5  H1  UNL     1      27.528   3.268  38.886  1.00  0.00     0.164 HD
HETATM    6  C4  UNL     1      25.897   3.739  37.572  1.00  0.00     0.267 C 
HETATM    7  O1  UNL     1      25.304   4.616  38.260  1.00  0.00    -0.269 OA
HETATM    8  C5  UNL     1      25.315   3.132  36.334  1.00  0.00     0.317 C 
HETATM    9  O11 UNL     1      26.158   3.093  35.269  1.00  0.00    -0.348 OA
HETATM   10  C24 UNL     1      27.463   3.442  35.607  1.00  0.00     0.178 C 
ENDROOT
BRANCH  10  11
HETATM   11  C25 UNL     1      28.377   3.423  34.438  1.00  0.00     0.184 C 
BRANCH  11  12
HETATM   12  N8  UNL     1      29.733   3.686  34.859  1.00  0.00    -0.285 N 
HETATM   13  C26 UNL     1      30.137   4.758  35.610  1.00  0.00     0.130 A 
HETATM   14  C27 UNL     1      31.491   4.687  35.793  1.00  0.00     0.127 A 
HETATM   15  N9  UNL     1      31.903   3.587  35.161  1.00  0.00    -0.296 N 
HETATM   16  N10 UNL     1      30.833   3.002  34.608  1.00  0.00    -0.241 N 
ATOM     17  H9  UNL     1      32.864   3.251  35.108  1.00  0.00     0.187 HD
ATOM     18  H10 UNL     1      30.864   2.139  34.064  1.00  0.00     0.208 HD
ENDBRANCH  11  12
ENDBRANCH  10  11
BRANCH   8  19
HETATM   19  N2  UNL     1      24.006   3.654  36.045  1.00  0.00    -0.320 N 
HETATM   20  C6  UNL     1      23.021   2.880  35.404  1.00  0.00     0.289 C 
HETATM   21  O2  UNL     1      23.300   1.700  35.081  1.00  0.00    -0.264 OA
ATOM     22  H2  UNL     1      23.785   4.613  36.312  1.00  0.00     0.166 HD
BRANCH  20  23
HETATM   23  C7  UNL     1      21.696   3.386  35.102  1.00  0.00     0.190 A 
HETATM   24  N3  UNL     1      20.553   2.937  35.644  1.00  0.00    -0.279 N 
HETATM   25  N4  UNL     1      19.349   3.399  35.354  1.00  0.00    -0.282 N 
ATOM     26  H3  UNL     1      20.620   2.185  36.330  1.00  0.00     0.189 HD
HETATM   27  C8  UNL     1      19.176   4.378  34.470  1.00  0.00     0.158 A 
ATOM     28  H4  UNL     1      18.535   2.996  35.818  1.00  0.00     0.188 HD
HETATM   29  C14 UNL     1      20.334   4.886  33.870  1.00  0.00     0.159 A 
HETATM   30  N7  UNL     1      21.522   4.391  34.194  1.00  0.00    -0.329 N 
ATOM     31  H7  UNL     1      22.348   4.782  33.741  1.00  0.00     0.168 HD
BRANCH  27  32
HETATM   32  N5  UNL     1      18.051   4.894  34.118  1.00  0.00    -0.285 N 
HETATM   33  C9  UNL     1      17.401   5.893  34.846  1.00  0.00     0.367 C 
HETATM   34  O3  UNL     1      17.101   5.712  36.042  1.00  0.00    -0.238 OA
ATOM     35  H5  UNL     1      17.610   4.556  33.262  1.00  0.00     0.172 HD
BRANCH  33  36
HETATM   36  O4  UNL     1      17.096   7.079  34.224  1.00  0.00    -0.294 OA
BRANCH  36  37
HETATM   37  C10 UNL     1      17.378   8.333  34.766  1.00  0.00     0.061 C 
HETATM   38  C11 UNL     1      16.117   9.055  35.199  1.00  0.00     0.046 C 
HETATM   39  C12 UNL     1      17.985   9.170  33.628  1.00  0.00     0.046 C 
HETATM   40  C13 UNL     1      18.373   8.198  35.887  1.00  0.00     0.046 C 
ENDBRANCH  36  37
ENDBRANCH  33  36
ENDBRANCH  27  32
BRANCH  29  41
HETATM   41  C15 UNL     1      20.226   5.953  32.892  1.00  0.00     0.349 C 
HETATM   42  O5  UNL     1      19.453   5.847  31.907  1.00  0.00    -0.254 OA
BRANCH  41  43
HETATM   43  O6  UNL     1      20.953   7.125  32.984  1.00  0.00    -0.120 OA
BRANCH  43  44
HETATM   44  N6  UNL     1      21.355   7.811  33.962  1.00  0.00    -0.283 NA
BRANCH  44  45
HETATM   45  C16 UNL     1      21.734   8.456  34.882  1.00  0.00     0.273 C 
BRANCH  45  46
HETATM   46  C17 UNL     1      22.776   7.918  35.838  1.00  0.00     0.280 C 
BRANCH  46  47
HETATM   47  O7  UNL     1      23.124   6.623  35.373  1.00  0.00    -0.350 OA
ATOM     48  H7  UNL     1      23.872   6.341  35.887  1.00  0.00     0.214 HD
ENDBRANCH  46  47
BRANCH  46  49
HETATM   49  C18 UNL     1      23.948   8.757  35.833  1.00  0.00    -0.032 C 
HETATM   50  C19 UNL     1      24.937   9.483  35.799  1.00  0.00    -0.105 C 
HETATM   51  C20 UNL     1      26.098  10.365  35.747  1.00  0.00     0.112 C 
ENDBRANCH  46  49
BRANCH  46  52
HETATM   52  O8  UNL     1      22.290   7.745  37.109  1.00  0.00    -0.330 OA
BRANCH  52  53
HETATM   53  C21 UNL     1      22.268   6.405  37.458  1.00  0.00     0.173 C 
BRANCH  53  54
HETATM   54  C22 UNL     1      20.773   5.962  37.567  1.00  0.00     0.198 C 
BRANCH  54  55
HETATM   55  O9  UNL     1      20.139   6.710  38.551  1.00  0.00    -0.398 OA
ATOM     56  H9  UNL     1      19.259   6.929  38.265  1.00  0.00     0.209 HD
ENDBRANCH  54  55
ENDBRANCH  53  54
BRANCH  53  57
HETATM   57  C23 UNL     1      22.938   6.097  38.765  1.00  0.00     0.198 C 
BRANCH  57  58
HETATM   58  O10 UNL     1      23.858   7.022  39.193  1.00  0.00    -0.398 OA
ATOM     59  H10 UNL     1      24.180   6.901  40.079  1.00  0.00     0.209 HD
ENDBRANCH  57  58
ENDBRANCH  53  57
ENDBRANCH  52  53
ENDBRANCH  46  52
ENDBRANCH  45  46
ENDBRANCH  44  45
ENDBRANCH  43  44
ENDBRANCH  41  43
ENDBRANCH  29  41
ENDBRANCH  20  23
ENDBRANCH   8  19
TORSDOF 20
ENDMDL
MODEL 5
REMARK VINA RESULT: -8.629760538      2.688      4.808
REMARK  20 active torsions:
REMARK  status: ('A' for Active; 'I' for Inactive)
REMARK    1  A    between atoms: C5_8  and  N2_9 
REMARK       I    between atoms: N2_9  and  C6_11 
REMARK    2  A    between atoms: C6_11  and  C7_13 
REMARK    3  A    between atoms: C8_18  and  N5_19 
REMARK       I    between atoms: N5_19  and  C9_21 
REMARK    4  A    between atoms: C9_21  and  O4_23 
REMARK    5  A    between atoms: O4_23  and  C10_24 
REMARK    6  A    between atoms: C14_28  and  C15_29 
REMARK    7  A    between atoms: C15_29  and  O6_31 
REMARK    8  A    between atoms: O6_31  and  N6_32 
REMARK    9  A    between atoms: N6_32  and  C16_33 
REMARK   10  A    between atoms: C16_33  and  C17_34 
REMARK   11  A    between atoms: C17_34  and  O7_35 
REMARK   12  A    between atoms: C17_34  and  C18_37 
REMARK   13  A    between atoms: C17_34  and  O8_40 
REMARK   14  A    between atoms: O8_40  and  C21_41 
REMARK   15  A    between atoms: C21_41  and  C22_42 
REMARK   16  A    between atoms: C21_41  and  C23_45 
REMARK   17  A    between atoms: C22_42  and  O9_43 
REMARK   18  A    between atoms: C23_45  and  O10_46 
REMARK   19  A    between atoms: C24_51  and  C25_52 
REMARK   20  A    between atoms: C25_52  and  N8_53 
ROOT
HETATM    1  C1  UNL     1      20.079   6.259  37.696  1.00  0.00     0.099 C 
HETATM    2  C2  UNL     1      20.080   5.751  36.585  1.00  0.00    -0.160 C 
HETATM    3  C3  UNL     1      20.057   5.150  35.243  1.00  0.00     0.181 C 
HETATM    4  N1  UNL     1      20.335   3.725  35.290  1.00  0.00    -0.341 N 
ATOM      5  H1  UNL     1      19.595   3.029  35.390  1.00  0.00     0.164 HD
HETATM    6  C4  UNL     1      21.706   3.365  35.187  1.00  0.00     0.267 C 
HETATM    7  O1  UNL     1      22.069   2.237  34.751  1.00  0.00    -0.269 OA
HETATM    8  C5  UNL     1      22.667   4.421  35.634  1.00  0.00     0.317 C 
HETATM    9  O11 UNL     1      22.424   5.661  35.131  1.00  0.00    -0.348 OA
HETATM   10  C24 UNL     1      21.206   5.736  34.460  1.00  0.00     0.178 C 
ENDROOT
BRANCH  10  11
HETATM   11  C25 UNL     1      20.954   7.084  33.890  1.00  0.00     0.184 C 
BRANCH  11  12
HETATM   12  N8  UNL     1      19.625   7.150  33.332  1.00  0.00    -0.285 N 
HETATM   13  C26 UNL     1      19.229   6.577  32.153  1.00  0.00     0.130 A 
HETATM   14  C27 UNL     1      17.910   6.868  31.937  1.00  0.00     0.127 A 
HETATM   15  N9  UNL     1      17.510   7.607  32.972  1.00  0.00    -0.296 N 
HETATM   16  N10 UNL     1      18.554   7.764  33.798  1.00  0.00    -0.241 N 
ATOM     17  H9  UNL     1      16.574   7.987  33.112  1.00  0.00     0.187 HD
ATOM     18  H10 UNL     1      18.524   8.290  34.671  1.00  0.00     0.208 HD
ENDBRANCH  11  12
ENDBRANCH  10  11
BRANCH   8  19
HETATM   19  N2  UNL     1      24.033   3.987  35.525  1.00  0.00    -0.320 N 
HETATM   20  C6  UNL     1      24.864   3.848  36.652  1.00  0.00     0.289 C 
HETATM   21  O2  UNL     1      24.389   4.111  37.784  1.00  0.00    -0.264 OA
ATOM     22  H2  UNL     1      24.412   3.772  34.602  1.00  0.00     0.166 HD
BRANCH  20  23
HETATM   23  C7  UNL     1      26.244   3.412  36.564  1.00  0.00     0.190 A 
HETATM   24  N3  UNL     1      26.755   2.653  35.582  1.00  0.00    -0.279 N 
HETATM   25  N4  UNL     1      28.013   2.253  35.516  1.00  0.00    -0.282 N 
ATOM     26  H3  UNL     1      26.126   2.365  34.832  1.00  0.00     0.189 HD
HETATM   27  C8  UNL     1      28.896   2.585  36.454  1.00  0.00     0.158 A 
ATOM     28  H4  UNL     1      28.313   1.678  34.729  1.00  0.00     0.188 HD
HETATM   29  C14 UNL     1      28.419   3.376  37.505  1.00  0.00     0.159 A 
HETATM   30  N7  UNL     1      27.147   3.754  37.528  1.00  0.00    -0.329 N 
ATOM     31  H7  UNL     1      26.829   4.331  38.307  1.00  0.00     0.168 HD
BRANCH  27  32
HETATM   32  N5  UNL     1      30.138   2.247  36.483  1.00  0.00    -0.285 N 
HETATM   33  C9  UNL     1      31.141   2.942  35.804  1.00  0.00     0.367 C 
HETATM   34  O3  UNL     1      31.074   3.109  34.571  1.00  0.00    -0.238 OA
ATOM     35  H5  UNL     1      30.403   1.427  37.030  1.00  0.00     0.172 HD
BRANCH  33  36
HETATM   36  O4  UNL     1      32.206   3.437  36.516  1.00  0.00    -0.294 OA
BRANCH  36  37
HETATM   37  C10 UNL     1      33.334   4.007  35.926  1.00  0.00     0.061 C 
HETATM   38  C11 UNL     1      34.039   3.033  35.003  1.00  0.00     0.046 C 
HETATM   39  C12 UNL     1      34.317   4.306  37.070  1.00  0.00     0.046 C 
HETATM   40  C13 UNL     1      32.959   5.286  35.228  1.00  0.00     0.046 C 
ENDBRANCH  36  37
ENDBRANCH  33  36
ENDBRANCH  27  32
BRANCH  29  41
HETATM   41  C15 UNL     1      29.323   3.775  38.569  1.00  0.00     0.349 C 
HETATM   42  O5  UNL     1      29.890   2.916  39.288  1.00  0.00    -0.254 OA
BRANCH  41  43
HETATM   43  O6  UNL     1      29.605   5.099  38.849  1.00  0.00    -0.120 OA
BRANCH  43  44
HETATM   44  N6  UNL     1      30.658   5.696  39.205  1.00  0.00    -0.283 NA
BRANCH  44  45
HETATM   45  C16 UNL     1      31.647   6.258  39.540  1.00  0.00     0.273 C 
BRANCH  45  46
HETATM   46  C17 UNL     1      31.591   7.455  40.463  1.00  0.00     0.280 C 
BRANCH  46  47
HETATM   47  O7  UNL     1      32.773   8.205  40.229  1.00  0.00    -0.350 OA
ATOM     48  H7  UNL     1      33.210   7.801  39.489  1.00  0.00     0.214 HD
ENDBRANCH  46  47
BRANCH  46  49
HETATM   49  C18 UNL     1      30.442   8.272  40.162  1.00  0.00    -0.032 C 
HETATM   50  C19 UNL     1      29.478   8.977  39.878  1.00  0.00    -0.105 C 
HETATM   51  C20 UNL     1      28.337   9.810  39.514  1.00  0.00     0.112 C 
ENDBRANCH  46  49
BRANCH  46  52
HETATM   52  O8  UNL     1      31.622   7.104  41.789  1.00  0.00    -0.330 OA
BRANCH  52  53
HETATM   53  C21 UNL     1      32.857   6.586  42.140  1.00  0.00     0.173 C 
BRANCH  53  54
HETATM   54  C22 UNL     1      32.702   5.876  43.524  1.00  0.00     0.198 C 
BRANCH  54  55
HETATM   55  O9  UNL     1      33.581   4.803  43.595  1.00  0.00    -0.398 OA
ATOM     56  H9  UNL     1      34.440   5.114  43.858  1.00  0.00     0.209 HD
ENDBRANCH  54  55
ENDBRANCH  53  54
BRANCH  53  57
HETATM   57  C23 UNL     1      33.944   7.613  42.266  1.00  0.00     0.198 C 
BRANCH  57  58
HETATM   58  O10 UNL     1      35.086   7.194  42.903  1.00  0.00    -0.398 OA
ATOM     59  H10 UNL     1      35.881   7.657  42.666  1.00  0.00     0.209 HD
ENDBRANCH  57  58
ENDBRANCH  53  57
ENDBRANCH  52  53
ENDBRANCH  46  52
ENDBRANCH  45  46
ENDBRANCH  44  45
ENDBRANCH  43  44
ENDBRANCH  41  43
ENDBRANCH  29  41
ENDBRANCH  20  23
ENDBRANCH   8  19
TORSDOF 20
ENDMDL
