MODEL 1
REMARK VINA RESULT: -9.037446735      0.000      0.000
REMARK  15 active torsions:
REMARK  status: ('A' for Active; 'I' for Inactive)
REMARK    1  A    between atoms: C4_4  and  N1_5 
REMARK    2  A    between atoms: N1_5  and  C5_7 
REMARK    3  A    between atoms: C5_7  and  C6_8 
REMARK    4  A    between atoms: C6_8  and  O1_9 
REMARK    5  A    between atoms: C6_8  and  C7_11 
REMARK    6  A    between atoms: N3_17  and  C9_19 
REMARK    7  A    between atoms: C10_22  and  C11_23 
REMARK    8  A    between atoms: C11_23  and  N5_24 
REMARK       I    between atoms: N5_24  and  C12_26 
REMARK    9  A    between atoms: C12_26  and  O5_28 
REMARK   10  A    between atoms: O5_28  and  S1_29 
REMARK   11  A    between atoms: N8_41  and  C17_42 
REMARK   12  A    between atoms: N9_44  and  C19_45 
REMARK   13  A    between atoms: C19_45  and  C20_46 
REMARK   14  A    between atoms: C20_46  and  N10_47 
REMARK   15  A    between atoms: C20_46  and  C21_51 
ROOT
HETATM    1  C9  UNL     1      22.566   5.194  37.938  1.00  0.00     0.129 A 
HETATM    2  N4  UNL     1      22.208   5.893  39.083  1.00  0.00    -0.330 N 
ATOM      3  H4  UNL     1      22.717   5.689  39.943  1.00  0.00     0.168 HD
HETATM    4  C10 UNL     1      21.254   6.802  39.134  1.00  0.00     0.102 A 
HETATM    5  N6  UNL     1      20.583   7.071  38.006  1.00  0.00    -0.328 N 
ATOM      6  H6  UNL     1      19.841   7.769  38.020  1.00  0.00     0.169 HD
HETATM    7  C13 UNL     1      20.872   6.431  36.842  1.00  0.00     0.149 A 
HETATM    8  C14 UNL     1      21.862   5.480  36.769  1.00  0.00     0.123 A 
HETATM    9  C15 UNL     1      21.910   5.021  35.467  1.00  0.00     0.280 A 
HETATM   10  O9  UNL     1      22.685   4.148  35.002  1.00  0.00    -0.265 OA
HETATM   11  N7  UNL     1      20.949   5.699  34.769  1.00  0.00    -0.252 N 
HETATM   12  C16 UNL     1      20.680   5.497  33.345  1.00  0.00     0.182 C 
HETATM   13  N8  UNL     1      20.350   6.523  35.599  1.00  0.00    -0.231 N 
ENDROOT
BRANCH   1  14
HETATM   14  N3  UNL     1      23.455   4.380  37.996  1.00  0.00    -0.307 N 
HETATM   15  C8  UNL     1      24.663   3.880  37.656  1.00  0.00     0.231 A 
HETATM   16  N2  UNL     1      24.773   2.953  36.663  1.00  0.00    -0.308 N 
HETATM   17  O12 UNL     1      25.811   4.247  38.253  1.00  0.00    -0.284 OA
HETATM   18  C4  UNL     1      25.921   2.403  36.262  1.00  0.00     0.106 A 
ATOM     19  H2  UNL     1      23.917   2.658  36.194  1.00  0.00     0.171 HD
HETATM   20  C3  UNL     1      27.062   2.820  36.913  1.00  0.00     0.080 A 
HETATM   21  C2  UNL     1      26.968   3.763  37.924  1.00  0.00     0.056 A 
HETATM   22  C1  UNL     1      28.225   4.190  38.607  1.00  0.00     0.077 C 
ATOM     23  H3  UNL     1      23.101   3.698  38.667  1.00  0.00     0.171 HD
BRANCH  18  24
HETATM   24  N1  UNL     1      25.987   1.527  35.319  1.00  0.00    -0.373 N 
ATOM     25  H1  UNL     1      25.825   0.551  35.567  1.00  0.00     0.161 HD
BRANCH  24  26
HETATM   26  C5  UNL     1      26.271   1.827  33.954  1.00  0.00     0.164 C 
BRANCH  26  27
HETATM   27  C6  UNL     1      27.784   1.720  33.738  1.00  0.00     0.236 C 
BRANCH  27  28
HETATM   28  O1  UNL     1      28.068   0.721  32.810  1.00  0.00    -0.383 OA
ATOM     29  H1  UNL     1      27.586   0.875  32.006  1.00  0.00     0.210 HD
ENDBRANCH  27  28
BRANCH  27  30
HETATM   30  C7  UNL     1      28.319   3.035  33.278  1.00  0.00     0.204 C 
HETATM   31  O2  UNL     1      29.063   3.672  34.040  1.00  0.00    -0.646 OA
HETATM   32  O3  UNL     1      28.000   3.539  32.038  1.00  0.00    -0.646 OA
ENDBRANCH  27  30
ENDBRANCH  26  27
ENDBRANCH  24  26
ENDBRANCH  18  24
ENDBRANCH   1  14
BRANCH   4  33
HETATM   33  C11 UNL     1      20.925   7.518  40.418  1.00  0.00     0.201 C 
BRANCH  33  34
HETATM   34  N5  UNL     1      19.781   8.380  40.288  1.00  0.00    -0.329 N 
HETATM   35  C12 UNL     1      19.382   9.218  41.371  1.00  0.00     0.377 C 
HETATM   36  O4  UNL     1      19.993   9.245  42.471  1.00  0.00    -0.237 OA
ATOM     37  H5  UNL     1      19.252   8.392  39.416  1.00  0.00     0.165 HD
BRANCH  35  38
HETATM   38  O5  UNL     1      18.281  10.058  41.262  1.00  0.00    -0.159 OA
BRANCH  38  39
HETATM   39  S1  UNL     1      17.641  10.441  39.733  1.00  0.00     0.260 S 
HETATM   40  O6  UNL     1      17.846  11.918  39.489  1.00  0.00    -0.572 OA
HETATM   41  O7  UNL     1      16.187  10.078  39.672  1.00  0.00    -0.572 OA
HETATM   42  O8  UNL     1      18.454   9.591  38.535  1.00  0.00    -0.572 OA
ENDBRANCH  38  39
ENDBRANCH  35  38
ENDBRANCH  33  34
ENDBRANCH   4  33
BRANCH  13  43
HETATM   43  C17 UNL     1      19.286   7.410  35.259  1.00  0.00     0.099 A 
HETATM   44  C18 UNL     1      19.403   8.709  34.843  1.00  0.00     0.144 A 
HETATM   45  N9  UNL     1      18.156   9.161  34.635  1.00  0.00    -0.298 N 
HETATM   46  N11 UNL     1      17.291   8.184  34.908  1.00  0.00    -0.301 N 
HETATM   47  C22 UNL     1      17.939   7.088  35.295  1.00  0.00     0.052 A 
ATOM     48  H11 UNL     1      16.277   8.265  34.832  1.00  0.00     0.187 HD
HETATM   49  C23 UNL     1      17.305   5.807  35.680  1.00  0.00     0.072 C 
BRANCH  45  50
HETATM   50  C19 UNL     1      17.864  10.508  34.184  1.00  0.00     0.192 C 
BRANCH  50  51
HETATM   51  C20 UNL     1      18.329  10.667  32.739  1.00  0.00     0.302 C 
BRANCH  51  52
HETATM   52  N10 UNL     1      18.496  12.064  32.428  1.00  0.00    -0.064 N 
ATOM     53 3H10 UNL     1      18.439  12.651  33.260  1.00  0.00     0.275 HD
ATOM     54 2H10 UNL     1      19.455  12.284  32.158  1.00  0.00     0.275 HD
ATOM     55 1H10 UNL     1      17.824  12.344  31.714  1.00  0.00     0.275 HD
ENDBRANCH  51  52
BRANCH  51  56
HETATM   56  C21 UNL     1      17.406   9.996  31.819  1.00  0.00     0.206 C 
HETATM   57  O10 UNL     1      17.747   9.864  30.616  1.00  0.00    -0.646 OA
HETATM   58  O11 UNL     1      16.166   9.490  32.195  1.00  0.00    -0.646 OA
ENDBRANCH  51  56
ENDBRANCH  50  51
ENDBRANCH  45  50
ENDBRANCH  13  43
TORSDOF 15
ENDMDL
MODEL 2
REMARK VINA RESULT: -8.940343772      3.799      4.754
REMARK  15 active torsions:
REMARK  status: ('A' for Active; 'I' for Inactive)
REMARK    1  A    between atoms: C4_4  and  N1_5 
REMARK    2  A    between atoms: N1_5  and  C5_7 
REMARK    3  A    between atoms: C5_7  and  C6_8 
REMARK    4  A    between atoms: C6_8  and  O1_9 
REMARK    5  A    between atoms: C6_8  and  C7_11 
REMARK    6  A    between atoms: N3_17  and  C9_19 
REMARK    7  A    between atoms: C10_22  and  C11_23 
REMARK    8  A    between atoms: C11_23  and  N5_24 
REMARK       I    between atoms: N5_24  and  C12_26 
REMARK    9  A    between atoms: C12_26  and  O5_28 
REMARK   10  A    between atoms: O5_28  and  S1_29 
REMARK   11  A    between atoms: N8_41  and  C17_42 
REMARK   12  A    between atoms: N9_44  and  C19_45 
REMARK   13  A    between atoms: C19_45  and  C20_46 
REMARK   14  A    between atoms: C20_46  and  N10_47 
REMARK   15  A    between atoms: C20_46  and  C21_51 
ROOT
HETATM    1  C9  UNL     1      21.401   6.482  35.327  1.00  0.00     0.129 A 
HETATM    2  N4  UNL     1      21.952   7.755  35.385  1.00  0.00    -0.330 N 
ATOM      3  H4  UNL     1      22.856   7.861  35.846  1.00  0.00     0.168 HD
HETATM    4  C10 UNL     1      21.387   8.836  34.884  1.00  0.00     0.102 A 
HETATM    5  N6  UNL     1      20.199   8.698  34.279  1.00  0.00    -0.328 N 
ATOM      6  H6  UNL     1      19.740   9.519  33.885  1.00  0.00     0.169 HD
HETATM    7  C13 UNL     1      19.592   7.486  34.180  1.00  0.00     0.149 A 
HETATM    8  C14 UNL     1      20.166   6.349  34.696  1.00  0.00     0.123 A 
HETATM    9  C15 UNL     1      19.313   5.292  34.439  1.00  0.00     0.280 A 
HETATM   10  O9  UNL     1      19.486   4.088  34.753  1.00  0.00    -0.265 OA
HETATM   11  N7  UNL     1      18.234   5.804  33.771  1.00  0.00    -0.252 N 
HETATM   12  C16 UNL     1      17.100   5.000  33.317  1.00  0.00     0.182 C 
HETATM   13  N8  UNL     1      18.420   7.097  33.630  1.00  0.00    -0.231 N 
ENDROOT
BRANCH   1  14
HETATM   14  N3  UNL     1      22.000   5.556  35.817  1.00  0.00    -0.307 N 
HETATM   15  C8  UNL     1      23.104   4.952  36.308  1.00  0.00     0.231 A 
HETATM   16  N2  UNL     1      23.880   4.171  35.506  1.00  0.00    -0.308 N 
HETATM   17  O12 UNL     1      23.507   5.072  37.586  1.00  0.00    -0.284 OA
HETATM   18  C4  UNL     1      24.985   3.535  35.903  1.00  0.00     0.106 A 
ATOM     19  H2  UNL     1      23.597   4.064  34.532  1.00  0.00     0.171 HD
HETATM   20  C3  UNL     1      25.345   3.697  37.224  1.00  0.00     0.080 A 
HETATM   21  C2  UNL     1      24.567   4.489  38.054  1.00  0.00     0.056 A 
HETATM   22  C1  UNL     1      24.988   4.642  39.478  1.00  0.00     0.077 C 
ATOM     23  H3  UNL     1      21.282   4.838  35.911  1.00  0.00     0.171 HD
BRANCH  18  24
HETATM   24  N1  UNL     1      25.694   2.803  35.116  1.00  0.00    -0.373 N 
ATOM     25  H1  UNL     1      25.271   2.501  34.239  1.00  0.00     0.161 HD
BRANCH  24  26
HETATM   26  C5  UNL     1      27.031   2.384  35.385  1.00  0.00     0.164 C 
BRANCH  26  27
HETATM   27  C6  UNL     1      27.971   3.108  34.415  1.00  0.00     0.236 C 
BRANCH  27  28
HETATM   28  O1  UNL     1      29.298   2.850  34.750  1.00  0.00    -0.383 OA
ATOM     29  H1  UNL     1      29.344   2.151  35.391  1.00  0.00     0.210 HD
ENDBRANCH  27  28
BRANCH  27  30
HETATM   30  C7  UNL     1      27.684   2.669  33.018  1.00  0.00     0.204 C 
HETATM   31  O2  UNL     1      26.639   3.060  32.476  1.00  0.00    -0.646 OA
HETATM   32  O3  UNL     1      28.553   1.849  32.337  1.00  0.00    -0.646 OA
ENDBRANCH  27  30
ENDBRANCH  26  27
ENDBRANCH  24  26
ENDBRANCH  18  24
ENDBRANCH   1  14
BRANCH   4  33
HETATM   33  C11 UNL     1      22.049  10.184  34.988  1.00  0.00     0.201 C 
BRANCH  33  34
HETATM   34  N5  UNL     1      23.444  10.087  35.323  1.00  0.00    -0.329 N 
HETATM   35  C12 UNL     1      24.382  11.020  34.790  1.00  0.00     0.377 C 
HETATM   36  O4  UNL     1      24.046  11.954  34.015  1.00  0.00    -0.237 OA
ATOM     37  H5  UNL     1      23.765   9.345  35.946  1.00  0.00     0.165 HD
BRANCH  35  38
HETATM   38  O5  UNL     1      25.733  10.942  35.105  1.00  0.00    -0.159 OA
BRANCH  38  39
HETATM   39  S1  UNL     1      26.227  10.729  36.718  1.00  0.00     0.260 S 
HETATM   40  O6  UNL     1      25.713   9.393  37.199  1.00  0.00    -0.572 OA
HETATM   41  O7  UNL     1      25.712  11.848  37.572  1.00  0.00    -0.572 OA
HETATM   42  O8  UNL     1      27.903  10.714  36.813  1.00  0.00    -0.572 OA
ENDBRANCH  38  39
ENDBRANCH  35  38
ENDBRANCH  33  34
ENDBRANCH   4  33
BRANCH  13  43
HETATM   43  C17 UNL     1      17.519   7.996  32.986  1.00  0.00     0.099 A 
HETATM   44  C18 UNL     1      17.436   8.253  31.644  1.00  0.00     0.144 A 
HETATM   45  N9  UNL     1      16.457   9.157  31.484  1.00  0.00    -0.298 N 
HETATM   46  N11 UNL     1      15.945   9.456  32.678  1.00  0.00    -0.301 N 
HETATM   47  C22 UNL     1      16.566   8.767  33.633  1.00  0.00     0.052 A 
ATOM     48  H11 UNL     1      15.186  10.119  32.838  1.00  0.00     0.187 HD
HETATM   49  C23 UNL     1      16.265   8.843  35.080  1.00  0.00     0.072 C 
BRANCH  45  50
HETATM   50  C19 UNL     1      16.066   9.683  30.190  1.00  0.00     0.192 C 
BRANCH  50  51
HETATM   51  C20 UNL     1      17.273   9.672  29.256  1.00  0.00     0.302 C 
BRANCH  51  52
HETATM   52  N10 UNL     1      17.445  10.973  28.661  1.00  0.00    -0.064 N 
ATOM     53 3H10 UNL     1      17.497  10.925  27.643  1.00  0.00     0.275 HD
ATOM     54 2H10 UNL     1      16.604  11.545  28.739  1.00  0.00     0.275 HD
ATOM     55 1H10 UNL     1      18.260  11.435  29.064  1.00  0.00     0.275 HD
ENDBRANCH  51  52
BRANCH  51  56
HETATM   56  C21 UNL     1      17.146   8.610  28.254  1.00  0.00     0.206 C 
HETATM   57  O10 UNL     1      16.095   8.555  27.568  1.00  0.00    -0.646 OA
HETATM   58  O11 UNL     1      18.124   7.651  28.011  1.00  0.00    -0.646 OA
ENDBRANCH  51  56
ENDBRANCH  50  51
ENDBRANCH  45  50
ENDBRANCH  13  43
TORSDOF 15
ENDMDL
MODEL 3
REMARK VINA RESULT: -8.931054753      2.843      9.469
REMARK  15 active torsions:
REMARK  status: ('A' for Active; 'I' for Inactive)
REMARK    1  A    between atoms: C4_4  and  N1_5 
REMARK    2  A    between atoms: N1_5  and  C5_7 
REMARK    3  A    between atoms: C5_7  and  C6_8 
REMARK    4  A    between atoms: C6_8  and  O1_9 
REMARK    5  A    between atoms: C6_8  and  C7_11 
REMARK    6  A    between atoms: N3_17  and  C9_19 
REMARK    7  A    between atoms: C10_22  and  C11_23 
REMARK    8  A    between atoms: C11_23  and  N5_24 
REMARK       I    between atoms: N5_24  and  C12_26 
REMARK    9  A    between atoms: C12_26  and  O5_28 
REMARK   10  A    between atoms: O5_28  and  S1_29 
REMARK   11  A    between atoms: N8_41  and  C17_42 
REMARK   12  A    between atoms: N9_44  and  C19_45 
REMARK   13  A    between atoms: C19_45  and  C20_46 
REMARK   14  A    between atoms: C20_46  and  N10_47 
REMARK   15  A    between atoms: C20_46  and  C21_51 
ROOT
HETATM    1  C9  UNL     1      22.000   4.639  36.238  1.00  0.00     0.129 A 
HETATM    2  N4  UNL     1      22.476   5.484  37.230  1.00  0.00    -0.330 N 
ATOM      3  H4  UNL     1      21.836   6.182  37.608  1.00  0.00     0.168 HD
HETATM    4  C10 UNL     1      23.701   5.446  37.718  1.00  0.00     0.102 A 
HETATM    5  N6  UNL     1      24.544   4.530  37.221  1.00  0.00    -0.328 N 
ATOM      6  H6  UNL     1      25.497   4.482  37.582  1.00  0.00     0.169 HD
HETATM    7  C13 UNL     1      24.156   3.665  36.248  1.00  0.00     0.149 A 
HETATM    8  C14 UNL     1      22.884   3.690  35.728  1.00  0.00     0.123 A 
HETATM    9  C15 UNL     1      22.802   2.700  34.767  1.00  0.00     0.280 A 
HETATM   10  O9  UNL     1      21.801   2.407  34.067  1.00  0.00    -0.265 OA
HETATM   11  N7  UNL     1      24.026   2.089  34.719  1.00  0.00    -0.252 N 
HETATM   12  C16 UNL     1      24.348   0.981  33.821  1.00  0.00     0.182 C 
HETATM   13  N8  UNL     1      24.806   2.674  35.599  1.00  0.00    -0.231 N 
ENDROOT
BRANCH   1  14
HETATM   14  N3  UNL     1      20.860   4.755  35.859  1.00  0.00    -0.307 N 
HETATM   15  C8  UNL     1      19.846   5.412  35.254  1.00  0.00     0.231 A 
HETATM   16  N2  UNL     1      18.984   6.175  35.984  1.00  0.00    -0.308 N 
HETATM   17  O12 UNL     1      19.617   5.362  33.930  1.00  0.00    -0.284 OA
HETATM   18  C4  UNL     1      17.955   6.856  35.474  1.00  0.00     0.106 A 
ATOM     19  H2  UNL     1      19.136   6.230  36.990  1.00  0.00     0.171 HD
HETATM   20  C3  UNL     1      17.773   6.764  34.111  1.00  0.00     0.080 A 
HETATM   21  C2  UNL     1      18.641   5.994  33.354  1.00  0.00     0.056 A 
HETATM   22  C1  UNL     1      18.413   5.918  31.880  1.00  0.00     0.077 C 
ATOM     23  H3  UNL     1      20.425   3.883  36.160  1.00  0.00     0.171 HD
BRANCH  18  24
HETATM   24  N1  UNL     1      17.159   7.568  36.195  1.00  0.00    -0.373 N 
ATOM     25  H1  UNL     1      16.675   7.105  36.965  1.00  0.00     0.161 HD
BRANCH  24  26
HETATM   26  C5  UNL     1      16.907   8.957  35.992  1.00  0.00     0.164 C 
BRANCH  26  27
HETATM   27  C6  UNL     1      17.924   9.759  36.809  1.00  0.00     0.236 C 
BRANCH  27  28
HETATM   28  O1  UNL     1      18.682   8.904  37.605  1.00  0.00    -0.383 OA
ATOM     29  H1  UNL     1      19.457   9.353  37.922  1.00  0.00     0.210 HD
ENDBRANCH  27  28
BRANCH  27  30
HETATM   30  C7  UNL     1      18.803  10.540  35.888  1.00  0.00     0.204 C 
HETATM   31  O2  UNL     1      19.051  10.072  34.766  1.00  0.00    -0.646 OA
HETATM   32  O3  UNL     1      19.332  11.752  36.267  1.00  0.00    -0.646 OA
ENDBRANCH  27  30
ENDBRANCH  26  27
ENDBRANCH  24  26
ENDBRANCH  18  24
ENDBRANCH   1  14
BRANCH   4  33
HETATM   33  C11 UNL     1      24.143   6.400  38.796  1.00  0.00     0.201 C 
BRANCH  33  34
HETATM   34  N5  UNL     1      23.052   7.168  39.331  1.00  0.00    -0.329 N 
HETATM   35  C12 UNL     1      22.936   7.377  40.738  1.00  0.00     0.377 C 
HETATM   36  O4  UNL     1      23.762   6.909  41.564  1.00  0.00    -0.237 OA
ATOM     37  H5  UNL     1      22.355   7.567  38.701  1.00  0.00     0.165 HD
BRANCH  35  38
HETATM   38  O5  UNL     1      21.890   8.119  41.271  1.00  0.00    -0.159 OA
BRANCH  38  39
HETATM   39  S1  UNL     1      20.293   7.847  40.752  1.00  0.00     0.260 S 
HETATM   40  O6  UNL     1      19.693   9.174  40.350  1.00  0.00    -0.572 OA
HETATM   41  O7  UNL     1      19.495   7.199  41.844  1.00  0.00    -0.572 OA
HETATM   42  O8  UNL     1      20.283   6.836  39.412  1.00  0.00    -0.572 OA
ENDBRANCH  38  39
ENDBRANCH  35  38
ENDBRANCH  33  34
ENDBRANCH   4  33
BRANCH  13  43
HETATM   43  C17 UNL     1      26.166   2.328  35.856  1.00  0.00     0.099 A 
HETATM   44  C18 UNL     1      26.671   1.784  37.006  1.00  0.00     0.144 A 
HETATM   45  N9  UNL     1      27.990   1.624  36.811  1.00  0.00    -0.298 N 
HETATM   46  N11 UNL     1      28.300   2.051  35.586  1.00  0.00    -0.301 N 
HETATM   47  C22 UNL     1      27.212   2.493  34.961  1.00  0.00     0.052 A 
ATOM     48  H11 UNL     1      29.239   2.041  35.186  1.00  0.00     0.187 HD
HETATM   49  C23 UNL     1      27.175   3.042  33.587  1.00  0.00     0.072 C 
BRANCH  45  50
HETATM   50  C19 UNL     1      28.878   1.069  37.813  1.00  0.00     0.192 C 
BRANCH  50  51
HETATM   51  C20 UNL     1      30.168   1.884  37.850  1.00  0.00     0.302 C 
BRANCH  51  52
HETATM   52  N10 UNL     1      31.227   1.101  38.436  1.00  0.00    -0.064 N 
ATOM     53 3H10 UNL     1      30.941   0.137  38.607  1.00  0.00     0.275 HD
ATOM     54 2H10 UNL     1      31.979   0.916  37.772  1.00  0.00     0.275 HD
ATOM     55 1H10 UNL     1      31.568   1.556  39.282  1.00  0.00     0.275 HD
ENDBRANCH  51  52
BRANCH  51  56
HETATM   56  C21 UNL     1      29.961   3.156  38.547  1.00  0.00     0.206 C 
HETATM   57  O10 UNL     1      30.837   4.051  38.439  1.00  0.00    -0.646 OA
HETATM   58  O11 UNL     1      28.845   3.440  39.329  1.00  0.00    -0.646 OA
ENDBRANCH  51  56
ENDBRANCH  50  51
ENDBRANCH  45  50
ENDBRANCH  13  43
TORSDOF 15
ENDMDL
MODEL 4
REMARK VINA RESULT: -8.710726732      2.804      9.278
REMARK  15 active torsions:
REMARK  status: ('A' for Active; 'I' for Inactive)
REMARK    1  A    between atoms: C4_4  and  N1_5 
REMARK    2  A    between atoms: N1_5  and  C5_7 
REMARK    3  A    between atoms: C5_7  and  C6_8 
REMARK    4  A    between atoms: C6_8  and  O1_9 
REMARK    5  A    between atoms: C6_8  and  C7_11 
REMARK    6  A    between atoms: N3_17  and  C9_19 
REMARK    7  A    between atoms: C10_22  and  C11_23 
REMARK    8  A    between atoms: C11_23  and  N5_24 
REMARK       I    between atoms: N5_24  and  C12_26 
REMARK    9  A    between atoms: C12_26  and  O5_28 
REMARK   10  A    between atoms: O5_28  and  S1_29 
REMARK   11  A    between atoms: N8_41  and  C17_42 
REMARK   12  A    between atoms: N9_44  and  C19_45 
REMARK   13  A    between atoms: C19_45  and  C20_46 
REMARK   14  A    between atoms: C20_46  and  N10_47 
REMARK   15  A    between atoms: C20_46  and  C21_51 
ROOT
HETATM    1  C9  UNL     1      22.525   4.280  36.613  1.00  0.00     0.129 A 
HETATM    2  N4  UNL     1      22.741   4.954  37.807  1.00  0.00    -0.330 N 
ATOM      3  H4  UNL     1      21.969   5.497  38.192  1.00  0.00     0.168 HD
HETATM    4  C10 UNL     1      23.877   4.941  38.476  1.00  0.00     0.102 A 
HETATM    5  N6  UNL     1      24.894   4.229  37.970  1.00  0.00    -0.328 N 
ATOM      6  H6  UNL     1      25.783   4.204  38.468  1.00  0.00     0.169 HD
HETATM    7  C13 UNL     1      24.764   3.540  36.806  1.00  0.00     0.149 A 
HETATM    8  C14 UNL     1      23.588   3.543  36.094  1.00  0.00     0.123 A 
HETATM    9  C15 UNL     1      23.773   2.759  34.971  1.00  0.00     0.280 A 
HETATM   10  O9  UNL     1      22.929   2.514  34.074  1.00  0.00    -0.265 OA
HETATM   11  N7  UNL     1      25.059   2.293  35.018  1.00  0.00    -0.252 N 
HETATM   12  C16 UNL     1      25.647   1.421  34.001  1.00  0.00     0.182 C 
HETATM   13  N8  UNL     1      25.623   2.766  36.106  1.00  0.00    -0.231 N 
ENDROOT
BRANCH   1  14
HETATM   14  N3  UNL     1      21.446   4.356  36.078  1.00  0.00    -0.307 N 
HETATM   15  C8  UNL     1      20.478   5.003  35.393  1.00  0.00     0.231 A 
HETATM   16  N2  UNL     1      19.456   5.617  36.053  1.00  0.00    -0.308 N 
HETATM   17  O12 UNL     1      20.448   5.084  34.050  1.00  0.00    -0.284 OA
HETATM   18  C4  UNL     1      18.457   6.276  35.462  1.00  0.00     0.106 A 
ATOM     19  H2  UNL     1      19.456   5.571  37.072  1.00  0.00     0.171 HD
HETATM   20  C3  UNL     1      18.483   6.323  34.085  1.00  0.00     0.080 A 
HETATM   21  C2  UNL     1      19.515   5.704  33.397  1.00  0.00     0.056 A 
HETATM   22  C1  UNL     1      19.511   5.776  31.906  1.00  0.00     0.077 C 
ATOM     23  H3  UNL     1      21.050   3.427  36.221  1.00  0.00     0.171 HD
BRANCH  18  24
HETATM   24  N1  UNL     1      17.506   6.845  36.119  1.00  0.00    -0.373 N 
ATOM     25  H1  UNL     1      17.054   6.309  36.859  1.00  0.00     0.161 HD
BRANCH  24  26
HETATM   26  C5  UNL     1      17.042   8.173  35.884  1.00  0.00     0.164 C 
BRANCH  26  27
HETATM   27  C6  UNL     1      17.997   9.151  36.577  1.00  0.00     0.236 C 
BRANCH  27  28
HETATM   28  O1  UNL     1      18.880   8.457  37.402  1.00  0.00    -0.383 OA
ATOM     29  H1  UNL     1      19.326   9.060  37.984  1.00  0.00     0.210 HD
ENDBRANCH  27  28
BRANCH  27  30
HETATM   30  C7  UNL     1      18.742   9.937  35.550  1.00  0.00     0.204 C 
HETATM   31  O2  UNL     1      19.932   9.657  35.337  1.00  0.00    -0.646 OA
HETATM   32  O3  UNL     1      18.132  10.952  34.851  1.00  0.00    -0.646 OA
ENDBRANCH  27  30
ENDBRANCH  26  27
ENDBRANCH  24  26
ENDBRANCH  18  24
ENDBRANCH   1  14
BRANCH   4  33
HETATM   33  C11 UNL     1      24.034   5.701  39.767  1.00  0.00     0.201 C 
BRANCH  33  34
HETATM   34  N5  UNL     1      22.808   6.324  40.190  1.00  0.00    -0.329 N 
HETATM   35  C12 UNL     1      22.836   7.527  40.956  1.00  0.00     0.377 C 
HETATM   36  O4  UNL     1      23.908   8.092  41.295  1.00  0.00    -0.237 OA
ATOM     37  H5  UNL     1      21.913   5.902  39.940  1.00  0.00     0.165 HD
BRANCH  35  38
HETATM   38  O5  UNL     1      21.661   8.142  41.371  1.00  0.00    -0.159 OA
BRANCH  38  39
HETATM   39  S1  UNL     1      20.178   7.739  40.644  1.00  0.00     0.260 S 
HETATM   40  O6  UNL     1      19.296   7.097  41.689  1.00  0.00    -0.572 OA
HETATM   41  O7  UNL     1      20.401   6.817  39.482  1.00  0.00    -0.572 OA
HETATM   42  O8  UNL     1      19.411   9.124  40.085  1.00  0.00    -0.572 OA
ENDBRANCH  38  39
ENDBRANCH  35  38
ENDBRANCH  33  34
ENDBRANCH   4  33
BRANCH  13  43
HETATM   43  C17 UNL     1      26.964   2.511  36.519  1.00  0.00     0.099 A 
HETATM   44  C18 UNL     1      27.993   3.412  36.564  1.00  0.00     0.144 A 
HETATM   45  N9  UNL     1      29.071   2.746  37.010  1.00  0.00    -0.298 N 
HETATM   46  N11 UNL     1      28.731   1.477  37.235  1.00  0.00    -0.301 N 
HETATM   47  C22 UNL     1      27.445   1.284  36.948  1.00  0.00     0.052 A 
ATOM     48  H11 UNL     1      29.365   0.756  37.579  1.00  0.00     0.187 HD
HETATM   49  C23 UNL     1      26.721   0.000  37.076  1.00  0.00     0.072 C 
BRANCH  45  50
HETATM   50  C19 UNL     1      30.368   3.367  37.195  1.00  0.00     0.192 C 
BRANCH  50  51
HETATM   51  C20 UNL     1      30.774   4.079  35.907  1.00  0.00     0.302 C 
BRANCH  51  52
HETATM   52  N10 UNL     1      31.520   3.179  35.064  1.00  0.00    -0.064 N 
ATOM     53 3H10 UNL     1      32.253   3.662  34.543  1.00  0.00     0.275 HD
ATOM     54 2H10 UNL     1      32.114   2.550  35.605  1.00  0.00     0.275 HD
ATOM     55 1H10 UNL     1      30.884   2.671  34.449  1.00  0.00     0.275 HD
ENDBRANCH  51  52
BRANCH  51  56
HETATM   56  C21 UNL     1      31.512   5.310  36.203  1.00  0.00     0.206 C 
HETATM   57  O10 UNL     1      31.605   6.185  35.306  1.00  0.00    -0.646 OA
HETATM   58  O11 UNL     1      32.122   5.575  37.425  1.00  0.00    -0.646 OA
ENDBRANCH  51  56
ENDBRANCH  50  51
ENDBRANCH  45  50
ENDBRANCH  13  43
TORSDOF 15
ENDMDL
MODEL 5
REMARK VINA RESULT: -8.568923752      3.749      6.017
REMARK  15 active torsions:
REMARK  status: ('A' for Active; 'I' for Inactive)
REMARK    1  A    between atoms: C4_4  and  N1_5 
REMARK    2  A    between atoms: N1_5  and  C5_7 
REMARK    3  A    between atoms: C5_7  and  C6_8 
REMARK    4  A    between atoms: C6_8  and  O1_9 
REMARK    5  A    between atoms: C6_8  and  C7_11 
REMARK    6  A    between atoms: N3_17  and  C9_19 
REMARK    7  A    between atoms: C10_22  and  C11_23 
REMARK    8  A    between atoms: C11_23  and  N5_24 
REMARK       I    between atoms: N5_24  and  C12_26 
REMARK    9  A    between atoms: C12_26  and  O5_28 
REMARK   10  A    between atoms: O5_28  and  S1_29 
REMARK   11  A    between atoms: N8_41  and  C17_42 
REMARK   12  A    between atoms: N9_44  and  C19_45 
REMARK   13  A    between atoms: C19_45  and  C20_46 
REMARK   14  A    between atoms: C20_46  and  N10_47 
REMARK   15  A    between atoms: C20_46  and  C21_51 
ROOT
HETATM    1  C9  UNL     1      27.276   3.998  38.351  1.00  0.00     0.129 A 
HETATM    2  N4  UNL     1      26.404   4.526  39.294  1.00  0.00    -0.330 N 
ATOM      3  H4  UNL     1      26.801   4.874  40.166  1.00  0.00     0.168 HD
HETATM    4  C10 UNL     1      25.097   4.606  39.139  1.00  0.00     0.102 A 
HETATM    5  N6  UNL     1      24.573   4.147  37.994  1.00  0.00    -0.328 N 
ATOM      6  H6  UNL     1      23.565   4.197  37.850  1.00  0.00     0.169 HD
HETATM    7  C13 UNL     1      25.358   3.615  37.020  1.00  0.00     0.149 A 
HETATM    8  C14 UNL     1      26.722   3.523  37.164  1.00  0.00     0.123 A 
HETATM    9  C15 UNL     1      27.229   2.944  36.016  1.00  0.00     0.280 A 
HETATM   10  O9  UNL     1      28.434   2.692  35.766  1.00  0.00    -0.265 OA
HETATM   11  N7  UNL     1      26.165   2.693  35.193  1.00  0.00    -0.252 N 
HETATM   12  C16 UNL     1      26.285   2.080  33.871  1.00  0.00     0.182 C 
HETATM   13  N8  UNL     1      25.074   3.096  35.805  1.00  0.00    -0.231 N 
ENDROOT
BRANCH   1  14
HETATM   14  N3  UNL     1      28.458   3.970  38.590  1.00  0.00    -0.307 N 
HETATM   15  C8  UNL     1      29.721   4.444  38.513  1.00  0.00     0.231 A 
HETATM   16  N2  UNL     1      30.576   3.982  37.557  1.00  0.00    -0.308 N 
HETATM   17  O12 UNL     1      30.215   5.377  39.348  1.00  0.00    -0.284 OA
HETATM   18  C4  UNL     1      31.838   4.389  37.406  1.00  0.00     0.106 A 
ATOM     19  H2  UNL     1      30.226   3.275  36.912  1.00  0.00     0.171 HD
HETATM   20  C3  UNL     1      32.284   5.346  38.293  1.00  0.00     0.080 A 
HETATM   21  C2  UNL     1      31.428   5.828  39.270  1.00  0.00     0.056 A 
HETATM   22  C1  UNL     1      31.946   6.863  40.212  1.00  0.00     0.077 C 
ATOM     23  H3  UNL     1      28.559   3.131  39.162  1.00  0.00     0.171 HD
BRANCH  18  24
HETATM   24  N1  UNL     1      32.619   3.929  36.491  1.00  0.00    -0.373 N 
ATOM     25  H1  UNL     1      32.221   3.767  35.566  1.00  0.00     0.161 HD
BRANCH  24  26
HETATM   26  C5  UNL     1      34.001   3.632  36.680  1.00  0.00     0.164 C 
BRANCH  26  27
HETATM   27  C6  UNL     1      34.816   4.453  35.676  1.00  0.00     0.236 C 
BRANCH  27  28
HETATM   28  O1  UNL     1      36.041   4.812  36.231  1.00  0.00    -0.383 OA
ATOM     29  H1  UNL     1      36.387   5.581  35.793  1.00  0.00     0.210 HD
ENDBRANCH  27  28
BRANCH  27  30
HETATM   30  C7  UNL     1      35.015   3.663  34.425  1.00  0.00     0.204 C 
HETATM   31  O2  UNL     1      34.024   3.148  33.885  1.00  0.00    -0.646 OA
HETATM   32  O3  UNL     1      36.266   3.503  33.877  1.00  0.00    -0.646 OA
ENDBRANCH  27  30
ENDBRANCH  26  27
ENDBRANCH  24  26
ENDBRANCH  18  24
ENDBRANCH   1  14
BRANCH   4  33
HETATM   33  C11 UNL     1      24.217   5.192  40.211  1.00  0.00     0.201 C 
BRANCH  33  34
HETATM   34  N5  UNL     1      23.029   5.800  39.675  1.00  0.00    -0.329 N 
HETATM   35  C12 UNL     1      23.120   6.768  38.632  1.00  0.00     0.377 C 
HETATM   36  O4  UNL     1      24.219   7.135  38.139  1.00  0.00    -0.237 OA
ATOM     37  H5  UNL     1      22.114   5.536  40.043  1.00  0.00     0.165 HD
BRANCH  35  38
HETATM   38  O5  UNL     1      21.982   7.363  38.101  1.00  0.00    -0.159 OA
BRANCH  38  39
HETATM   39  S1  UNL     1      20.452   7.034  38.766  1.00  0.00     0.260 S 
HETATM   40  O6  UNL     1      20.588   6.989  40.270  1.00  0.00    -0.572 OA
HETATM   41  O7  UNL     1      19.919   5.738  38.230  1.00  0.00    -0.572 OA
HETATM   42  O8  UNL     1      19.373   8.258  38.371  1.00  0.00    -0.572 OA
ENDBRANCH  38  39
ENDBRANCH  35  38
ENDBRANCH  33  34
ENDBRANCH   4  33
BRANCH  13  43
HETATM   43  C17 UNL     1      23.751   3.010  35.278  1.00  0.00     0.099 A 
HETATM   44  C18 UNL     1      22.751   3.933  35.417  1.00  0.00     0.144 A 
HETATM   45  N9  UNL     1      21.683   3.446  34.765  1.00  0.00    -0.298 N 
HETATM   46  N11 UNL     1      22.001   2.264  34.238  1.00  0.00    -0.301 N 
HETATM   47  C22 UNL     1      23.262   1.953  34.526  1.00  0.00     0.052 A 
ATOM     48  H11 UNL     1      21.367   1.680  33.691  1.00  0.00     0.187 HD
HETATM   49  C23 UNL     1      23.958   0.716  34.107  1.00  0.00     0.072 C 
BRANCH  45  50
HETATM   50  C19 UNL     1      20.415   4.146  34.685  1.00  0.00     0.192 C 
BRANCH  50  51
HETATM   51  C20 UNL     1      20.656   5.572  34.199  1.00  0.00     0.302 C 
BRANCH  51  52
HETATM   52  N10 UNL     1      20.675   6.477  35.321  1.00  0.00    -0.064 N 
ATOM     53 3H10 UNL     1      20.588   5.985  36.211  1.00  0.00     0.275 HD
ATOM     54 2H10 UNL     1      21.597   6.886  35.468  1.00  0.00     0.275 HD
ATOM     55 1H10 UNL     1      19.954   7.189  35.205  1.00  0.00     0.275 HD
ENDBRANCH  51  52
BRANCH  51  56
HETATM   56  C21 UNL     1      19.665   5.953  33.189  1.00  0.00     0.206 C 
HETATM   57  O10 UNL     1      18.654   5.222  33.035  1.00  0.00    -0.646 OA
HETATM   58  O11 UNL     1      19.771   7.082  32.384  1.00  0.00    -0.646 OA
ENDBRANCH  51  56
ENDBRANCH  50  51
ENDBRANCH  45  50
ENDBRANCH  13  43
TORSDOF 15
ENDMDL
