MODEL 1
REMARK VINA RESULT: -9.057343953      0.000      0.000
REMARK  13 active torsions:
REMARK  status: ('A' for Active; 'I' for Inactive)
REMARK    1  A    between atoms: C2_2  and  N1_3 
REMARK    2  A    between atoms: N1_3  and  C3_5 
REMARK    3  A    between atoms: C4_6  and  C5_7 
REMARK    4  A    between atoms: C5_7  and  O1_8 
REMARK    5  A    between atoms: O1_8  and  C6_9 
REMARK    6  A    between atoms: C8_15  and  S1_16 
REMARK    7  A    between atoms: N5_24  and  C11_25 
REMARK    8  A    between atoms: C11_25  and  C12_26 
REMARK    9  A    between atoms: C12_26  and  C13_27 
REMARK   10  A    between atoms: C13_27  and  S2_28 
REMARK   11  A    between atoms: S2_28  and  C14_29 
REMARK   12  A    between atoms: C14_29  and  N6_30 
REMARK   13  A    between atoms: C16_34  and  C17_35 
REMARK       I    between atoms: N11_43  and  C20_44 
ROOT
HETATM    1  C3  UNL     1      20.102   5.890  34.887  1.00  0.00     0.144 C 
HETATM    2  C4  UNL     1      19.142   6.964  35.295  1.00  0.00    -0.015 C 
HETATM    3  C7  UNL     1      19.204   7.586  36.619  1.00  0.00     0.156 C 
HETATM    4  N3  UNL     1      20.429   7.477  37.336  1.00  0.00    -0.375 N 
ATOM      5  H3  UNL     1      20.554   7.898  38.256  1.00  0.00     0.157 HD
HETATM    6  C8  UNL     1      21.468   6.746  36.697  1.00  0.00     0.276 C 
HETATM    7  C9  UNL     1      20.831   5.500  36.104  1.00  0.00     0.212 C 
HETATM    8  N4  UNL     1      21.939   4.622  35.973  1.00  0.00    -0.203 N 
HETATM    9  C10 UNL     1      22.367   3.570  35.252  1.00  0.00     0.349 A 
HETATM   10  O6  UNL     1      21.758   2.976  34.306  1.00  0.00    -0.245 OA
HETATM   11  N5  UNL     1      23.562   3.249  35.706  1.00  0.00    -0.247 N 
HETATM   12  C19 UNL     1      23.877   4.094  36.702  1.00  0.00     0.367 A 
HETATM   13  O8  UNL     1      24.939   4.098  37.376  1.00  0.00    -0.243 OA
HETATM   14  N10 UNL     1      22.845   4.971  36.874  1.00  0.00    -0.126 N 
HETATM   15  N11 UNL     1      22.390   6.078  37.630  1.00  0.00    -0.175 N 
HETATM   16  C20 UNL     1      22.754   6.414  38.934  1.00  0.00     0.316 C 
HETATM   17  O9  UNL     1      22.259   7.465  39.458  1.00  0.00    -0.257 OA
HETATM   18  S3  UNL     1      23.868   5.492  39.956  1.00  0.00     0.015 SA
ENDROOT
BRANCH  11  19
HETATM   19  C11 UNL     1      24.376   2.163  35.207  1.00  0.00     0.139 C 
BRANCH  19  20
HETATM   20  C12 UNL     1      25.688   2.610  34.618  1.00  0.00     0.031 C 
BRANCH  20  21
HETATM   21  C13 UNL     1      26.528   1.330  34.504  1.00  0.00     0.077 C 
BRANCH  21  22
HETATM   22  S2  UNL     1      27.420   0.940  36.002  1.00  0.00    -0.149 SA
BRANCH  22  23
HETATM   23  C14 UNL     1      27.853   2.378  36.994  1.00  0.00     0.204 C 
BRANCH  23  24
HETATM   24  N6  UNL     1      29.132   2.959  36.561  1.00  0.00    -0.320 N 
HETATM   25  C15 UNL     1      29.420   3.463  35.344  1.00  0.00     0.185 A 
HETATM   26  N7  UNL     1      30.697   3.906  35.321  1.00  0.00    -0.345 N 
HETATM   27  C16 UNL     1      31.226   3.682  36.533  1.00  0.00     0.140 A 
ATOM     28  H7  UNL     1      31.173   4.334  34.526  1.00  0.00     0.167 HD
HETATM   29  C18 UNL     1      30.255   3.097  37.295  1.00  0.00     0.152 A 
HETATM   30  N9  UNL     1      30.399   2.697  38.645  1.00  0.00    -0.080 NA
BRANCH  27  31
HETATM   31  C17 UNL     1      32.579   3.998  36.976  1.00  0.00     0.284 C 
HETATM   32  N8  UNL     1      33.620   3.091  36.729  1.00  0.00    -0.056 NA
HETATM   33  O7  UNL     1      32.828   5.069  37.576  1.00  0.00    -0.269 OA
ENDBRANCH  27  31
ENDBRANCH  23  24
ENDBRANCH  22  23
ENDBRANCH  21  22
ENDBRANCH  20  21
ENDBRANCH  19  20
ENDBRANCH  11  19
BRANCH   1  34
HETATM   34  N1  UNL     1      19.321   4.869  34.269  1.00  0.00    -0.392 N 
ATOM     35  H1  UNL     1      19.305   4.760  33.255  1.00  0.00     0.159 HD
BRANCH  34  36
HETATM   36  C2  UNL     1      18.575   4.019  35.102  1.00  0.00     0.052 C 
HETATM   37  C1  UNL     1      17.140   3.975  34.615  1.00  0.00     0.054 C 
ENDBRANCH  34  36
ENDBRANCH   1  34
BRANCH   6  38
HETATM   38  S1  UNL     1      22.457   7.669  35.601  1.00  0.00     0.156 S 
HETATM   39  O3  UNL     1      22.540   7.140  34.205  1.00  0.00    -0.592 OA
HETATM   40  O4  UNL     1      21.783   9.036  35.458  1.00  0.00    -0.592 OA
HETATM   41  O5  UNL     1      23.966   8.004  36.251  1.00  0.00    -0.592 OA
ENDBRANCH   6  38
BRANCH   2  42
HETATM   42  C5  UNL     1      18.212   7.345  34.402  1.00  0.00     0.153 C 
BRANCH  42  43
HETATM   43  O1  UNL     1      18.512   7.266  33.060  1.00  0.00    -0.276 OA
BRANCH  43  44
HETATM   44  C6  UNL     1      17.477   7.147  32.144  1.00  0.00     0.377 C 
HETATM   45  N2  UNL     1      17.588   7.470  30.782  1.00  0.00    -0.032 NA
HETATM   46  O2  UNL     1      16.342   6.717  32.535  1.00  0.00    -0.242 OA
ENDBRANCH  43  44
ENDBRANCH  42  43
ENDBRANCH   2  42
TORSDOF 13
ENDMDL
MODEL 2
REMARK VINA RESULT: -9.054058278      0.876      1.358
REMARK  13 active torsions:
REMARK  status: ('A' for Active; 'I' for Inactive)
REMARK    1  A    between atoms: C2_2  and  N1_3 
REMARK    2  A    between atoms: N1_3  and  C3_5 
REMARK    3  A    between atoms: C4_6  and  C5_7 
REMARK    4  A    between atoms: C5_7  and  O1_8 
REMARK    5  A    between atoms: O1_8  and  C6_9 
REMARK    6  A    between atoms: C8_15  and  S1_16 
REMARK    7  A    between atoms: N5_24  and  C11_25 
REMARK    8  A    between atoms: C11_25  and  C12_26 
REMARK    9  A    between atoms: C12_26  and  C13_27 
REMARK   10  A    between atoms: C13_27  and  S2_28 
REMARK   11  A    between atoms: S2_28  and  C14_29 
REMARK   12  A    between atoms: C14_29  and  N6_30 
REMARK   13  A    between atoms: C16_34  and  C17_35 
REMARK       I    between atoms: N11_43  and  C20_44 
ROOT
HETATM    1  C3  UNL     1      20.385   5.748  35.053  1.00  0.00     0.144 C 
HETATM    2  C4  UNL     1      19.406   6.788  35.504  1.00  0.00    -0.015 C 
HETATM    3  C7  UNL     1      19.468   7.369  36.846  1.00  0.00     0.156 C 
HETATM    4  N3  UNL     1      20.701   7.263  37.549  1.00  0.00    -0.375 N 
ATOM      5  H3  UNL     1      20.826   7.658  38.481  1.00  0.00     0.157 HD
HETATM    6  C8  UNL     1      21.750   6.576  36.878  1.00  0.00     0.276 C 
HETATM    7  C9  UNL     1      21.133   5.336  36.250  1.00  0.00     0.212 C 
HETATM    8  N4  UNL     1      22.259   4.487  36.082  1.00  0.00    -0.203 N 
HETATM    9  C10 UNL     1      22.702   3.467  35.324  1.00  0.00     0.349 A 
HETATM   10  O6  UNL     1      22.097   2.890  34.365  1.00  0.00    -0.245 OA
HETATM   11  N5  UNL     1      23.908   3.157  35.757  1.00  0.00    -0.247 N 
HETATM   12  C19 UNL     1      24.215   3.977  36.776  1.00  0.00     0.367 A 
HETATM   13  O8  UNL     1      25.282   3.982  37.441  1.00  0.00    -0.243 OA
HETATM   14  N10 UNL     1      23.165   4.826  36.985  1.00  0.00    -0.126 N 
HETATM   15  N11 UNL     1      22.694   5.898  37.781  1.00  0.00    -0.175 N 
HETATM   16  C20 UNL     1      23.063   6.200  39.091  1.00  0.00     0.316 C 
HETATM   17  O9  UNL     1      22.552   7.223  39.653  1.00  0.00    -0.257 OA
HETATM   18  S3  UNL     1      24.206   5.270  40.074  1.00  0.00     0.015 SA
ENDROOT
BRANCH  11  19
HETATM   19  C11 UNL     1      24.740   2.105  35.217  1.00  0.00     0.139 C 
BRANCH  19  20
HETATM   20  C12 UNL     1      25.944   2.611  34.466  1.00  0.00     0.031 C 
BRANCH  20  21
HETATM   21  C13 UNL     1      26.998   1.505  34.619  1.00  0.00     0.077 C 
BRANCH  21  22
HETATM   22  S2  UNL     1      27.259   1.014  36.317  1.00  0.00    -0.149 SA
BRANCH  22  23
HETATM   23  C14 UNL     1      28.052   2.271  37.331  1.00  0.00     0.204 C 
BRANCH  23  24
HETATM   24  N6  UNL     1      29.516   2.145  37.289  1.00  0.00    -0.320 N 
HETATM   25  C15 UNL     1      30.284   1.378  38.090  1.00  0.00     0.185 A 
HETATM   26  N7  UNL     1      31.586   1.523  37.752  1.00  0.00    -0.345 N 
HETATM   27  C16 UNL     1      31.645   2.389  36.728  1.00  0.00     0.140 A 
ATOM     28  H7  UNL     1      32.379   1.059  38.194  1.00  0.00     0.167 HD
HETATM   29  C18 UNL     1      30.365   2.770  36.447  1.00  0.00     0.152 A 
HETATM   30  N9  UNL     1      29.981   3.676  35.430  1.00  0.00    -0.080 NA
BRANCH  27  31
HETATM   31  C17 UNL     1      32.842   2.848  36.032  1.00  0.00     0.284 C 
HETATM   32  N8  UNL     1      33.853   3.503  36.748  1.00  0.00    -0.056 NA
HETATM   33  O7  UNL     1      32.981   2.667  34.801  1.00  0.00    -0.269 OA
ENDBRANCH  27  31
ENDBRANCH  23  24
ENDBRANCH  22  23
ENDBRANCH  21  22
ENDBRANCH  20  21
ENDBRANCH  19  20
ENDBRANCH  11  19
BRANCH   1  34
HETATM   34  N1  UNL     1      19.620   4.731  34.409  1.00  0.00    -0.392 N 
ATOM     35  H1  UNL     1      19.655   4.606  33.398  1.00  0.00     0.159 HD
BRANCH  34  36
HETATM   36  C2  UNL     1      18.817   3.905  35.215  1.00  0.00     0.052 C 
HETATM   37  C1  UNL     1      17.391   3.938  34.700  1.00  0.00     0.054 C 
ENDBRANCH  34  36
ENDBRANCH   1  34
BRANCH   6  38
HETATM   38  S1  UNL     1      22.709   7.554  35.803  1.00  0.00     0.156 S 
HETATM   39  O3  UNL     1      22.165   8.917  35.513  1.00  0.00    -0.592 OA
HETATM   40  O4  UNL     1      24.035   7.812  36.522  1.00  0.00    -0.592 OA
HETATM   41  O5  UNL     1      23.133   6.723  34.411  1.00  0.00    -0.592 OA
ENDBRANCH   6  38
BRANCH   2  42
HETATM   42  C5  UNL     1      18.460   7.177  34.632  1.00  0.00     0.153 C 
BRANCH  42  43
HETATM   43  O1  UNL     1      18.778   7.233  33.293  1.00  0.00    -0.276 OA
BRANCH  43  44
HETATM   44  C6  UNL     1      17.765   7.105  32.353  1.00  0.00     0.377 C 
HETATM   45  N2  UNL     1      17.913   7.396  30.988  1.00  0.00    -0.032 NA
HETATM   46  O2  UNL     1      16.615   6.699  32.725  1.00  0.00    -0.242 OA
ENDBRANCH  43  44
ENDBRANCH  42  43
ENDBRANCH   2  42
TORSDOF 13
ENDMDL
MODEL 3
REMARK VINA RESULT: -9.028755831      0.954      1.160
REMARK  13 active torsions:
REMARK  status: ('A' for Active; 'I' for Inactive)
REMARK    1  A    between atoms: C2_2  and  N1_3 
REMARK    2  A    between atoms: N1_3  and  C3_5 
REMARK    3  A    between atoms: C4_6  and  C5_7 
REMARK    4  A    between atoms: C5_7  and  O1_8 
REMARK    5  A    between atoms: O1_8  and  C6_9 
REMARK    6  A    between atoms: C8_15  and  S1_16 
REMARK    7  A    between atoms: N5_24  and  C11_25 
REMARK    8  A    between atoms: C11_25  and  C12_26 
REMARK    9  A    between atoms: C12_26  and  C13_27 
REMARK   10  A    between atoms: C13_27  and  S2_28 
REMARK   11  A    between atoms: S2_28  and  C14_29 
REMARK   12  A    between atoms: C14_29  and  N6_30 
REMARK   13  A    between atoms: C16_34  and  C17_35 
REMARK       I    between atoms: N11_43  and  C20_44 
ROOT
HETATM    1  C3  UNL     1      20.158   5.900  34.945  1.00  0.00     0.144 C 
HETATM    2  C4  UNL     1      19.220   6.980  35.387  1.00  0.00    -0.015 C 
HETATM    3  C7  UNL     1      19.314   7.581  36.719  1.00  0.00     0.156 C 
HETATM    4  N3  UNL     1      20.550   7.444  37.412  1.00  0.00    -0.375 N 
ATOM      5  H3  UNL     1      20.697   7.849  38.336  1.00  0.00     0.157 HD
HETATM    6  C8  UNL     1      21.568   6.709  36.744  1.00  0.00     0.276 C 
HETATM    7  C9  UNL     1      20.903   5.481  36.143  1.00  0.00     0.212 C 
HETATM    8  N4  UNL     1      21.996   4.590  35.979  1.00  0.00    -0.203 N 
HETATM    9  C10 UNL     1      22.396   3.543  35.235  1.00  0.00     0.349 A 
HETATM   10  O6  UNL     1      21.763   2.972  34.291  1.00  0.00    -0.245 OA
HETATM   11  N5  UNL     1      23.595   3.199  35.662  1.00  0.00    -0.247 N 
HETATM   12  C19 UNL     1      23.939   4.024  36.665  1.00  0.00     0.367 A 
HETATM   13  O8  UNL     1      25.012   4.003  37.320  1.00  0.00    -0.243 OA
HETATM   14  N10 UNL     1      22.922   4.913  36.869  1.00  0.00    -0.126 N 
HETATM   15  N11 UNL     1      22.497   6.014  37.650  1.00  0.00    -0.175 N 
HETATM   16  C20 UNL     1      22.888   6.325  38.952  1.00  0.00     0.316 C 
HETATM   17  O9  UNL     1      22.417   7.374  39.500  1.00  0.00    -0.257 OA
HETATM   18  S3  UNL     1      24.007   5.372  39.940  1.00  0.00     0.015 SA
ENDROOT
BRANCH  11  19
HETATM   19  C11 UNL     1      24.385   2.110  35.133  1.00  0.00     0.139 C 
BRANCH  19  20
HETATM   20  C12 UNL     1      25.582   2.560  34.338  1.00  0.00     0.031 C 
BRANCH  20  21
HETATM   21  C13 UNL     1      26.640   1.471  34.564  1.00  0.00     0.077 C 
BRANCH  21  22
HETATM   22  S2  UNL     1      27.067   1.254  36.285  1.00  0.00    -0.149 SA
BRANCH  22  23
HETATM   23  C14 UNL     1      28.837   1.238  36.606  1.00  0.00     0.204 C 
BRANCH  23  24
HETATM   24  N6  UNL     1      29.378   2.603  36.683  1.00  0.00    -0.320 N 
HETATM   25  C15 UNL     1      29.552   3.461  35.658  1.00  0.00     0.185 A 
HETATM   26  N7  UNL     1      30.073   4.622  36.116  1.00  0.00    -0.345 N 
HETATM   27  C16 UNL     1      30.231   4.501  37.443  1.00  0.00     0.140 A 
ATOM     28  H7  UNL     1      30.304   5.442  35.555  1.00  0.00     0.167 HD
HETATM   29  C18 UNL     1      29.800   3.251  37.788  1.00  0.00     0.152 A 
HETATM   30  N9  UNL     1      29.793   2.717  39.098  1.00  0.00    -0.080 NA
BRANCH  27  31
HETATM   31  C17 UNL     1      30.759   5.502  38.362  1.00  0.00     0.284 C 
HETATM   32  N8  UNL     1      32.138   5.751  38.400  1.00  0.00    -0.056 NA
HETATM   33  O7  UNL     1      29.999   6.144  39.122  1.00  0.00    -0.269 OA
ENDBRANCH  27  31
ENDBRANCH  23  24
ENDBRANCH  22  23
ENDBRANCH  21  22
ENDBRANCH  20  21
ENDBRANCH  19  20
ENDBRANCH  11  19
BRANCH   1  34
HETATM   34  N1  UNL     1      19.352   4.899  34.326  1.00  0.00    -0.392 N 
ATOM     35  H1  UNL     1      19.338   4.787  33.312  1.00  0.00     0.159 HD
BRANCH  34  36
HETATM   36  C2  UNL     1      18.577   4.072  35.157  1.00  0.00     0.052 C 
HETATM   37  C1  UNL     1      17.159   4.014  34.625  1.00  0.00     0.054 C 
ENDBRANCH  34  36
ENDBRANCH   1  34
BRANCH   6  38
HETATM   38  S1  UNL     1      22.550   7.635  35.644  1.00  0.00     0.156 S 
HETATM   39  O3  UNL     1      22.042   9.004  35.322  1.00  0.00    -0.592 OA
HETATM   40  O4  UNL     1      23.884   7.876  36.355  1.00  0.00    -0.592 OA
HETATM   41  O5  UNL     1      22.950   6.759  34.272  1.00  0.00    -0.592 OA
ENDBRANCH   6  38
BRANCH   2  42
HETATM   42  C5  UNL     1      18.280   7.388  34.517  1.00  0.00     0.153 C 
BRANCH  42  43
HETATM   43  O1  UNL     1      18.562   7.340  33.169  1.00  0.00    -0.276 OA
BRANCH  43  44
HETATM   44  C6  UNL     1      17.515   7.228  32.265  1.00  0.00     0.377 C 
HETATM   45  N2  UNL     1      17.644   7.416  30.880  1.00  0.00    -0.032 NA
HETATM   46  O2  UNL     1      16.349   6.934  32.692  1.00  0.00    -0.242 OA
ENDBRANCH  43  44
ENDBRANCH  42  43
ENDBRANCH   2  42
TORSDOF 13
ENDMDL
MODEL 4
REMARK VINA RESULT: -8.989737724      1.409      1.760
REMARK  13 active torsions:
REMARK  status: ('A' for Active; 'I' for Inactive)
REMARK    1  A    between atoms: C2_2  and  N1_3 
REMARK    2  A    between atoms: N1_3  and  C3_5 
REMARK    3  A    between atoms: C4_6  and  C5_7 
REMARK    4  A    between atoms: C5_7  and  O1_8 
REMARK    5  A    between atoms: O1_8  and  C6_9 
REMARK    6  A    between atoms: C8_15  and  S1_16 
REMARK    7  A    between atoms: N5_24  and  C11_25 
REMARK    8  A    between atoms: C11_25  and  C12_26 
REMARK    9  A    between atoms: C12_26  and  C13_27 
REMARK   10  A    between atoms: C13_27  and  S2_28 
REMARK   11  A    between atoms: S2_28  and  C14_29 
REMARK   12  A    between atoms: C14_29  and  N6_30 
REMARK   13  A    between atoms: C16_34  and  C17_35 
REMARK       I    between atoms: N11_43  and  C20_44 
ROOT
HETATM    1  C3  UNL     1      20.202   5.886  35.141  1.00  0.00     0.144 C 
HETATM    2  C4  UNL     1      19.297   6.962  35.656  1.00  0.00    -0.015 C 
HETATM    3  C7  UNL     1      19.454   7.518  37.001  1.00  0.00     0.156 C 
HETATM    4  N3  UNL     1      20.716   7.345  37.637  1.00  0.00    -0.375 N 
ATOM      5  H3  UNL     1      20.907   7.718  38.567  1.00  0.00     0.157 HD
HETATM    6  C8  UNL     1      21.695   6.621  36.903  1.00  0.00     0.276 C 
HETATM    7  C9  UNL     1      20.991   5.421  36.292  1.00  0.00     0.212 C 
HETATM    8  N4  UNL     1      22.066   4.524  36.053  1.00  0.00    -0.203 N 
HETATM    9  C10 UNL     1      22.421   3.497  35.260  1.00  0.00     0.349 A 
HETATM   10  O6  UNL     1      21.742   2.964  34.325  1.00  0.00    -0.245 OA
HETATM   11  N5  UNL     1      23.632   3.126  35.625  1.00  0.00    -0.247 N 
HETATM   12  C19 UNL     1      24.029   3.914  36.638  1.00  0.00     0.367 A 
HETATM   13  O8  UNL     1      25.128   3.860  37.246  1.00  0.00    -0.243 OA
HETATM   14  N10 UNL     1      23.032   4.807  36.913  1.00  0.00    -0.126 N 
HETATM   15  N11 UNL     1      22.653   5.887  37.746  1.00  0.00    -0.175 N 
HETATM   16  C20 UNL     1      23.102   6.150  39.040  1.00  0.00     0.316 C 
HETATM   17  O9  UNL     1      22.668   7.186  39.642  1.00  0.00    -0.257 OA
HETATM   18  S3  UNL     1      24.250   5.154  39.949  1.00  0.00     0.015 SA
ENDROOT
BRANCH  11  19
HETATM   19  C11 UNL     1      24.386   2.046  35.028  1.00  0.00     0.139 C 
BRANCH  19  20
HETATM   20  C12 UNL     1      25.555   2.509  34.200  1.00  0.00     0.031 C 
BRANCH  20  21
HETATM   21  C13 UNL     1      26.675   1.503  34.500  1.00  0.00     0.077 C 
BRANCH  21  22
HETATM   22  S2  UNL     1      27.055   1.373  36.241  1.00  0.00    -0.149 SA
BRANCH  22  23
HETATM   23  C14 UNL     1      28.815   1.298  36.605  1.00  0.00     0.204 C 
BRANCH  23  24
HETATM   24  N6  UNL     1      29.414   2.640  36.621  1.00  0.00    -0.320 N 
HETATM   25  C15 UNL     1      29.551   3.476  35.572  1.00  0.00     0.185 A 
HETATM   26  N7  UNL     1      30.149   4.621  35.974  1.00  0.00    -0.345 N 
HETATM   27  C16 UNL     1      30.395   4.512  37.288  1.00  0.00     0.140 A 
ATOM     28  H7  UNL     1      30.373   5.423  35.384  1.00  0.00     0.167 HD
HETATM   29  C18 UNL     1      29.939   3.286  37.683  1.00  0.00     0.152 A 
HETATM   30  N9  UNL     1      30.003   2.771  38.999  1.00  0.00    -0.080 NA
BRANCH  27  31
HETATM   31  C17 UNL     1      31.026   5.503  38.151  1.00  0.00     0.284 C 
HETATM   32  N8  UNL     1      30.229   6.354  38.929  1.00  0.00    -0.056 NA
HETATM   33  O7  UNL     1      32.273   5.606  38.209  1.00  0.00    -0.269 OA
ENDBRANCH  27  31
ENDBRANCH  23  24
ENDBRANCH  22  23
ENDBRANCH  21  22
ENDBRANCH  20  21
ENDBRANCH  19  20
ENDBRANCH  11  19
BRANCH   1  34
HETATM   34  N1  UNL     1      19.359   4.915  34.524  1.00  0.00    -0.392 N 
ATOM     35  H1  UNL     1      19.365   4.778  33.514  1.00  0.00     0.159 HD
BRANCH  34  36
HETATM   36  C2  UNL     1      18.518   4.153  35.354  1.00  0.00     0.052 C 
HETATM   37  C1  UNL     1      17.150   4.039  34.712  1.00  0.00     0.054 C 
ENDBRANCH  34  36
ENDBRANCH   1  34
BRANCH   6  38
HETATM   38  S1  UNL     1      22.642   7.572  35.794  1.00  0.00     0.156 S 
HETATM   39  O3  UNL     1      22.112   8.939  35.501  1.00  0.00    -0.592 OA
HETATM   40  O4  UNL     1      23.990   7.818  36.477  1.00  0.00    -0.592 OA
HETATM   41  O5  UNL     1      23.020   6.718  34.401  1.00  0.00    -0.592 OA
ENDBRANCH   6  38
BRANCH   2  42
HETATM   42  C5  UNL     1      18.327   7.408  34.840  1.00  0.00     0.153 C 
BRANCH  42  43
HETATM   43  O1  UNL     1      17.834   8.680  35.032  1.00  0.00    -0.276 OA
BRANCH  43  44
HETATM   44  C6  UNL     1      16.603   8.840  35.653  1.00  0.00     0.377 C 
HETATM   45  N2  UNL     1      15.995  10.083  35.890  1.00  0.00    -0.032 NA
HETATM   46  O2  UNL     1      15.962   7.810  36.045  1.00  0.00    -0.242 OA
ENDBRANCH  43  44
ENDBRANCH  42  43
ENDBRANCH   2  42
TORSDOF 13
ENDMDL
MODEL 5
REMARK VINA RESULT: -8.921523394      1.840      2.559
REMARK  13 active torsions:
REMARK  status: ('A' for Active; 'I' for Inactive)
REMARK    1  A    between atoms: C2_2  and  N1_3 
REMARK    2  A    between atoms: N1_3  and  C3_5 
REMARK    3  A    between atoms: C4_6  and  C5_7 
REMARK    4  A    between atoms: C5_7  and  O1_8 
REMARK    5  A    between atoms: O1_8  and  C6_9 
REMARK    6  A    between atoms: C8_15  and  S1_16 
REMARK    7  A    between atoms: N5_24  and  C11_25 
REMARK    8  A    between atoms: C11_25  and  C12_26 
REMARK    9  A    between atoms: C12_26  and  C13_27 
REMARK   10  A    between atoms: C13_27  and  S2_28 
REMARK   11  A    between atoms: S2_28  and  C14_29 
REMARK   12  A    between atoms: C14_29  and  N6_30 
REMARK   13  A    between atoms: C16_34  and  C17_35 
REMARK       I    between atoms: N11_43  and  C20_44 
ROOT
HETATM    1  C3  UNL     1      18.882   6.300  34.014  1.00  0.00     0.144 C 
HETATM    2  C4  UNL     1      17.845   7.361  33.810  1.00  0.00    -0.015 C 
HETATM    3  C7  UNL     1      17.419   8.237  34.902  1.00  0.00     0.156 C 
HETATM    4  N3  UNL     1      18.293   8.363  36.019  1.00  0.00    -0.375 N 
ATOM      5  H3  UNL     1      18.072   8.968  36.810  1.00  0.00     0.157 HD
HETATM    6  C8  UNL     1      19.490   7.597  35.970  1.00  0.00     0.276 C 
HETATM    7  C9  UNL     1      19.108   6.215  35.465  1.00  0.00     0.212 C 
HETATM    8  N4  UNL     1      20.182   5.412  35.934  1.00  0.00    -0.203 N 
HETATM    9  C10 UNL     1      20.838   4.270  35.658  1.00  0.00     0.349 A 
HETATM   10  O6  UNL     1      20.618   3.456  34.705  1.00  0.00    -0.245 OA
HETATM   11  N5  UNL     1      21.780   4.134  36.570  1.00  0.00    -0.247 N 
HETATM   12  C19 UNL     1      21.712   5.182  37.408  1.00  0.00     0.367 A 
HETATM   13  O8  UNL     1      22.450   5.398  38.403  1.00  0.00    -0.243 OA
HETATM   14  N10 UNL     1      20.693   5.998  37.005  1.00  0.00    -0.126 N 
HETATM   15  N11 UNL     1      19.999   7.198  37.292  1.00  0.00    -0.175 N 
HETATM   16  C20 UNL     1      19.858   7.813  38.536  1.00  0.00     0.316 C 
HETATM   17  O9  UNL     1      19.212   8.909  38.609  1.00  0.00    -0.257 OA
HETATM   18  S3  UNL     1      20.512   7.198  40.063  1.00  0.00     0.015 SA
ENDROOT
BRANCH  11  19
HETATM   19  C11 UNL     1      22.714   3.033  36.643  1.00  0.00     0.139 C 
BRANCH  19  20
HETATM   20  C12 UNL     1      23.875   3.159  35.690  1.00  0.00     0.031 C 
BRANCH  20  21
HETATM   21  C13 UNL     1      23.702   1.998  34.701  1.00  0.00     0.077 C 
BRANCH  21  22
HETATM   22  S2  UNL     1      25.255   1.298  34.162  1.00  0.00    -0.149 SA
BRANCH  22  23
HETATM   23  C14 UNL     1      26.671   2.382  34.398  1.00  0.00     0.204 C 
BRANCH  23  24
HETATM   24  N6  UNL     1      27.483   1.957  35.548  1.00  0.00    -0.320 N 
HETATM   25  C15 UNL     1      27.248   0.904  36.357  1.00  0.00     0.185 A 
HETATM   26  N7  UNL     1      28.211   0.829  37.304  1.00  0.00    -0.345 N 
HETATM   27  C16 UNL     1      29.065   1.843  37.095  1.00  0.00     0.140 A 
ATOM     28  H7  UNL     1      28.276   0.129  38.043  1.00  0.00     0.167 HD
HETATM   29  C18 UNL     1      28.610   2.536  36.009  1.00  0.00     0.152 A 
HETATM   30  N9  UNL     1      29.223   3.683  35.451  1.00  0.00    -0.080 NA
BRANCH  27  31
HETATM   31  C17 UNL     1      30.259   2.161  37.868  1.00  0.00     0.284 C 
HETATM   32  N8  UNL     1      31.526   1.905  37.325  1.00  0.00    -0.056 NA
HETATM   33  O7  UNL     1      30.172   2.661  39.013  1.00  0.00    -0.269 OA
ENDBRANCH  27  31
ENDBRANCH  23  24
ENDBRANCH  22  23
ENDBRANCH  21  22
ENDBRANCH  20  21
ENDBRANCH  19  20
ENDBRANCH  11  19
BRANCH   1  34
HETATM   34  N1  UNL     1      18.378   5.121  33.388  1.00  0.00    -0.392 N 
ATOM     35  H1  UNL     1      18.956   4.577  32.748  1.00  0.00     0.159 HD
BRANCH  34  36
HETATM   36  C2  UNL     1      17.059   4.735  33.682  1.00  0.00     0.052 C 
HETATM   37  C1  UNL     1      17.064   3.809  34.882  1.00  0.00     0.054 C 
ENDBRANCH  34  36
ENDBRANCH   1  34
BRANCH   6  38
HETATM   38  S1  UNL     1      20.819   8.352  35.136  1.00  0.00     0.156 S 
HETATM   39  O3  UNL     1      21.079   7.852  33.751  1.00  0.00    -0.592 OA
HETATM   40  O4  UNL     1      20.432   9.822  34.949  1.00  0.00    -0.592 OA
HETATM   41  O5  UNL     1      22.206   8.392  36.076  1.00  0.00    -0.592 OA
ENDBRANCH   6  38
BRANCH   2  42
HETATM   42  C5  UNL     1      17.312   7.487  32.583  1.00  0.00     0.153 C 
BRANCH  42  43
HETATM   43  O1  UNL     1      17.885   8.377  31.701  1.00  0.00    -0.276 OA
BRANCH  43  44
HETATM   44  C6  UNL     1      18.557   7.889  30.589  1.00  0.00     0.377 C 
HETATM   45  N2  UNL     1      18.557   8.511  29.332  1.00  0.00    -0.032 NA
HETATM   46  O2  UNL     1      19.225   6.807  30.688  1.00  0.00    -0.242 OA
ENDBRANCH  43  44
ENDBRANCH  42  43
ENDBRANCH   2  42
TORSDOF 13
ENDMDL
