MODEL 1
REMARK VINA RESULT: -10.438503011      0.000      0.000
REMARK  15 active torsions:
REMARK  status: ('A' for Active; 'I' for Inactive)
REMARK    1  A    between atoms: C2_2  and  C3_6 
REMARK    2  A    between atoms: C3_6  and  C4_7 
REMARK    3  A    between atoms: C4_7  and  N2_8 
REMARK       I    between atoms: N2_8  and  C5_10 
REMARK    4  A    between atoms: C5_10  and  C6_12 
REMARK    5  A    between atoms: C7_13  and  C8_14 
REMARK    6  A    between atoms: N5_22  and  C10_23 
REMARK    7  A    between atoms: C12_25  and  N6_26 
REMARK    8  A    between atoms: C14_30  and  C15_31 
REMARK    9  A    between atoms: C15_31  and  O7_32 
REMARK   10  A    between atoms: C15_31  and  N7_34 
REMARK   11  A    between atoms: N8_37  and  O8_38 
REMARK   12  A    between atoms: O8_38  and  S1_39 
REMARK   13  A    between atoms: S1_39  and  N9_42 
REMARK   14  A    between atoms: C20_45  and  O11_46 
REMARK   15  A    between atoms: C21_48  and  O12_49 
ROOT
HETATM    1  C10 UNL     1      25.377   3.845  37.164  1.00  0.00     0.085 A 
HETATM    2  C11 UNL     1      25.119   3.083  36.043  1.00  0.00     0.069 A 
HETATM    3  C12 UNL     1      26.097   2.340  35.439  1.00  0.00     0.105 A 
HETATM    4  C13 UNL     1      27.365   2.368  35.978  1.00  0.00     0.050 A 
HETATM    5  C14 UNL     1      27.681   3.109  37.095  1.00  0.00     0.038 A 
HETATM    6  C21 UNL     1      26.638   3.851  37.673  1.00  0.00     0.104 A 
ENDROOT
BRANCH   1   7
HETATM    7  N5  UNL     1      24.320   4.614  37.772  1.00  0.00    -0.208 N 
HETATM    8  C9  UNL     1      24.172   4.939  39.070  1.00  0.00     0.372 A 
HETATM    9  N4  UNL     1      23.042   5.670  39.212  1.00  0.00    -0.129 N 
HETATM   10  O4  UNL     1      24.959   4.614  40.008  1.00  0.00    -0.242 OA
HETATM   11  N3  UNL     1      22.285   6.300  40.085  1.00  0.00    -0.266 N 
HETATM   12  N10 UNL     1      22.484   5.809  38.035  1.00  0.00    -0.171 N 
HETATM   13  C7  UNL     1      21.198   6.872  39.471  1.00  0.00     0.161 A 
ATOM     14  H3  UNL     1      22.479   6.355  41.084  1.00  0.00     0.189 HD
HETATM   15  C6  UNL     1      21.331   6.549  38.152  1.00  0.00     0.166 A 
HETATM   16  C22 UNL     1      23.262   5.165  37.150  1.00  0.00     0.359 A 
HETATM   17  O13 UNL     1      23.071   5.059  35.893  1.00  0.00    -0.244 OA
BRANCH  13  18
HETATM   18  C8  UNL     1      20.185   7.682  40.159  1.00  0.00     0.231 C 
HETATM   19  O2  UNL     1      20.048   7.457  41.413  1.00  0.00    -0.643 OA
HETATM   20  O3  UNL     1      19.409   8.632  39.576  1.00  0.00    -0.643 OA
ENDBRANCH  13  18
BRANCH  15  21
HETATM   21  C5  UNL     1      20.436   6.791  37.046  1.00  0.00     0.273 C 
HETATM   22  N2  UNL     1      19.261   6.124  36.708  1.00  0.00    -0.355 N 
ATOM     23  H2  UNL     1      18.956   5.337  37.282  1.00  0.00     0.162 HD
HETATM   24  O1  UNL     1      20.805   7.759  36.278  1.00  0.00    -0.266 OA
BRANCH  22  25
HETATM   25  C4  UNL     1      18.464   6.511  35.573  1.00  0.00     0.128 C 
BRANCH  25  26
HETATM   26  C3  UNL     1      18.585   5.509  34.478  1.00  0.00     0.071 C 
BRANCH  26  27
HETATM   27  C2  UNL     1      19.833   5.737  33.655  1.00  0.00    -0.023 C 
HETATM   28  C1  UNL     1      19.799   6.893  32.712  1.00  0.00     0.062 C 
HETATM   29  N1  UNL     1      20.853   4.994  33.754  1.00  0.00    -0.406 N 
ATOM     30  H12 UNL     1      21.695   5.148  33.199  1.00  0.00     0.155 HD
ATOM     31  H11 UNL     1      20.876   4.204  34.399  1.00  0.00     0.155 HD
ENDBRANCH  26  27
ENDBRANCH  25  26
ENDBRANCH  22  25
ENDBRANCH  15  21
ENDBRANCH   1   7
BRANCH   6  32
HETATM   32  O12 UNL     1      26.919   4.605  38.791  1.00  0.00    -0.358 OA
ATOM     33  H12 UNL     1      27.713   5.126  38.820  1.00  0.00     0.217 HD
ENDBRANCH   6  32
BRANCH   3  34
HETATM   34  N6  UNL     1      25.768   1.578  34.288  1.00  0.00    -0.116 N 
HETATM   35  O5  UNL     1      26.642   1.179  33.490  1.00  0.00    -0.532 OA
HETATM   36  O6  UNL     1      24.468   1.246  34.003  1.00  0.00    -0.532 OA
ENDBRANCH   3  34
BRANCH   5  37
HETATM   37  C15 UNL     1      29.040   3.153  37.707  1.00  0.00     0.399 C 
BRANCH  37  38
HETATM   38  O7  UNL     1      29.036   2.231  38.782  1.00  0.00    -0.364 OA
ATOM     39  H7  UNL     1      29.561   1.488  38.509  1.00  0.00     0.212 HD
ENDBRANCH  37  38
BRANCH  37  40
HETATM   40  N7  UNL     1      30.104   2.931  36.791  1.00  0.00     0.168 N 
HETATM   41  C16 UNL     1      30.855   1.741  36.989  1.00  0.00     0.298 C 
HETATM   42  C17 UNL     1      32.275   2.057  36.497  1.00  0.00     0.157 C 
HETATM   43  N8  UNL     1      32.221   3.391  35.998  1.00  0.00    -0.120 NA
HETATM   44  C20 UNL     1      31.085   3.968  36.733  1.00  0.00     0.467 C 
BRANCH  43  45
HETATM   45  O8  UNL     1      33.269   4.165  36.273  1.00  0.00    -0.161 OA
BRANCH  45  46
HETATM   46  S1  UNL     1      34.209   4.599  34.985  1.00  0.00     0.355 S 
HETATM   47  O9  UNL     1      33.524   5.781  34.312  1.00  0.00    -0.179 OA
HETATM   48  O10 UNL     1      35.567   5.104  35.399  1.00  0.00    -0.179 OA
BRANCH  46  49
HETATM   49  N9  UNL     1      34.402   3.384  33.801  1.00  0.00    -0.195 NA
HETATM   50  C18 UNL     1      35.438   2.472  34.245  1.00  0.00     0.131 C 
HETATM   51  C19 UNL     1      34.767   3.882  32.507  1.00  0.00     0.131 C 
ENDBRANCH  46  49
ENDBRANCH  45  46
ENDBRANCH  43  45
BRANCH  44  52
HETATM   52  O11 UNL     1      31.567   4.146  38.051  1.00  0.00    -0.355 OA
ATOM     53  H11 UNL     1      30.965   4.738  38.485  1.00  0.00     0.213 HD
ENDBRANCH  44  52
ENDBRANCH  37  40
ENDBRANCH   5  37
TORSDOF 15
ENDMDL
MODEL 2
REMARK VINA RESULT: -10.227414700      0.987      1.130
REMARK  15 active torsions:
REMARK  status: ('A' for Active; 'I' for Inactive)
REMARK    1  A    between atoms: C2_2  and  C3_6 
REMARK    2  A    between atoms: C3_6  and  C4_7 
REMARK    3  A    between atoms: C4_7  and  N2_8 
REMARK       I    between atoms: N2_8  and  C5_10 
REMARK    4  A    between atoms: C5_10  and  C6_12 
REMARK    5  A    between atoms: C7_13  and  C8_14 
REMARK    6  A    between atoms: N5_22  and  C10_23 
REMARK    7  A    between atoms: C12_25  and  N6_26 
REMARK    8  A    between atoms: C14_30  and  C15_31 
REMARK    9  A    between atoms: C15_31  and  O7_32 
REMARK   10  A    between atoms: C15_31  and  N7_34 
REMARK   11  A    between atoms: N8_37  and  O8_38 
REMARK   12  A    between atoms: O8_38  and  S1_39 
REMARK   13  A    between atoms: S1_39  and  N9_42 
REMARK   14  A    between atoms: C20_45  and  O11_46 
REMARK   15  A    between atoms: C21_48  and  O12_49 
ROOT
HETATM    1  C10 UNL     1      24.829   4.129  37.483  1.00  0.00     0.085 A 
HETATM    2  C11 UNL     1      24.573   3.334  36.384  1.00  0.00     0.069 A 
HETATM    3  C12 UNL     1      25.549   2.561  35.813  1.00  0.00     0.105 A 
HETATM    4  C13 UNL     1      26.812   2.593  36.364  1.00  0.00     0.050 A 
HETATM    5  C14 UNL     1      27.125   3.366  37.459  1.00  0.00     0.038 A 
HETATM    6  C21 UNL     1      26.086   4.138  38.003  1.00  0.00     0.104 A 
ENDROOT
BRANCH   1   7
HETATM    7  N5  UNL     1      23.775   4.929  38.055  1.00  0.00    -0.208 N 
HETATM    8  C9  UNL     1      23.649   5.345  39.328  1.00  0.00     0.372 A 
HETATM    9  N4  UNL     1      22.513   6.073  39.441  1.00  0.00    -0.129 N 
HETATM   10  O4  UNL     1      24.458   5.097  40.271  1.00  0.00    -0.242 OA
HETATM   11  N3  UNL     1      21.766   6.756  40.281  1.00  0.00    -0.266 N 
HETATM   12  N10 UNL     1      21.930   6.120  38.268  1.00  0.00    -0.171 N 
HETATM   13  C7  UNL     1      20.660   7.270  39.650  1.00  0.00     0.161 A 
ATOM     14  H3  UNL     1      21.979   6.886  41.270  1.00  0.00     0.189 HD
HETATM   15  C6  UNL     1      20.771   6.854  38.356  1.00  0.00     0.166 A 
HETATM   16  C22 UNL     1      22.698   5.422  37.416  1.00  0.00     0.359 A 
HETATM   17  O13 UNL     1      22.484   5.223  36.175  1.00  0.00    -0.244 OA
BRANCH  13  18
HETATM   18  C8  UNL     1      19.651   8.118  40.299  1.00  0.00     0.231 C 
HETATM   19  O2  UNL     1      19.338   7.794  41.498  1.00  0.00    -0.643 OA
HETATM   20  O3  UNL     1      19.048   9.195  39.733  1.00  0.00    -0.643 OA
ENDBRANCH  13  18
BRANCH  15  21
HETATM   21  C5  UNL     1      19.851   7.006  37.253  1.00  0.00     0.273 C 
HETATM   22  N2  UNL     1      18.872   6.123  36.802  1.00  0.00    -0.355 N 
ATOM     23  H2  UNL     1      18.760   5.225  37.273  1.00  0.00     0.162 HD
HETATM   24  O1  UNL     1      19.983   8.117  36.612  1.00  0.00    -0.266 OA
BRANCH  22  25
HETATM   25  C4  UNL     1      18.013   6.441  35.692  1.00  0.00     0.128 C 
BRANCH  25  26
HETATM   26  C3  UNL     1      18.258   5.512  34.554  1.00  0.00     0.071 C 
BRANCH  26  27
HETATM   27  C2  UNL     1      19.567   5.816  33.863  1.00  0.00    -0.023 C 
HETATM   28  C1  UNL     1      19.658   7.138  33.175  1.00  0.00     0.062 C 
HETATM   29  N1  UNL     1      20.536   5.002  33.861  1.00  0.00    -0.406 N 
ATOM     30  H12 UNL     1      21.420   5.208  33.395  1.00  0.00     0.155 HD
ATOM     31  H11 UNL     1      20.474   4.099  34.331  1.00  0.00     0.155 HD
ENDBRANCH  26  27
ENDBRANCH  25  26
ENDBRANCH  22  25
ENDBRANCH  15  21
ENDBRANCH   1   7
BRANCH   6  32
HETATM   32  O12 UNL     1      26.364   4.924  39.099  1.00  0.00    -0.358 OA
ATOM     33  H12 UNL     1      26.351   5.871  39.015  1.00  0.00     0.217 HD
ENDBRANCH   6  32
BRANCH   3  34
HETATM   34  N6  UNL     1      25.221   1.766  34.684  1.00  0.00    -0.116 N 
HETATM   35  O5  UNL     1      26.102   1.224  33.984  1.00  0.00    -0.532 OA
HETATM   36  O6  UNL     1      23.917   1.558  34.315  1.00  0.00    -0.532 OA
ENDBRANCH   3  34
BRANCH   5  37
HETATM   37  C15 UNL     1      28.479   3.415  38.084  1.00  0.00     0.399 C 
BRANCH  37  38
HETATM   38  O7  UNL     1      28.311   3.095  39.452  1.00  0.00    -0.364 OA
ATOM     39  H7  UNL     1      28.072   3.900  39.896  1.00  0.00     0.212 HD
ENDBRANCH  37  38
BRANCH  37  40
HETATM   40  N7  UNL     1      29.451   2.601  37.440  1.00  0.00     0.168 N 
HETATM   41  C16 UNL     1      29.845   1.431  38.143  1.00  0.00     0.298 C 
HETATM   42  C17 UNL     1      31.302   1.170  37.735  1.00  0.00     0.157 C 
HETATM   43  N8  UNL     1      31.621   2.180  36.782  1.00  0.00    -0.120 NA
HETATM   44  C20 UNL     1      30.679   3.258  37.121  1.00  0.00     0.467 C 
BRANCH  43  45
HETATM   45  O8  UNL     1      32.839   2.713  36.874  1.00  0.00    -0.161 OA
BRANCH  45  46
HETATM   46  S1  UNL     1      33.376   3.529  35.542  1.00  0.00     0.355 S 
HETATM   47  O9  UNL     1      32.650   2.943  34.338  1.00  0.00    -0.179 OA
HETATM   48  O10 UNL     1      33.004   4.989  35.563  1.00  0.00    -0.179 OA
BRANCH  46  49
HETATM   49  N9  UNL     1      35.051   3.384  35.243  1.00  0.00    -0.195 NA
HETATM   50  C18 UNL     1      35.652   4.699  35.355  1.00  0.00     0.131 C 
HETATM   51  C19 UNL     1      35.369   2.853  33.950  1.00  0.00     0.131 C 
ENDBRANCH  46  49
ENDBRANCH  45  46
ENDBRANCH  43  45
BRANCH  44  52
HETATM   52  O11 UNL     1      31.177   3.799  38.329  1.00  0.00    -0.355 OA
ATOM     53  H11 UNL     1      32.123   3.821  38.250  1.00  0.00     0.213 HD
ENDBRANCH  44  52
ENDBRANCH  37  40
ENDBRANCH   5  37
TORSDOF 15
ENDMDL
MODEL 3
REMARK VINA RESULT: -10.147625871      0.862      1.308
REMARK  15 active torsions:
REMARK  status: ('A' for Active; 'I' for Inactive)
REMARK    1  A    between atoms: C2_2  and  C3_6 
REMARK    2  A    between atoms: C3_6  and  C4_7 
REMARK    3  A    between atoms: C4_7  and  N2_8 
REMARK       I    between atoms: N2_8  and  C5_10 
REMARK    4  A    between atoms: C5_10  and  C6_12 
REMARK    5  A    between atoms: C7_13  and  C8_14 
REMARK    6  A    between atoms: N5_22  and  C10_23 
REMARK    7  A    between atoms: C12_25  and  N6_26 
REMARK    8  A    between atoms: C14_30  and  C15_31 
REMARK    9  A    between atoms: C15_31  and  O7_32 
REMARK   10  A    between atoms: C15_31  and  N7_34 
REMARK   11  A    between atoms: N8_37  and  O8_38 
REMARK   12  A    between atoms: O8_38  and  S1_39 
REMARK   13  A    between atoms: S1_39  and  N9_42 
REMARK   14  A    between atoms: C20_45  and  O11_46 
REMARK   15  A    between atoms: C21_48  and  O12_49 
ROOT
HETATM    1  C10 UNL     1      25.499   3.811  37.081  1.00  0.00     0.085 A 
HETATM    2  C11 UNL     1      25.261   3.052  35.954  1.00  0.00     0.069 A 
HETATM    3  C12 UNL     1      26.249   2.307  35.367  1.00  0.00     0.105 A 
HETATM    4  C13 UNL     1      27.506   2.330  35.932  1.00  0.00     0.050 A 
HETATM    5  C14 UNL     1      27.802   3.068  37.056  1.00  0.00     0.038 A 
HETATM    6  C21 UNL     1      26.750   3.812  37.615  1.00  0.00     0.104 A 
ENDROOT
BRANCH   1   7
HETATM    7  N5  UNL     1      24.433   4.582  37.670  1.00  0.00    -0.208 N 
HETATM    8  C9  UNL     1      24.207   4.824  38.974  1.00  0.00     0.372 A 
HETATM    9  N4  UNL     1      23.099   5.592  39.092  1.00  0.00    -0.129 N 
HETATM   10  O4  UNL     1      24.914   4.403  39.938  1.00  0.00    -0.242 OA
HETATM   11  N3  UNL     1      22.307   6.193  39.954  1.00  0.00    -0.266 N 
HETATM   12  N10 UNL     1      22.629   5.834  37.892  1.00  0.00    -0.171 N 
HETATM   13  C7  UNL     1      21.288   6.852  39.310  1.00  0.00     0.161 A 
ATOM     14  H3  UNL     1      22.434   6.173  40.966  1.00  0.00     0.189 HD
HETATM   15  C6  UNL     1      21.500   6.613  37.984  1.00  0.00     0.166 A 
HETATM   16  C22 UNL     1      23.442   5.219  37.018  1.00  0.00     0.359 A 
HETATM   17  O13 UNL     1      23.336   5.206  35.747  1.00  0.00    -0.244 OA
BRANCH  13  18
HETATM   18  C8  UNL     1      20.262   7.657  39.985  1.00  0.00     0.231 C 
HETATM   19  O2  UNL     1      20.186   7.513  41.255  1.00  0.00    -0.643 OA
HETATM   20  O3  UNL     1      19.415   8.524  39.372  1.00  0.00    -0.643 OA
ENDBRANCH  13  18
BRANCH  15  21
HETATM   21  C5  UNL     1      20.695   6.968  36.840  1.00  0.00     0.273 C 
HETATM   22  N2  UNL     1      19.664   6.249  36.238  1.00  0.00    -0.355 N 
ATOM     23  H2  UNL     1      19.418   5.332  36.611  1.00  0.00     0.162 HD
HETATM   24  O1  UNL     1      20.999   8.108  36.321  1.00  0.00    -0.266 OA
BRANCH  22  25
HETATM   25  C4  UNL     1      18.938   6.762  35.106  1.00  0.00     0.128 C 
BRANCH  25  26
HETATM   26  C3  UNL     1      17.606   7.280  35.526  1.00  0.00     0.071 C 
BRANCH  26  27
HETATM   27  C2  UNL     1      17.603   8.790  35.614  1.00  0.00    -0.023 C 
HETATM   28  C1  UNL     1      16.908   9.513  34.508  1.00  0.00     0.062 C 
HETATM   29  N1  UNL     1      18.156   9.413  36.566  1.00  0.00    -0.406 N 
ATOM     30  H12 UNL     1      18.154  10.431  36.625  1.00  0.00     0.155 HD
ATOM     31  H11 UNL     1      18.630   8.918  37.322  1.00  0.00     0.155 HD
ENDBRANCH  26  27
ENDBRANCH  25  26
ENDBRANCH  22  25
ENDBRANCH  15  21
ENDBRANCH   1   7
BRANCH   6  32
HETATM   32  O12 UNL     1      27.011   4.563  38.740  1.00  0.00    -0.358 OA
ATOM     33  H12 UNL     1      27.640   4.249  39.380  1.00  0.00     0.217 HD
ENDBRANCH   6  32
BRANCH   3  34
HETATM   34  N6  UNL     1      25.940   1.548  34.209  1.00  0.00    -0.116 N 
HETATM   35  O5  UNL     1      26.830   1.133  33.437  1.00  0.00    -0.532 OA
HETATM   36  O6  UNL     1      24.644   1.237  33.887  1.00  0.00    -0.532 OA
ENDBRANCH   3  34
BRANCH   5  37
HETATM   37  C15 UNL     1      29.148   3.107  37.695  1.00  0.00     0.399 C 
BRANCH  37  38
HETATM   38  O7  UNL     1      29.115   2.197  38.779  1.00  0.00    -0.364 OA
ATOM     39  H7  UNL     1      29.675   2.555  39.457  1.00  0.00     0.212 HD
ENDBRANCH  37  38
BRANCH  37  40
HETATM   40  N7  UNL     1      30.229   2.865  36.803  1.00  0.00     0.168 N 
HETATM   41  C16 UNL     1      31.015   1.713  37.078  1.00  0.00     0.298 C 
HETATM   42  C17 UNL     1      32.429   2.045  36.580  1.00  0.00     0.157 C 
HETATM   43  N8  UNL     1      32.338   3.345  36.003  1.00  0.00    -0.120 NA
HETATM   44  C20 UNL     1      31.177   3.928  36.693  1.00  0.00     0.467 C 
BRANCH  43  45
HETATM   45  O8  UNL     1      33.359   4.168  36.241  1.00  0.00    -0.161 OA
BRANCH  45  46
HETATM   46  S1  UNL     1      34.268   4.595  34.930  1.00  0.00     0.355 S 
HETATM   47  O9  UNL     1      33.555   5.760  34.254  1.00  0.00    -0.179 OA
HETATM   48  O10 UNL     1      35.627   5.124  35.309  1.00  0.00    -0.179 OA
BRANCH  46  49
HETATM   49  N9  UNL     1      34.453   3.367  33.758  1.00  0.00    -0.195 NA
HETATM   50  C18 UNL     1      35.477   2.448  34.216  1.00  0.00     0.131 C 
HETATM   51  C19 UNL     1      34.830   3.849  32.461  1.00  0.00     0.131 C 
ENDBRANCH  46  49
ENDBRANCH  45  46
ENDBRANCH  43  45
BRANCH  44  52
HETATM   52  O11 UNL     1      31.639   4.198  38.002  1.00  0.00    -0.355 OA
ATOM     53  H11 UNL     1      31.018   3.799  38.599  1.00  0.00     0.213 HD
ENDBRANCH  44  52
ENDBRANCH  37  40
ENDBRANCH   5  37
TORSDOF 15
ENDMDL
MODEL 4
REMARK VINA RESULT: -10.051535408      4.288     11.823
REMARK  15 active torsions:
REMARK  status: ('A' for Active; 'I' for Inactive)
REMARK    1  A    between atoms: C2_2  and  C3_6 
REMARK    2  A    between atoms: C3_6  and  C4_7 
REMARK    3  A    between atoms: C4_7  and  N2_8 
REMARK       I    between atoms: N2_8  and  C5_10 
REMARK    4  A    between atoms: C5_10  and  C6_12 
REMARK    5  A    between atoms: C7_13  and  C8_14 
REMARK    6  A    between atoms: N5_22  and  C10_23 
REMARK    7  A    between atoms: C12_25  and  N6_26 
REMARK    8  A    between atoms: C14_30  and  C15_31 
REMARK    9  A    between atoms: C15_31  and  O7_32 
REMARK   10  A    between atoms: C15_31  and  N7_34 
REMARK   11  A    between atoms: N8_37  and  O8_38 
REMARK   12  A    between atoms: O8_38  and  S1_39 
REMARK   13  A    between atoms: S1_39  and  N9_42 
REMARK   14  A    between atoms: C20_45  and  O11_46 
REMARK   15  A    between atoms: C21_48  and  O12_49 
ROOT
HETATM    1  C10 UNL     1      21.409   5.063  36.435  1.00  0.00     0.085 A 
HETATM    2  C11 UNL     1      21.339   5.749  37.630  1.00  0.00     0.069 A 
HETATM    3  C12 UNL     1      20.281   6.564  37.930  1.00  0.00     0.105 A 
HETATM    4  C13 UNL     1      19.270   6.689  37.001  1.00  0.00     0.050 A 
HETATM    5  C14 UNL     1      19.286   6.029  35.793  1.00  0.00     0.038 A 
HETATM    6  C21 UNL     1      20.396   5.207  35.539  1.00  0.00     0.104 A 
ENDROOT
BRANCH   1   7
HETATM    7  N5  UNL     1      22.541   4.214  36.156  1.00  0.00    -0.208 N 
HETATM    8  C9  UNL     1      22.582   3.117  35.377  1.00  0.00     0.372 A 
HETATM    9  N4  UNL     1      23.841   2.620  35.388  1.00  0.00    -0.129 N 
HETATM   10  O4  UNL     1      21.605   2.627  34.737  1.00  0.00    -0.242 OA
HETATM   11  N3  UNL     1      24.610   1.659  34.921  1.00  0.00    -0.266 N 
HETATM   12  N10 UNL     1      24.584   3.381  36.154  1.00  0.00    -0.171 N 
HETATM   13  C7  UNL     1      25.895   1.787  35.388  1.00  0.00     0.161 A 
ATOM     14  H3  UNL     1      24.293   0.919  34.296  1.00  0.00     0.189 HD
HETATM   15  C6  UNL     1      25.870   2.895  36.183  1.00  0.00     0.166 A 
HETATM   16  C22 UNL     1      23.794   4.358  36.626  1.00  0.00     0.359 A 
HETATM   17  O13 UNL     1      24.129   5.307  37.409  1.00  0.00    -0.244 OA
BRANCH  13  18
HETATM   18  C8  UNL     1      27.006   0.901  35.018  1.00  0.00     0.231 C 
HETATM   19  O2  UNL     1      27.219   0.769  33.761  1.00  0.00    -0.643 OA
HETATM   20  O3  UNL     1      27.805   0.235  35.891  1.00  0.00    -0.643 OA
ENDBRANCH  13  18
BRANCH  15  21
HETATM   21  C5  UNL     1      26.904   3.457  37.019  1.00  0.00     0.273 C 
HETATM   22  N2  UNL     1      28.279   3.498  36.802  1.00  0.00    -0.355 N 
ATOM     23  H2  UNL     1      28.660   3.070  35.957  1.00  0.00     0.162 HD
HETATM   24  O1  UNL     1      26.464   3.980  38.113  1.00  0.00    -0.266 OA
BRANCH  22  25
HETATM   25  C4  UNL     1      29.179   4.126  37.734  1.00  0.00     0.128 C 
BRANCH  25  26
HETATM   26  C3  UNL     1      30.063   3.113  38.375  1.00  0.00     0.071 C 
BRANCH  26  27
HETATM   27  C2  UNL     1      31.309   2.868  37.555  1.00  0.00    -0.023 C 
HETATM   28  C1  UNL     1      31.991   4.080  37.013  1.00  0.00     0.062 C 
HETATM   29  N1  UNL     1      31.755   1.704  37.334  1.00  0.00    -0.406 N 
ATOM     30  H12 UNL     1      32.596   1.539  36.780  1.00  0.00     0.155 HD
ATOM     31  H11 UNL     1      31.289   0.876  37.704  1.00  0.00     0.155 HD
ENDBRANCH  26  27
ENDBRANCH  25  26
ENDBRANCH  22  25
ENDBRANCH  15  21
ENDBRANCH   1   7
BRANCH   6  32
HETATM   32  O12 UNL     1      20.445   4.532  34.339  1.00  0.00    -0.358 OA
ATOM     33  H12 UNL     1      21.047   4.819  33.662  1.00  0.00     0.217 HD
ENDBRANCH   6  32
BRANCH   3  34
HETATM   34  N6  UNL     1      20.268   7.242  39.176  1.00  0.00    -0.116 N 
HETATM   35  O5  UNL     1      20.992   6.883  40.128  1.00  0.00    -0.532 OA
HETATM   36  O6  UNL     1      19.455   8.326  39.388  1.00  0.00    -0.532 OA
ENDBRANCH   3  34
BRANCH   5  37
HETATM   37  C15 UNL     1      18.204   6.137  34.772  1.00  0.00     0.399 C 
BRANCH  37  38
HETATM   38  O7  UNL     1      17.064   6.652  35.434  1.00  0.00    -0.364 OA
ATOM     39  H7  UNL     1      16.524   5.908  35.672  1.00  0.00     0.212 HD
ENDBRANCH  37  38
BRANCH  37  40
HETATM   40  N7  UNL     1      18.560   6.887  33.617  1.00  0.00     0.168 N 
HETATM   41  C16 UNL     1      18.524   8.301  33.761  1.00  0.00     0.298 C 
HETATM   42  C17 UNL     1      18.171   8.851  32.371  1.00  0.00     0.157 C 
HETATM   43  N8  UNL     1      18.087   7.714  31.517  1.00  0.00    -0.120 NA
HETATM   44  C20 UNL     1      17.773   6.625  32.455  1.00  0.00     0.467 C 
BRANCH  43  45
HETATM   45  O8  UNL     1      17.101   7.723  30.621  1.00  0.00    -0.161 OA
BRANCH  45  46
HETATM   46  S1  UNL     1      17.473   8.353  29.139  1.00  0.00     0.355 S 
HETATM   47  O9  UNL     1      18.894   7.913  28.812  1.00  0.00    -0.179 OA
HETATM   48  O10 UNL     1      16.616   7.791  28.035  1.00  0.00    -0.179 OA
BRANCH  46  49
HETATM   49  N9  UNL     1      17.440  10.058  29.059  1.00  0.00    -0.195 NA
HETATM   50  C18 UNL     1      16.437  10.541  29.989  1.00  0.00     0.131 C 
HETATM   51  C19 UNL     1      17.132  10.576  27.758  1.00  0.00     0.131 C 
ENDBRANCH  46  49
ENDBRANCH  45  46
ENDBRANCH  43  45
BRANCH  44  52
HETATM   52  O11 UNL     1      16.424   6.845  32.818  1.00  0.00    -0.355 OA
ATOM     53  H11 UNL     1      15.985   7.184  32.047  1.00  0.00     0.213 HD
ENDBRANCH  44  52
ENDBRANCH  37  40
ENDBRANCH   5  37
TORSDOF 15
ENDMDL
MODEL 5
REMARK VINA RESULT: -9.942675146      1.047      1.223
REMARK  15 active torsions:
REMARK  status: ('A' for Active; 'I' for Inactive)
REMARK    1  A    between atoms: C2_2  and  C3_6 
REMARK    2  A    between atoms: C3_6  and  C4_7 
REMARK    3  A    between atoms: C4_7  and  N2_8 
REMARK       I    between atoms: N2_8  and  C5_10 
REMARK    4  A    between atoms: C5_10  and  C6_12 
REMARK    5  A    between atoms: C7_13  and  C8_14 
REMARK    6  A    between atoms: N5_22  and  C10_23 
REMARK    7  A    between atoms: C12_25  and  N6_26 
REMARK    8  A    between atoms: C14_30  and  C15_31 
REMARK    9  A    between atoms: C15_31  and  O7_32 
REMARK   10  A    between atoms: C15_31  and  N7_34 
REMARK   11  A    between atoms: N8_37  and  O8_38 
REMARK   12  A    between atoms: O8_38  and  S1_39 
REMARK   13  A    between atoms: S1_39  and  N9_42 
REMARK   14  A    between atoms: C20_45  and  O11_46 
REMARK   15  A    between atoms: C21_48  and  O12_49 
ROOT
HETATM    1  C10 UNL     1      25.756   3.732  37.395  1.00  0.00     0.085 A 
HETATM    2  C11 UNL     1      25.591   2.977  36.252  1.00  0.00     0.069 A 
HETATM    3  C12 UNL     1      26.603   2.205  35.747  1.00  0.00     0.105 A 
HETATM    4  C13 UNL     1      27.810   2.197  36.411  1.00  0.00     0.050 A 
HETATM    5  C14 UNL     1      28.034   2.930  37.555  1.00  0.00     0.038 A 
HETATM    6  C21 UNL     1      26.960   3.702  38.027  1.00  0.00     0.104 A 
ENDROOT
BRANCH   1   7
HETATM    7  N5  UNL     1      24.666   4.532  37.895  1.00  0.00    -0.208 N 
HETATM    8  C9  UNL     1      24.315   4.745  39.176  1.00  0.00     0.372 A 
HETATM    9  N4  UNL     1      23.232   5.558  39.204  1.00  0.00    -0.129 N 
HETATM   10  O4  UNL     1      24.898   4.265  40.193  1.00  0.00    -0.242 OA
HETATM   11  N3  UNL     1      22.380   6.168  39.999  1.00  0.00    -0.266 N 
HETATM   12  N10 UNL     1      22.902   5.855  37.971  1.00  0.00    -0.171 N 
HETATM   13  C7  UNL     1      21.462   6.889  39.276  1.00  0.00     0.161 A 
ATOM     14  H3  UNL     1      22.399   6.112  41.017  1.00  0.00     0.189 HD
HETATM   15  C6  UNL     1      21.803   6.681  37.972  1.00  0.00     0.166 A 
HETATM   16  C22 UNL     1      23.776   5.231  37.166  1.00  0.00     0.359 A 
HETATM   17  O13 UNL     1      23.804   5.260  35.891  1.00  0.00    -0.244 OA
BRANCH  13  18
HETATM   18  C8  UNL     1      20.404   7.719  39.867  1.00  0.00     0.231 C 
HETATM   19  O2  UNL     1      20.455   7.865  41.139  1.00  0.00    -0.643 OA
HETATM   20  O3  UNL     1      19.407   8.329  39.177  1.00  0.00    -0.643 OA
ENDBRANCH  13  18
BRANCH  15  21
HETATM   21  C5  UNL     1      21.137   7.104  36.763  1.00  0.00     0.273 C 
HETATM   22  N2  UNL     1      19.877   6.748  36.286  1.00  0.00    -0.355 N 
ATOM     23  H2  UNL     1      19.315   6.086  36.822  1.00  0.00     0.162 HD
HETATM   24  O1  UNL     1      21.831   7.917  36.042  1.00  0.00    -0.266 OA
BRANCH  22  25
HETATM   25  C4  UNL     1      19.347   7.285  35.061  1.00  0.00     0.128 C 
BRANCH  25  26
HETATM   26  C3  UNL     1      17.990   6.733  34.787  1.00  0.00     0.071 C 
BRANCH  26  27
HETATM   27  C2  UNL     1      17.997   5.823  33.580  1.00  0.00    -0.023 C 
HETATM   28  C1  UNL     1      19.066   6.076  32.570  1.00  0.00     0.062 C 
HETATM   29  N1  UNL     1      17.148   4.897  33.427  1.00  0.00    -0.406 N 
ATOM     30  H12 UNL     1      17.153   4.283  32.613  1.00  0.00     0.155 HD
ATOM     31  H11 UNL     1      16.418   4.724  34.118  1.00  0.00     0.155 HD
ENDBRANCH  26  27
ENDBRANCH  25  26
ENDBRANCH  22  25
ENDBRANCH  15  21
ENDBRANCH   1   7
BRANCH   6  32
HETATM   32  O12 UNL     1      27.149   4.449  39.170  1.00  0.00    -0.358 OA
ATOM     33  H12 UNL     1      27.031   5.391  39.141  1.00  0.00     0.217 HD
ENDBRANCH   6  32
BRANCH   3  34
HETATM   34  N6  UNL     1      26.368   1.451  34.567  1.00  0.00    -0.116 N 
HETATM   35  O5  UNL     1      27.287   1.181  33.766  1.00  0.00    -0.532 OA
HETATM   36  O6  UNL     1      25.116   0.987  34.258  1.00  0.00    -0.532 OA
ENDBRANCH   3  34
BRANCH   5  37
HETATM   37  C15 UNL     1      29.325   2.935  38.301  1.00  0.00     0.399 C 
BRANCH  37  38
HETATM   38  O7  UNL     1      29.687   1.582  38.505  1.00  0.00    -0.364 OA
ATOM     39  H7  UNL     1      30.361   1.378  37.867  1.00  0.00     0.212 HD
ENDBRANCH  37  38
BRANCH  37  40
HETATM   40  N7  UNL     1      30.355   3.697  37.685  1.00  0.00     0.168 N 
HETATM   41  C16 UNL     1      29.931   4.641  36.711  1.00  0.00     0.298 C 
HETATM   42  C17 UNL     1      31.086   4.748  35.705  1.00  0.00     0.157 C 
HETATM   43  N8  UNL     1      32.114   3.899  36.206  1.00  0.00    -0.120 NA
HETATM   44  C20 UNL     1      31.366   2.933  37.027  1.00  0.00     0.467 C 
BRANCH  43  45
HETATM   45  O8  UNL     1      32.776   3.178  35.302  1.00  0.00    -0.161 OA
BRANCH  45  46
HETATM   46  S1  UNL     1      34.168   3.849  34.718  1.00  0.00     0.355 S 
HETATM   47  O9  UNL     1      33.837   5.280  34.314  1.00  0.00    -0.179 OA
HETATM   48  O10 UNL     1      35.243   3.968  35.767  1.00  0.00    -0.179 OA
BRANCH  46  49
HETATM   49  N9  UNL     1      34.814   3.071  33.342  1.00  0.00    -0.195 NA
HETATM   50  C18 UNL     1      36.071   2.452  33.715  1.00  0.00     0.131 C 
HETATM   51  C19 UNL     1      35.056   3.949  32.235  1.00  0.00     0.131 C 
ENDBRANCH  46  49
ENDBRANCH  45  46
ENDBRANCH  43  45
BRANCH  44  52
HETATM   52  O11 UNL     1      30.706   2.105  36.090  1.00  0.00    -0.355 OA
ATOM     53  H11 UNL     1      30.270   1.424  36.586  1.00  0.00     0.213 HD
ENDBRANCH  44  52
ENDBRANCH  37  40
ENDBRANCH   5  37
TORSDOF 15
ENDMDL
