MODEL 1
REMARK VINA RESULT: -8.345449850      0.000      0.000
REMARK  14 active torsions:
REMARK  status: ('A' for Active; 'I' for Inactive)
REMARK    1  A    between atoms: C2_2  and  O1_4 
REMARK    2  A    between atoms: C2_2  and  O2_6 
REMARK    3  A    between atoms: O2_6  and  C4_7 
REMARK    4  A    between atoms: C4_7  and  C5_9 
REMARK    5  A    between atoms: C14_21  and  C15_22 
REMARK    6  A    between atoms: C14_21  and  C16_25 
REMARK    7  A    between atoms: C17_30  and  C18_31 
REMARK       I    between atoms: C18_31  and  N1_33 
REMARK    8  A    between atoms: N1_33  and  C19_35 
REMARK    9  A    between atoms: C19_35  and  C20_36 
REMARK   10  A    between atoms: N2_39  and  C21_40 
REMARK   11  A    between atoms: C21_40  and  C22_45 
REMARK   12  A    between atoms: N3_41  and  O15_43 
REMARK   13  A    between atoms: C22_45  and  C23_47 
REMARK   14  A    between atoms: C23_47  and  C24_48 
ROOT
HETATM    1  C5  UNL     1      19.230   7.945  36.981  1.00  0.00     0.399 C 
HETATM    2  O4  UNL     1      18.806   6.630  37.056  1.00  0.00    -0.321 OA
HETATM    3  C6  UNL     1      18.741   5.861  35.976  1.00  0.00     0.208 C 
HETATM    4  C7  UNL     1      19.715   5.984  34.885  1.00  0.00     0.173 C 
HETATM    5  C8  UNL     1      19.118   5.460  33.567  1.00  0.00     0.210 C 
HETATM    6  O5  UNL     1      17.870   5.995  33.321  1.00  0.00    -0.341 OA
HETATM    7  C9  UNL     1      17.299   6.714  32.348  1.00  0.00     0.112 C 
HETATM    8  S1  UNL     1      15.945   6.068  31.606  1.00  0.00    -0.058 SA
HETATM    9  C10 UNL     1      17.669   8.031  31.789  1.00  0.00     0.077 C 
HETATM   10  C11 UNL     1      18.926   8.643  32.247  1.00  0.00     0.007 C 
HETATM   11  C12 UNL     1      18.846   9.558  33.432  1.00  0.00     0.004 C 
HETATM   12  C13 UNL     1      17.602   9.532  34.215  1.00  0.00     0.061 C 
HETATM   13  C14 UNL     1      18.028   9.633  35.742  1.00  0.00     0.241 C 
HETATM   14  O10 UNL     1      18.775   8.597  35.933  1.00  0.00    -0.289 OA
HETATM   15  O11 UNL     1      20.865   5.226  35.200  1.00  0.00    -0.346 OA
HETATM   16  C17 UNL     1      21.303   5.571  36.471  1.00  0.00     0.345 C 
HETATM   17  N2  UNL     1      21.343   6.996  36.579  1.00  0.00    -0.192 N 
HETATM   18  O18 UNL     1      20.640   8.066  36.951  1.00  0.00    -0.196 OA
ENDROOT
BRANCH  17  19
HETATM   19  C21 UNL     1      22.611   7.511  36.142  1.00  0.00     0.197 C 
HETATM   20  N3  UNL     1      23.691   7.574  36.761  1.00  0.00    -0.248 N 
ATOM     21  H3  UNL     1      24.410   7.994  36.171  1.00  0.00     0.196 HD
BRANCH  20  22
HETATM   22  O15 UNL     1      24.193   7.271  37.933  1.00  0.00    -0.288 OA
ATOM     23  H15 UNL     1      24.989   7.396  38.436  1.00  0.00     0.244 HD
ENDBRANCH  20  22
BRANCH  19  24
HETATM   24  C22 UNL     1      22.643   7.998  34.750  1.00  0.00     0.205 C 
HETATM   25  O16 UNL     1      23.073   7.267  33.853  1.00  0.00    -0.289 OA
BRANCH  24  26
HETATM   26  C23 UNL     1      22.157   9.353  34.451  1.00  0.00     0.186 C 
BRANCH  26  27
HETATM   27  C24 UNL     1      23.123  10.436  34.788  1.00  0.00     0.238 C 
HETATM   28  N4  UNL     1      23.072  11.711  34.148  1.00  0.00    -0.062 NA
HETATM   29  O17 UNL     1      24.032  10.279  35.652  1.00  0.00    -0.276 OA
ENDBRANCH  26  27
ENDBRANCH  24  26
ENDBRANCH  19  24
ENDBRANCH  17  19
BRANCH  16  30
HETATM   30  C18 UNL     1      22.588   4.868  36.716  1.00  0.00     0.269 C 
HETATM   31  O12 UNL     1      23.045   4.814  37.882  1.00  0.00    -0.268 OA
HETATM   32  N1  UNL     1      23.354   4.242  35.697  1.00  0.00    -0.347 N 
ATOM     33  H1  UNL     1      23.034   4.245  34.728  1.00  0.00     0.163 HD
BRANCH  32  34
HETATM   34  C19 UNL     1      24.594   3.601  36.062  1.00  0.00     0.235 C 
BRANCH  34  35
HETATM   35  C20 UNL     1      24.864   2.359  35.323  1.00  0.00     0.191 C 
HETATM   36  O13 UNL     1      24.118   1.973  34.404  1.00  0.00    -0.647 OA
HETATM   37  O14 UNL     1      25.972   1.605  35.662  1.00  0.00    -0.647 OA
ENDBRANCH  34  35
ENDBRANCH  32  34
ENDBRANCH  16  30
BRANCH   1  38
HETATM   38  C4  UNL     1      18.958   8.479  38.351  1.00  0.00     0.358 C 
HETATM   39  O3  UNL     1      19.701   8.172  39.356  1.00  0.00    -0.256 OA
BRANCH  38  40
HETATM   40  O2  UNL     1      17.925   9.330  38.674  1.00  0.00    -0.278 OA
BRANCH  40  41
HETATM   41  C2  UNL     1      18.062  10.368  39.626  1.00  0.00     0.163 C 
HETATM   42  C1  UNL     1      16.657  10.914  39.867  1.00  0.00     0.078 C 
HETATM   43  C3  UNL     1      18.572   9.810  40.939  1.00  0.00     0.078 C 
BRANCH  41  44
HETATM   44  O1  UNL     1      18.929  11.368  39.245  1.00  0.00    -0.365 OA
ATOM     45  H1  UNL     1      19.282  11.206  38.378  1.00  0.00     0.213 HD
ENDBRANCH  41  44
ENDBRANCH  40  41
ENDBRANCH  38  40
ENDBRANCH   1  38
BRANCH  13  46
HETATM   46  C15 UNL     1      18.842  10.904  35.707  1.00  0.00     0.221 C 
HETATM   47  O6  UNL     1      19.602  11.295  36.590  1.00  0.00    -0.645 OA
HETATM   48  O7  UNL     1      18.698  11.690  34.551  1.00  0.00    -0.645 OA
ENDBRANCH  13  46
BRANCH  13  49
HETATM   49  C16 UNL     1      16.733   9.830  36.387  1.00  0.00     0.221 C 
HETATM   50  O8  UNL     1      16.275  10.944  36.696  1.00  0.00    -0.645 OA
HETATM   51  O9  UNL     1      15.945   8.727  36.680  1.00  0.00    -0.645 OA
ENDBRANCH  13  49
TORSDOF 14
ENDMDL
MODEL 2
REMARK VINA RESULT: -8.150612001      0.847      1.297
REMARK  14 active torsions:
REMARK  status: ('A' for Active; 'I' for Inactive)
REMARK    1  A    between atoms: C2_2  and  O1_4 
REMARK    2  A    between atoms: C2_2  and  O2_6 
REMARK    3  A    between atoms: O2_6  and  C4_7 
REMARK    4  A    between atoms: C4_7  and  C5_9 
REMARK    5  A    between atoms: C14_21  and  C15_22 
REMARK    6  A    between atoms: C14_21  and  C16_25 
REMARK    7  A    between atoms: C17_30  and  C18_31 
REMARK       I    between atoms: C18_31  and  N1_33 
REMARK    8  A    between atoms: N1_33  and  C19_35 
REMARK    9  A    between atoms: C19_35  and  C20_36 
REMARK   10  A    between atoms: N2_39  and  C21_40 
REMARK   11  A    between atoms: C21_40  and  C22_45 
REMARK   12  A    between atoms: N3_41  and  O15_43 
REMARK   13  A    between atoms: C22_45  and  C23_47 
REMARK   14  A    between atoms: C23_47  and  C24_48 
ROOT
HETATM    1  C5  UNL     1      19.281   7.924  37.081  1.00  0.00     0.399 C 
HETATM    2  O4  UNL     1      18.847   6.610  37.042  1.00  0.00    -0.321 OA
HETATM    3  C6  UNL     1      18.769   5.941  35.898  1.00  0.00     0.208 C 
HETATM    4  C7  UNL     1      19.738   6.154  34.815  1.00  0.00     0.173 C 
HETATM    5  C8  UNL     1      19.128   5.754  33.461  1.00  0.00     0.210 C 
HETATM    6  O5  UNL     1      17.883   6.317  33.271  1.00  0.00    -0.341 OA
HETATM    7  C9  UNL     1      17.312   7.123  32.370  1.00  0.00     0.112 C 
HETATM    8  S1  UNL     1      15.948   6.556  31.583  1.00  0.00    -0.058 SA
HETATM    9  C10 UNL     1      17.689   8.482  31.927  1.00  0.00     0.077 C 
HETATM   10  C11 UNL     1      18.953   9.042  32.430  1.00  0.00     0.007 C 
HETATM   11  C12 UNL     1      18.887   9.848  33.692  1.00  0.00     0.004 C 
HETATM   12  C13 UNL     1      17.648   9.763  34.478  1.00  0.00     0.061 C 
HETATM   13  C14 UNL     1      18.085   9.724  36.005  1.00  0.00     0.241 C 
HETATM   14  O10 UNL     1      18.825   8.670  36.098  1.00  0.00    -0.289 OA
HETATM   15  O11 UNL     1      20.883   5.363  35.053  1.00  0.00    -0.346 OA
HETATM   16  C17 UNL     1      21.332   5.589  36.347  1.00  0.00     0.345 C 
HETATM   17  N2  UNL     1      21.384   7.000  36.581  1.00  0.00    -0.192 N 
HETATM   18  O18 UNL     1      20.691   8.037  37.051  1.00  0.00    -0.196 OA
ENDROOT
BRANCH  17  19
HETATM   19  C21 UNL     1      22.653   7.542  36.183  1.00  0.00     0.197 C 
HETATM   20  N3  UNL     1      23.716   7.617  36.830  1.00  0.00    -0.248 N 
ATOM     21  H3  UNL     1      24.441   8.057  36.264  1.00  0.00     0.196 HD
BRANCH  20  22
HETATM   22  O15 UNL     1      24.193   7.308  38.011  1.00  0.00    -0.288 OA
ATOM     23  H15 UNL     1      24.503   6.551  38.493  1.00  0.00     0.244 HD
ENDBRANCH  20  22
BRANCH  19  24
HETATM   24  C22 UNL     1      22.711   8.046  34.798  1.00  0.00     0.205 C 
HETATM   25  O16 UNL     1      23.099   7.305  33.890  1.00  0.00    -0.289 OA
BRANCH  24  26
HETATM   26  C23 UNL     1      22.304   9.431  34.519  1.00  0.00     0.186 C 
BRANCH  26  27
HETATM   27  C24 UNL     1      23.362  10.445  34.789  1.00  0.00     0.238 C 
HETATM   28  N4  UNL     1      23.392  11.696  34.103  1.00  0.00    -0.062 NA
HETATM   29  O17 UNL     1      24.281  10.247  35.634  1.00  0.00    -0.276 OA
ENDBRANCH  26  27
ENDBRANCH  24  26
ENDBRANCH  19  24
ENDBRANCH  17  19
BRANCH  16  30
HETATM   30  C18 UNL     1      22.613   4.859  36.520  1.00  0.00     0.269 C 
HETATM   31  O12 UNL     1      23.076   4.695  37.674  1.00  0.00    -0.268 OA
HETATM   32  N1  UNL     1      23.370   4.323  35.444  1.00  0.00    -0.347 N 
ATOM     33  H1  UNL     1      23.046   4.417  34.481  1.00  0.00     0.163 HD
BRANCH  32  34
HETATM   34  C19 UNL     1      24.607   3.643  35.742  1.00  0.00     0.235 C 
BRANCH  34  35
HETATM   35  C20 UNL     1      24.717   2.311  35.130  1.00  0.00     0.191 C 
HETATM   36  O13 UNL     1      25.715   1.590  35.315  1.00  0.00    -0.647 OA
HETATM   37  O14 UNL     1      23.685   1.853  34.333  1.00  0.00    -0.647 OA
ENDBRANCH  34  35
ENDBRANCH  32  34
ENDBRANCH  16  30
BRANCH   1  38
HETATM   38  C4  UNL     1      19.021   8.336  38.495  1.00  0.00     0.358 C 
HETATM   39  O3  UNL     1      18.505   9.480  38.781  1.00  0.00    -0.256 OA
BRANCH  38  40
HETATM   40  O2  UNL     1      19.292   7.565  39.602  1.00  0.00    -0.278 OA
BRANCH  40  41
HETATM   41  C2  UNL     1      20.034   8.050  40.705  1.00  0.00     0.163 C 
HETATM   42  C1  UNL     1      19.419   7.411  41.948  1.00  0.00     0.078 C 
HETATM   43  C3  UNL     1      21.473   7.588  40.613  1.00  0.00     0.078 C 
BRANCH  41  44
HETATM   44  O1  UNL     1      20.053   9.424  40.808  1.00  0.00    -0.365 OA
ATOM     45  H1  UNL     1      19.786   9.834  39.994  1.00  0.00     0.213 HD
ENDBRANCH  41  44
ENDBRANCH  40  41
ENDBRANCH  38  40
ENDBRANCH   1  38
BRANCH  13  46
HETATM   46  C15 UNL     1      18.908  10.987  36.077  1.00  0.00     0.221 C 
HETATM   47  O6  UNL     1      19.284  11.542  37.107  1.00  0.00    -0.645 OA
HETATM   48  O7  UNL     1      19.261  11.557  34.842  1.00  0.00    -0.645 OA
ENDBRANCH  13  46
BRANCH  13  49
HETATM   49  C16 UNL     1      16.795   9.872  36.673  1.00  0.00     0.221 C 
HETATM   50  O8  UNL     1      16.394  10.936  37.177  1.00  0.00    -0.645 OA
HETATM   51  O9  UNL     1      15.947   8.779  36.764  1.00  0.00    -0.645 OA
ENDBRANCH  13  49
TORSDOF 14
ENDMDL
MODEL 3
REMARK VINA RESULT: -7.899416612      1.381      1.927
REMARK  14 active torsions:
REMARK  status: ('A' for Active; 'I' for Inactive)
REMARK    1  A    between atoms: C2_2  and  O1_4 
REMARK    2  A    between atoms: C2_2  and  O2_6 
REMARK    3  A    between atoms: O2_6  and  C4_7 
REMARK    4  A    between atoms: C4_7  and  C5_9 
REMARK    5  A    between atoms: C14_21  and  C15_22 
REMARK    6  A    between atoms: C14_21  and  C16_25 
REMARK    7  A    between atoms: C17_30  and  C18_31 
REMARK       I    between atoms: C18_31  and  N1_33 
REMARK    8  A    between atoms: N1_33  and  C19_35 
REMARK    9  A    between atoms: C19_35  and  C20_36 
REMARK   10  A    between atoms: N2_39  and  C21_40 
REMARK   11  A    between atoms: C21_40  and  C22_45 
REMARK   12  A    between atoms: N3_41  and  O15_43 
REMARK   13  A    between atoms: C22_45  and  C23_47 
REMARK   14  A    between atoms: C23_47  and  C24_48 
ROOT
HETATM    1  C5  UNL     1      19.262   7.987  37.000  1.00  0.00     0.399 C 
HETATM    2  O4  UNL     1      18.847   6.670  36.903  1.00  0.00    -0.321 OA
HETATM    3  C6  UNL     1      18.780   6.051  35.730  1.00  0.00     0.208 C 
HETATM    4  C7  UNL     1      19.745   6.325  34.659  1.00  0.00     0.173 C 
HETATM    5  C8  UNL     1      19.142   5.977  33.288  1.00  0.00     0.210 C 
HETATM    6  O5  UNL     1      17.889   6.530  33.122  1.00  0.00    -0.341 OA
HETATM    7  C9  UNL     1      17.307   7.367  32.257  1.00  0.00     0.112 C 
HETATM    8  S1  UNL     1      15.951   6.815  31.445  1.00  0.00    -0.058 SA
HETATM    9  C10 UNL     1      17.664   8.749  31.875  1.00  0.00     0.077 C 
HETATM   10  C11 UNL     1      18.920   9.305  32.403  1.00  0.00     0.007 C 
HETATM   11  C12 UNL     1      18.842  10.053  33.699  1.00  0.00     0.004 C 
HETATM   12  C13 UNL     1      17.604   9.915  34.479  1.00  0.00     0.061 C 
HETATM   13  C14 UNL     1      18.040   9.816  36.004  1.00  0.00     0.241 C 
HETATM   14  O10 UNL     1      18.795   8.769  36.051  1.00  0.00    -0.289 OA
HETATM   15  O11 UNL     1      20.902   5.541  34.863  1.00  0.00    -0.346 OA
HETATM   16  C17 UNL     1      21.347   5.717  36.166  1.00  0.00     0.345 C 
HETATM   17  N2  UNL     1      21.378   7.116  36.462  1.00  0.00    -0.192 N 
HETATM   18  O18 UNL     1      20.671   8.121  36.977  1.00  0.00    -0.196 OA
ENDROOT
BRANCH  17  19
HETATM   19  C21 UNL     1      22.640   7.694  36.089  1.00  0.00     0.197 C 
HETATM   20  N3  UNL     1      23.716   7.707  36.717  1.00  0.00    -0.248 N 
ATOM     21  H3  UNL     1      24.430   8.199  36.179  1.00  0.00     0.196 HD
BRANCH  20  22
HETATM   22  O15 UNL     1      24.219   7.288  37.853  1.00  0.00    -0.288 OA
ATOM     23  H15 UNL     1      25.042   7.288  38.326  1.00  0.00     0.244 HD
ENDBRANCH  20  22
BRANCH  19  24
HETATM   24  C22 UNL     1      22.669   8.328  34.758  1.00  0.00     0.205 C 
HETATM   25  O16 UNL     1      23.037   7.677  33.776  1.00  0.00    -0.289 OA
BRANCH  24  26
HETATM   26  C23 UNL     1      22.255   9.732  34.620  1.00  0.00     0.186 C 
BRANCH  26  27
HETATM   27  C24 UNL     1      23.377  10.709  34.699  1.00  0.00     0.238 C 
HETATM   28  N4  UNL     1      24.454  10.540  35.621  1.00  0.00    -0.062 NA
HETATM   29  O17 UNL     1      23.431  11.731  33.956  1.00  0.00    -0.276 OA
ENDBRANCH  26  27
ENDBRANCH  24  26
ENDBRANCH  19  24
ENDBRANCH  17  19
BRANCH  16  30
HETATM   30  C18 UNL     1      22.638   4.998  36.308  1.00  0.00     0.269 C 
HETATM   31  O12 UNL     1      23.339   4.786  35.290  1.00  0.00    -0.268 OA
HETATM   32  N1  UNL     1      23.146   4.519  37.546  1.00  0.00    -0.347 N 
ATOM     33  H1  UNL     1      22.627   4.664  38.412  1.00  0.00     0.163 HD
BRANCH  32  34
HETATM   34  C19 UNL     1      24.410   3.823  37.550  1.00  0.00     0.235 C 
BRANCH  34  35
HETATM   35  C20 UNL     1      25.368   4.334  38.541  1.00  0.00     0.191 C 
HETATM   36  O13 UNL     1      24.988   4.887  39.589  1.00  0.00    -0.647 OA
HETATM   37  O14 UNL     1      26.722   4.194  38.297  1.00  0.00    -0.647 OA
ENDBRANCH  34  35
ENDBRANCH  32  34
ENDBRANCH  16  30
BRANCH   1  38
HETATM   38  C4  UNL     1      18.996   8.333  38.430  1.00  0.00     0.358 C 
HETATM   39  O3  UNL     1      18.490   9.467  38.769  1.00  0.00    -0.256 OA
BRANCH  38  40
HETATM   40  O2  UNL     1      19.249   7.505  39.501  1.00  0.00    -0.278 OA
BRANCH  40  41
HETATM   41  C2  UNL     1      20.116   7.871  40.558  1.00  0.00     0.163 C 
HETATM   42  C1  UNL     1      19.515   7.274  41.829  1.00  0.00     0.078 C 
HETATM   43  C3  UNL     1      21.481   7.247  40.357  1.00  0.00     0.078 C 
BRANCH  41  44
HETATM   44  O1  UNL     1      20.304   9.230  40.685  1.00  0.00    -0.365 OA
ATOM     45  H1  UNL     1      19.556   9.714  40.355  1.00  0.00     0.213 HD
ENDBRANCH  41  44
ENDBRANCH  40  41
ENDBRANCH  38  40
ENDBRANCH   1  38
BRANCH  13  46
HETATM   46  C15 UNL     1      18.845  11.086  36.132  1.00  0.00     0.221 C 
HETATM   47  O6  UNL     1      19.240  11.582  37.185  1.00  0.00    -0.645 OA
HETATM   48  O7  UNL     1      19.155  11.737  34.927  1.00  0.00    -0.645 OA
ENDBRANCH  13  46
BRANCH  13  49
HETATM   49  C16 UNL     1      16.748   9.915  36.677  1.00  0.00     0.221 C 
HETATM   50  O8  UNL     1      15.951   8.968  36.788  1.00  0.00    -0.645 OA
HETATM   51  O9  UNL     1      16.364  11.125  37.235  1.00  0.00    -0.645 OA
ENDBRANCH  13  49
TORSDOF 14
ENDMDL
MODEL 4
REMARK VINA RESULT: -6.944661768      1.269      2.267
REMARK  14 active torsions:
REMARK  status: ('A' for Active; 'I' for Inactive)
REMARK    1  A    between atoms: C2_2  and  O1_4 
REMARK    2  A    between atoms: C2_2  and  O2_6 
REMARK    3  A    between atoms: O2_6  and  C4_7 
REMARK    4  A    between atoms: C4_7  and  C5_9 
REMARK    5  A    between atoms: C14_21  and  C15_22 
REMARK    6  A    between atoms: C14_21  and  C16_25 
REMARK    7  A    between atoms: C17_30  and  C18_31 
REMARK       I    between atoms: C18_31  and  N1_33 
REMARK    8  A    between atoms: N1_33  and  C19_35 
REMARK    9  A    between atoms: C19_35  and  C20_36 
REMARK   10  A    between atoms: N2_39  and  C21_40 
REMARK   11  A    between atoms: C21_40  and  C22_45 
REMARK   12  A    between atoms: N3_41  and  O15_43 
REMARK   13  A    between atoms: C22_45  and  C23_47 
REMARK   14  A    between atoms: C23_47  and  C24_48 
ROOT
HETATM    1  C5  UNL     1      19.275   7.818  36.843  1.00  0.00     0.399 C 
HETATM    2  O4  UNL     1      18.690   6.567  36.744  1.00  0.00    -0.321 OA
HETATM    3  C6  UNL     1      18.562   5.954  35.574  1.00  0.00     0.208 C 
HETATM    4  C7  UNL     1      19.576   6.088  34.521  1.00  0.00     0.173 C 
HETATM    5  C8  UNL     1      18.959   5.812  33.139  1.00  0.00     0.210 C 
HETATM    6  O5  UNL     1      17.794   6.527  32.945  1.00  0.00    -0.341 OA
HETATM    7  C9  UNL     1      17.346   7.428  32.064  1.00  0.00     0.112 C 
HETATM    8  S1  UNL     1      15.945   7.056  31.227  1.00  0.00    -0.058 SA
HETATM    9  C10 UNL     1      17.893   8.747  31.683  1.00  0.00     0.077 C 
HETATM   10  C11 UNL     1      19.201   9.133  32.233  1.00  0.00     0.007 C 
HETATM   11  C12 UNL     1      19.199   9.896  33.524  1.00  0.00     0.004 C 
HETATM   12  C13 UNL     1      17.939   9.930  34.279  1.00  0.00     0.061 C 
HETATM   13  C14 UNL     1      18.328   9.785  35.813  1.00  0.00     0.241 C 
HETATM   14  O10 UNL     1      18.936   8.647  35.881  1.00  0.00    -0.289 OA
HETATM   15  O11 UNL     1      20.614   5.158  34.752  1.00  0.00    -0.346 OA
HETATM   16  C17 UNL     1      21.053   5.283  36.063  1.00  0.00     0.345 C 
HETATM   17  N2  UNL     1      21.266   6.667  36.353  1.00  0.00    -0.192 N 
HETATM   18  O18 UNL     1      20.689   7.762  36.848  1.00  0.00    -0.196 OA
ENDROOT
BRANCH  17  19
HETATM   19  C21 UNL     1      22.600   7.068  36.003  1.00  0.00     0.197 C 
HETATM   20  N3  UNL     1      23.085   7.292  34.877  1.00  0.00    -0.248 N 
ATOM     21  H3  UNL     1      24.066   7.560  34.964  1.00  0.00     0.196 HD
BRANCH  20  22
HETATM   22  O15 UNL     1      22.730   7.292  33.615  1.00  0.00    -0.288 OA
ATOM     23  H15 UNL     1      22.838   7.816  32.831  1.00  0.00     0.244 HD
ENDBRANCH  20  22
BRANCH  19  24
HETATM   24  C22 UNL     1      23.511   7.276  37.144  1.00  0.00     0.205 C 
HETATM   25  O16 UNL     1      24.574   7.881  36.979  1.00  0.00    -0.289 OA
BRANCH  24  26
HETATM   26  C23 UNL     1      23.135   6.759  38.469  1.00  0.00     0.186 C 
BRANCH  26  27
HETATM   27  C24 UNL     1      24.257   6.128  39.218  1.00  0.00     0.238 C 
HETATM   28  N4  UNL     1      24.804   6.728  40.392  1.00  0.00    -0.062 NA
HETATM   29  O17 UNL     1      24.778   5.035  38.852  1.00  0.00    -0.276 OA
ENDBRANCH  26  27
ENDBRANCH  24  26
ENDBRANCH  19  24
ENDBRANCH  17  19
BRANCH  16  30
HETATM   30  C18 UNL     1      22.233   4.398  36.235  1.00  0.00     0.269 C 
HETATM   31  O12 UNL     1      22.346   3.721  37.284  1.00  0.00    -0.268 OA
HETATM   32  N1  UNL     1      23.270   4.267  35.272  1.00  0.00    -0.347 N 
ATOM     33  H1  UNL     1      23.235   4.786  34.395  1.00  0.00     0.163 HD
BRANCH  32  34
HETATM   34  C19 UNL     1      24.372   3.382  35.562  1.00  0.00     0.235 C 
BRANCH  34  35
HETATM   35  C20 UNL     1      24.322   2.107  34.832  1.00  0.00     0.191 C 
HETATM   36  O13 UNL     1      23.290   1.733  34.247  1.00  0.00    -0.647 OA
HETATM   37  O14 UNL     1      25.451   1.311  34.798  1.00  0.00    -0.647 OA
ENDBRANCH  34  35
ENDBRANCH  32  34
ENDBRANCH  16  30
BRANCH   1  38
HETATM   38  C4  UNL     1      19.030   8.207  38.266  1.00  0.00     0.358 C 
HETATM   39  O3  UNL     1      19.756   7.750  39.226  1.00  0.00    -0.256 OA
BRANCH  38  40
HETATM   40  O2  UNL     1      18.042   9.067  38.688  1.00  0.00    -0.278 OA
BRANCH  40  41
HETATM   41  C2  UNL     1      18.256  10.036  39.697  1.00  0.00     0.163 C 
HETATM   42  C1  UNL     1      16.872  10.458  40.184  1.00  0.00     0.078 C 
HETATM   43  C3  UNL     1      18.989   9.419  40.870  1.00  0.00     0.078 C 
BRANCH  41  44
HETATM   44  O1  UNL     1      18.993  11.124  39.283  1.00  0.00    -0.365 OA
ATOM     45  H1  UNL     1      19.304  11.631  40.024  1.00  0.00     0.213 HD
ENDBRANCH  41  44
ENDBRANCH  40  41
ENDBRANCH  38  40
ENDBRANCH   1  38
BRANCH  13  46
HETATM   46  C15 UNL     1      19.294  10.937  35.951  1.00  0.00     0.221 C 
HETATM   47  O6  UNL     1      19.083  11.981  36.565  1.00  0.00    -0.645 OA
HETATM   48  O7  UNL     1      20.534  10.775  35.311  1.00  0.00    -0.645 OA
ENDBRANCH  13  46
BRANCH  13  49
HETATM   49  C16 UNL     1      17.048  10.062  36.459  1.00  0.00     0.221 C 
HETATM   50  O8  UNL     1      16.113   9.246  36.520  1.00  0.00    -0.645 OA
HETATM   51  O9  UNL     1      16.838  11.299  37.049  1.00  0.00    -0.645 OA
ENDBRANCH  13  49
TORSDOF 14
ENDMDL
MODEL 5
REMARK VINA RESULT: -6.681305986      0.875      1.449
REMARK  14 active torsions:
REMARK  status: ('A' for Active; 'I' for Inactive)
REMARK    1  A    between atoms: C2_2  and  O1_4 
REMARK    2  A    between atoms: C2_2  and  O2_6 
REMARK    3  A    between atoms: O2_6  and  C4_7 
REMARK    4  A    between atoms: C4_7  and  C5_9 
REMARK    5  A    between atoms: C14_21  and  C15_22 
REMARK    6  A    between atoms: C14_21  and  C16_25 
REMARK    7  A    between atoms: C17_30  and  C18_31 
REMARK       I    between atoms: C18_31  and  N1_33 
REMARK    8  A    between atoms: N1_33  and  C19_35 
REMARK    9  A    between atoms: C19_35  and  C20_36 
REMARK   10  A    between atoms: N2_39  and  C21_40 
REMARK   11  A    between atoms: C21_40  and  C22_45 
REMARK   12  A    between atoms: N3_41  and  O15_43 
REMARK   13  A    between atoms: C22_45  and  C23_47 
REMARK   14  A    between atoms: C23_47  and  C24_48 
ROOT
HETATM    1  C5  UNL     1      19.348   7.916  36.594  1.00  0.00     0.399 C 
HETATM    2  O4  UNL     1      18.916   6.605  36.694  1.00  0.00    -0.321 OA
HETATM    3  C6  UNL     1      18.824   5.822  35.625  1.00  0.00     0.208 C 
HETATM    4  C7  UNL     1      19.778   5.925  34.514  1.00  0.00     0.173 C 
HETATM    5  C8  UNL     1      19.151   5.389  33.215  1.00  0.00     0.210 C 
HETATM    6  O5  UNL     1      17.903   5.930  32.986  1.00  0.00    -0.341 OA
HETATM    7  C9  UNL     1      17.318   6.640  32.015  1.00  0.00     0.112 C 
HETATM    8  S1  UNL     1      15.945   5.995  31.309  1.00  0.00    -0.058 SA
HETATM    9  C10 UNL     1      17.686   7.947  31.432  1.00  0.00     0.077 C 
HETATM   10  C11 UNL     1      18.956   8.556  31.858  1.00  0.00     0.007 C 
HETATM   11  C12 UNL     1      18.906   9.486  33.033  1.00  0.00     0.004 C 
HETATM   12  C13 UNL     1      17.677   9.480  33.840  1.00  0.00     0.061 C 
HETATM   13  C14 UNL     1      18.134   9.597  35.357  1.00  0.00     0.241 C 
HETATM   14  O10 UNL     1      18.877   8.558  35.547  1.00  0.00    -0.289 OA
HETATM   15  O11 UNL     1      20.928   5.163  34.816  1.00  0.00    -0.346 OA
HETATM   16  C17 UNL     1      21.393   5.520  36.074  1.00  0.00     0.345 C 
HETATM   17  N2  UNL     1      21.446   6.947  36.163  1.00  0.00    -0.192 N 
HETATM   18  O18 UNL     1      20.757   8.026  36.535  1.00  0.00    -0.196 OA
ENDROOT
BRANCH  17  19
HETATM   19  C21 UNL     1      22.709   7.446  35.695  1.00  0.00     0.197 C 
HETATM   20  N3  UNL     1      23.122   7.570  34.526  1.00  0.00    -0.248 N 
ATOM     21  H3  UNL     1      24.066   7.958  34.526  1.00  0.00     0.196 HD
BRANCH  20  22
HETATM   22  O15 UNL     1      22.724   7.358  33.295  1.00  0.00    -0.288 OA
ATOM     23  H15 UNL     1      22.799   7.746  32.431  1.00  0.00     0.244 HD
ENDBRANCH  20  22
BRANCH  19  24
HETATM   24  C22 UNL     1      23.628   7.910  36.751  1.00  0.00     0.205 C 
HETATM   25  O16 UNL     1      23.471   7.527  37.913  1.00  0.00    -0.289 OA
BRANCH  24  26
HETATM   26  C23 UNL     1      24.724   8.826  36.399  1.00  0.00     0.186 C 
BRANCH  26  27
HETATM   27  C24 UNL     1      24.278  10.089  35.747  1.00  0.00     0.238 C 
HETATM   28  N4  UNL     1      25.214  11.052  35.262  1.00  0.00    -0.062 NA
HETATM   29  O17 UNL     1      23.055  10.369  35.593  1.00  0.00    -0.276 OA
ENDBRANCH  26  27
ENDBRANCH  24  26
ENDBRANCH  19  24
ENDBRANCH  17  19
BRANCH  16  30
HETATM   30  C18 UNL     1      22.678   4.811  36.303  1.00  0.00     0.269 C 
HETATM   31  O12 UNL     1      23.060   4.596  37.478  1.00  0.00    -0.268 OA
HETATM   32  N1  UNL     1      23.526   4.353  35.259  1.00  0.00    -0.347 N 
ATOM     33  H1  UNL     1      23.270   4.491  34.282  1.00  0.00     0.163 HD
BRANCH  32  34
HETATM   34  C19 UNL     1      24.756   3.687  35.612  1.00  0.00     0.235 C 
BRANCH  34  35
HETATM   35  C20 UNL     1      24.851   2.306  35.117  1.00  0.00     0.191 C 
HETATM   36  O13 UNL     1      24.128   1.896  34.190  1.00  0.00    -0.647 OA
HETATM   37  O14 UNL     1      25.766   1.448  35.697  1.00  0.00    -0.647 OA
ENDBRANCH  34  35
ENDBRANCH  32  34
ENDBRANCH  16  30
BRANCH   1  38
HETATM   38  C4  UNL     1      19.106   8.469  37.962  1.00  0.00     0.358 C 
HETATM   39  O3  UNL     1      19.787   8.074  38.981  1.00  0.00    -0.256 OA
BRANCH  38  40
HETATM   40  O2  UNL     1      18.167   9.428  38.269  1.00  0.00    -0.278 OA
BRANCH  40  41
HETATM   41  C2  UNL     1      18.288  10.278  39.394  1.00  0.00     0.163 C 
HETATM   42  C1  UNL     1      18.547  11.679  38.845  1.00  0.00     0.078 C 
HETATM   43  C3  UNL     1      16.983  10.318  40.163  1.00  0.00     0.078 C 
BRANCH  41  44
HETATM   44  O1  UNL     1      19.272   9.900  40.281  1.00  0.00    -0.365 OA
ATOM     45  H1  UNL     1      19.988   9.464  39.835  1.00  0.00     0.213 HD
ENDBRANCH  41  44
ENDBRANCH  40  41
ENDBRANCH  38  40
ENDBRANCH   1  38
BRANCH  13  46
HETATM   46  C15 UNL     1      18.956  10.861  35.290  1.00  0.00     0.221 C 
HETATM   47  O6  UNL     1      19.873  11.162  36.050  1.00  0.00    -0.645 OA
HETATM   48  O7  UNL     1      18.619  11.754  34.259  1.00  0.00    -0.645 OA
ENDBRANCH  13  46
BRANCH  13  49
HETATM   49  C16 UNL     1      16.852   9.811  36.024  1.00  0.00     0.221 C 
HETATM   50  O8  UNL     1      16.084   8.893  36.359  1.00  0.00    -0.645 OA
HETATM   51  O9  UNL     1      16.445  11.104  36.315  1.00  0.00    -0.645 OA
ENDBRANCH  13  49
TORSDOF 14
ENDMDL
