MODEL 1
REMARK VINA RESULT: -4.528651897      0.000      0.000
REMARK  1 active torsions:
REMARK  status: ('A' for Active; 'I' for Inactive)
REMARK       I    between atoms: C2_2  and  N1_4 
REMARK    1  A    between atoms: N5_13  and  N6_15 
ROOT
HETATM    1  C1  UNL     1      52.511  59.676  68.472  1.00  0.00     0.119 C 
HETATM    2  C2  UNL     1      51.486  58.644  68.587  1.00  0.00     0.244 C 
HETATM    3  O1  UNL     1      50.575  58.786  69.444  1.00  0.00    -0.272 OA
HETATM    4  N1  UNL     1      51.435  57.468  67.788  1.00  0.00    -0.060 N 
HETATM    5  C3  UNL     1      52.421  57.201  66.780  1.00  0.00     0.361 C 
HETATM    6  O2  UNL     1      53.344  58.001  66.586  1.00  0.00    -0.244 OA
HETATM    7  N2  UNL     1      52.332  55.999  65.995  1.00  0.00    -0.234 N 
ATOM      8  H2  UNL     1      53.150  55.643  65.502  1.00  0.00     0.189 HD
HETATM    9  N3  UNL     1      51.109  55.326  65.917  1.00  0.00    -0.004 NA
HETATM   10  N4  UNL     1      50.411  55.332  67.116  1.00  0.00    -0.114 N 
ATOM     11  H4  UNL     1      49.892  54.504  67.409  1.00  0.00     0.203 HD
HETATM   12  C4  UNL     1      50.419  56.490  67.933  1.00  0.00     0.722 C 
HETATM   13  N5  UNL     1      49.503  56.675  68.824  1.00  0.00    -0.137 N 
ATOM     14  H5  UNL     1      49.541  57.520  69.395  1.00  0.00     0.205 HD
ENDROOT
BRANCH  13  15
HETATM   15  N6  UNL     1      48.471  55.777  69.040  1.00  0.00    -0.331 N 
ATOM     16  H62 UNL     1      47.812  55.989  69.789  1.00  0.00     0.177 HD
ATOM     17  H61 UNL     1      48.350  54.928  68.486  1.00  0.00     0.177 HD
ENDBRANCH  13  15
TORSDOF 1
ENDMDL
MODEL 2
REMARK VINA RESULT: -4.385522616      1.671      2.976
REMARK  1 active torsions:
REMARK  status: ('A' for Active; 'I' for Inactive)
REMARK       I    between atoms: C2_2  and  N1_4 
REMARK    1  A    between atoms: N5_13  and  N6_15 
ROOT
HETATM    1  C1  UNL     1      53.747  56.606  65.727  1.00  0.00     0.119 C 
HETATM    2  C2  UNL     1      52.885  57.309  66.672  1.00  0.00     0.244 C 
HETATM    3  O1  UNL     1      53.178  58.487  67.001  1.00  0.00    -0.272 OA
HETATM    4  N1  UNL     1      51.713  56.753  67.258  1.00  0.00    -0.060 N 
HETATM    5  C3  UNL     1      51.282  55.418  66.956  1.00  0.00     0.361 C 
HETATM    6  O2  UNL     1      51.931  54.719  66.169  1.00  0.00    -0.244 OA
HETATM    7  N2  UNL     1      50.092  54.896  67.571  1.00  0.00    -0.234 N 
ATOM      8  H2  UNL     1      49.932  53.889  67.614  1.00  0.00     0.189 HD
HETATM    9  N3  UNL     1      49.157  55.784  68.108  1.00  0.00    -0.004 NA
HETATM   10  N4  UNL     1      49.744  56.876  68.732  1.00  0.00    -0.114 N 
ATOM     11  H4  UNL     1      49.344  57.249  69.593  1.00  0.00     0.203 HD
HETATM   12  C4  UNL     1      50.901  57.472  68.171  1.00  0.00     0.722 C 
HETATM   13  N5  UNL     1      51.239  58.679  68.482  1.00  0.00    -0.137 N 
ATOM     14  H5  UNL     1      52.078  59.075  68.059  1.00  0.00     0.205 HD
ENDROOT
BRANCH  13  15
HETATM   15  N6  UNL     1      50.510  59.460  69.364  1.00  0.00    -0.331 N 
ATOM     16  H62 UNL     1      50.210  59.028  70.238  1.00  0.00     0.177 HD
ATOM     17  H61 UNL     1      50.268  60.433  69.173  1.00  0.00     0.177 HD
ENDBRANCH  13  15
TORSDOF 1
ENDMDL
MODEL 3
REMARK VINA RESULT: -4.250041702      1.963      3.229
REMARK  1 active torsions:
REMARK  status: ('A' for Active; 'I' for Inactive)
REMARK       I    between atoms: C2_2  and  N1_4 
REMARK    1  A    between atoms: N5_13  and  N6_15 
ROOT
HETATM    1  C1  UNL     1      53.110  55.140  65.080  1.00  0.00     0.119 C 
HETATM    2  C2  UNL     1      51.938  55.438  65.898  1.00  0.00     0.244 C 
HETATM    3  O1  UNL     1      50.950  54.662  65.851  1.00  0.00    -0.272 OA
HETATM    4  N1  UNL     1      51.828  56.562  66.765  1.00  0.00    -0.060 N 
HETATM    5  C3  UNL     1      52.893  57.515  66.899  1.00  0.00     0.361 C 
HETATM    6  O2  UNL     1      53.939  57.372  66.255  1.00  0.00    -0.244 OA
HETATM    7  N2  UNL     1      52.739  58.636  67.786  1.00  0.00    -0.234 N 
ATOM      8  H2  UNL     1      53.327  59.463  67.679  1.00  0.00     0.189 HD
HETATM    9  N3  UNL     1      51.774  58.580  68.795  1.00  0.00    -0.004 NA
HETATM   10  N4  UNL     1      50.605  57.949  68.391  1.00  0.00    -0.114 N 
ATOM     11  H4  UNL     1      49.701  58.302  68.703  1.00  0.00     0.203 HD
HETATM   12  C4  UNL     1      50.671  56.815  67.544  1.00  0.00     0.722 C 
HETATM   13  N5  UNL     1      49.679  55.992  67.465  1.00  0.00    -0.137 N 
ATOM     14  H5  UNL     1      49.762  55.186  66.844  1.00  0.00     0.205 HD
ENDROOT
BRANCH  13  15
HETATM   15  N6  UNL     1      48.508  56.154  68.187  1.00  0.00    -0.331 N 
ATOM     16  H62 UNL     1      48.175  57.106  68.335  1.00  0.00     0.177 HD
ATOM     17  H61 UNL     1      47.978  55.369  68.567  1.00  0.00     0.177 HD
ENDBRANCH  13  15
TORSDOF 1
ENDMDL
MODEL 4
REMARK VINA RESULT: -4.240429969      1.515      3.179
REMARK  1 active torsions:
REMARK  status: ('A' for Active; 'I' for Inactive)
REMARK       I    between atoms: C2_2  and  N1_4 
REMARK    1  A    between atoms: N5_13  and  N6_15 
ROOT
HETATM    1  C1  UNL     1      53.586  59.200  68.225  1.00  0.00     0.119 C 
HETATM    2  C2  UNL     1      53.576  57.821  67.746  1.00  0.00     0.244 C 
HETATM    3  O1  UNL     1      54.673  57.236  67.555  1.00  0.00    -0.272 OA
HETATM    4  N1  UNL     1      52.396  57.073  67.474  1.00  0.00    -0.060 N 
HETATM    5  C3  UNL     1      51.089  57.639  67.656  1.00  0.00     0.361 C 
HETATM    6  O2  UNL     1      50.966  58.802  68.057  1.00  0.00    -0.244 OA
HETATM    7  N2  UNL     1      49.923  56.848  67.369  1.00  0.00    -0.234 N 
ATOM      8  H2  UNL     1      49.023  57.298  67.201  1.00  0.00     0.189 HD
HETATM    9  N3  UNL     1      50.038  55.456  67.325  1.00  0.00    -0.004 NA
HETATM   10  N4  UNL     1      51.228  55.030  66.751  1.00  0.00    -0.114 N 
ATOM     11  H4  UNL     1      51.237  54.211  66.143  1.00  0.00     0.203 HD
HETATM   12  C4  UNL     1      52.430  55.735  67.010  1.00  0.00     0.722 C 
HETATM   13  N5  UNL     1      53.577  55.171  66.828  1.00  0.00    -0.137 N 
ATOM     14  H5  UNL     1      54.422  55.709  67.025  1.00  0.00     0.205 HD
ENDROOT
BRANCH  13  15
HETATM   15  N6  UNL     1      53.713  53.868  66.378  1.00  0.00    -0.331 N 
ATOM     16  H62 UNL     1      52.895  53.428  65.957  1.00  0.00     0.177 HD
ATOM     17  H61 UNL     1      54.585  53.344  66.452  1.00  0.00     0.177 HD
ENDBRANCH  13  15
TORSDOF 1
ENDMDL
MODEL 5
REMARK VINA RESULT: -4.232865025      4.514      5.180
REMARK  1 active torsions:
REMARK  status: ('A' for Active; 'I' for Inactive)
REMARK       I    between atoms: C2_2  and  N1_4 
REMARK    1  A    between atoms: N5_13  and  N6_15 
ROOT
HETATM    1  C1  UNL     1      52.608  62.243  73.232  1.00  0.00     0.119 C 
HETATM    2  C2  UNL     1      51.636  61.348  72.613  1.00  0.00     0.244 C 
HETATM    3  O1  UNL     1      50.832  60.720  73.349  1.00  0.00    -0.272 OA
HETATM    4  N1  UNL     1      51.525  61.127  71.211  1.00  0.00    -0.060 N 
HETATM    5  C3  UNL     1      52.389  61.789  70.275  1.00  0.00     0.361 C 
HETATM    6  O2  UNL     1      53.256  62.573  70.678  1.00  0.00    -0.244 OA
HETATM    7  N2  UNL     1      52.242  61.537  68.867  1.00  0.00    -0.234 N 
ATOM      8  H2  UNL     1      53.005  61.745  68.224  1.00  0.00     0.189 HD
HETATM    9  N3  UNL     1      51.040  61.004  68.392  1.00  0.00    -0.004 NA
HETATM   10  N4  UNL     1      50.493  60.059  69.247  1.00  0.00    -0.114 N 
ATOM     11  H4  UNL     1      50.039  59.228  68.867  1.00  0.00     0.203 HD
HETATM   12  C4  UNL     1      50.565  60.248  70.650  1.00  0.00     0.722 C 
HETATM   13  N5  UNL     1      49.759  59.624  71.443  1.00  0.00    -0.137 N 
ATOM     14  H5  UNL     1      49.840  59.785  72.447  1.00  0.00     0.205 HD
ENDROOT
BRANCH  13  15
HETATM   15  N6  UNL     1      48.788  58.746  70.989  1.00  0.00    -0.331 N 
ATOM     16  H62 UNL     1      48.929  57.753  71.174  1.00  0.00     0.177 HD
ATOM     17  H61 UNL     1      47.954  59.052  70.487  1.00  0.00     0.177 HD
ENDBRANCH  13  15
TORSDOF 1
ENDMDL
