MODEL 1
REMARK VINA RESULT: -6.646828238      0.000      0.000
REMARK  10 active torsions:
REMARK  status: ('A' for Active; 'I' for Inactive)
REMARK    1  A    between atoms: C2_5  and  C3_6 
REMARK    2  A    between atoms: C3_6  and  O1_7 
REMARK    3  A    between atoms: C3_6  and  N3_9 
REMARK    4  A    between atoms: N3_9  and  N4_11 
REMARK    5  A    between atoms: N4_11  and  C4_13 
REMARK    6  A    between atoms: C5_16  and  O2_17 
REMARK    7  A    between atoms: O2_17  and  C6_18 
REMARK    8  A    between atoms: C6_18  and  O3_19 
REMARK    9  A    between atoms: C6_18  and  C7_21 
REMARK   10  A    between atoms: C7_21  and  O4_22 
ROOT
HETATM    1  C4  UNL     1      37.375  34.605  25.840  1.00  0.00     0.702 A 
HETATM    2  N5  UNL     1      36.129  34.167  26.227  1.00  0.00    -0.168 N 
ATOM      3  H5  UNL     1      35.438  34.867  26.495  1.00  0.00     0.186 HD
HETATM    4  C5  UNL     1      35.769  32.882  26.272  1.00  0.00     0.179 A 
HETATM    5  C8  UNL     1      36.744  31.948  25.900  1.00  0.00     0.128 A 
HETATM    6  C9  UNL     1      36.442  30.605  25.923  1.00  0.00     0.264 A 
HETATM    7  O5  UNL     1      35.333  30.142  26.263  1.00  0.00    -0.267 OA
HETATM    8  N6  UNL     1      37.420  29.765  25.554  1.00  0.00    -0.319 N 
ATOM      9  H6  UNL     1      37.240  28.761  25.557  1.00  0.00     0.169 HD
HETATM   10  C10 UNL     1      38.646  30.217  25.176  1.00  0.00     0.184 A 
HETATM   11  N7  UNL     1      38.937  31.541  25.154  1.00  0.00    -0.337 N 
ATOM     12  H7  UNL     1      39.860  31.869  24.869  1.00  0.00     0.168 HD
HETATM   13  C11 UNL     1      37.987  32.404  25.515  1.00  0.00     0.144 A 
HETATM   14  N8  UNL     1      38.298  33.731  25.488  1.00  0.00    -0.170 N 
HETATM   15  C12 UNL     1      39.612  34.151  25.076  1.00  0.00     0.177 C 
ENDROOT
BRANCH   1  16
HETATM   16  N4  UNL     1      37.556  35.849  25.851  1.00  0.00    -0.133 N 
ATOM     17  H4  UNL     1      38.458  36.101  25.446  1.00  0.00     0.205 HD
BRANCH  16  18
HETATM   18  N3  UNL     1      36.873  36.934  26.257  1.00  0.00    -0.286 N 
ATOM     19  H3  UNL     1      37.165  37.420  27.105  1.00  0.00     0.184 HD
BRANCH  18  20
HETATM   20  C3  UNL     1      35.712  37.435  25.501  1.00  0.00     0.303 C 
BRANCH  20  21
HETATM   21  C2  UNL     1      35.950  37.265  24.062  1.00  0.00     0.151 A 
HETATM   22  N2  UNL     1      36.672  38.097  23.294  1.00  0.00    -0.279 N 
HETATM   23  N1  UNL     1      36.668  37.630  22.068  1.00  0.00    -0.246 N 
ATOM     24  H2  UNL     1      37.143  38.946  23.610  1.00  0.00     0.188 HD
HETATM   25  C1  UNL     1      37.360  38.283  20.949  1.00  0.00     0.183 C 
HETATM   26  C13 UNL     1      35.958  36.508  22.026  1.00  0.00     0.342 A 
HETATM   27  N9  UNL     1      35.509  36.280  23.272  1.00  0.00    -0.292 N 
HETATM   28  O6  UNL     1      35.743  35.797  21.020  1.00  0.00    -0.245 OA
ATOM     29  H9  UNL     1      34.930  35.491  23.565  1.00  0.00     0.172 HD
ENDBRANCH  20  21
BRANCH  20  30
HETATM   30  O1  UNL     1      34.544  36.771  25.873  1.00  0.00    -0.368 OA
ATOM     31  H1  UNL     1      34.602  36.493  26.779  1.00  0.00     0.212 HD
ENDBRANCH  20  30
ENDBRANCH  18  20
ENDBRANCH  16  18
ENDBRANCH   1  16
BRANCH   4  32
HETATM   32  O2  UNL     1      34.541  32.421  26.652  1.00  0.00    -0.301 OA
BRANCH  32  33
HETATM   33  C6  UNL     1      33.824  32.630  27.811  1.00  0.00     0.288 C 
BRANCH  33  34
HETATM   34  O3  UNL     1      33.833  31.463  28.615  1.00  0.00    -0.369 OA
ATOM     35  H3  UNL     1      33.409  31.631  29.448  1.00  0.00     0.212 HD
ENDBRANCH  33  34
BRANCH  33  36
HETATM   36  C7  UNL     1      32.354  32.928  27.568  1.00  0.00     0.225 C 
BRANCH  36  37
HETATM   37  O4  UNL     1      31.981  32.600  26.265  1.00  0.00    -0.396 OA
ATOM     38  H4  UNL     1      31.410  33.263  25.894  1.00  0.00     0.209 HD
ENDBRANCH  36  37
ENDBRANCH  33  36
ENDBRANCH  32  33
ENDBRANCH   4  32
TORSDOF 10
ENDMDL
MODEL 2
REMARK VINA RESULT: -6.413769021      2.381      7.472
REMARK  10 active torsions:
REMARK  status: ('A' for Active; 'I' for Inactive)
REMARK    1  A    between atoms: C2_5  and  C3_6 
REMARK    2  A    between atoms: C3_6  and  O1_7 
REMARK    3  A    between atoms: C3_6  and  N3_9 
REMARK    4  A    between atoms: N3_9  and  N4_11 
REMARK    5  A    between atoms: N4_11  and  C4_13 
REMARK    6  A    between atoms: C5_16  and  O2_17 
REMARK    7  A    between atoms: O2_17  and  C6_18 
REMARK    8  A    between atoms: C6_18  and  O3_19 
REMARK    9  A    between atoms: C6_18  and  C7_21 
REMARK   10  A    between atoms: C7_21  and  O4_22 
ROOT
HETATM    1  C4  UNL     1      36.088  38.055  25.246  1.00  0.00     0.702 A 
HETATM    2  N5  UNL     1      35.964  37.646  23.938  1.00  0.00    -0.168 N 
ATOM      3  H5  UNL     1      35.336  36.867  23.738  1.00  0.00     0.186 HD
HETATM    4  C5  UNL     1      36.614  38.204  22.914  1.00  0.00     0.179 A 
HETATM    5  C8  UNL     1      37.469  39.269  23.225  1.00  0.00     0.128 A 
HETATM    6  C9  UNL     1      38.172  39.893  22.219  1.00  0.00     0.264 A 
HETATM    7  O5  UNL     1      38.104  39.571  21.015  1.00  0.00    -0.267 OA
HETATM    8  N6  UNL     1      38.971  40.905  22.585  1.00  0.00    -0.319 N 
ATOM      9  H6  UNL     1      39.511  41.395  21.872  1.00  0.00     0.169 HD
HETATM   10  C10 UNL     1      39.082  41.295  23.885  1.00  0.00     0.184 A 
HETATM   11  N7  UNL     1      38.387  40.677  24.871  1.00  0.00    -0.337 N 
ATOM     12  H7  UNL     1      38.478  40.977  25.841  1.00  0.00     0.168 HD
HETATM   13  C11 UNL     1      37.582  39.667  24.541  1.00  0.00     0.144 A 
HETATM   14  N8  UNL     1      36.891  39.057  25.546  1.00  0.00    -0.170 N 
HETATM   15  C12 UNL     1      37.046  39.515  26.903  1.00  0.00     0.177 C 
ENDROOT
BRANCH   1  16
HETATM   16  N4  UNL     1      35.407  37.425  26.094  1.00  0.00    -0.133 N 
ATOM     17  H4  UNL     1      35.115  38.027  26.864  1.00  0.00     0.205 HD
BRANCH  16  18
HETATM   18  N3  UNL     1      34.962  36.166  26.252  1.00  0.00    -0.286 N 
ATOM     19  H3  UNL     1      34.058  36.007  26.697  1.00  0.00     0.184 HD
BRANCH  18  20
HETATM   20  C3  UNL     1      35.755  35.011  25.795  1.00  0.00     0.303 C 
BRANCH  20  21
HETATM   21  C2  UNL     1      35.334  33.807  26.523  1.00  0.00     0.151 A 
HETATM   22  N2  UNL     1      36.112  32.740  26.768  1.00  0.00    -0.279 N 
HETATM   23  N1  UNL     1      35.403  31.862  27.438  1.00  0.00    -0.246 N 
ATOM     24  H2  UNL     1      37.085  32.630  26.482  1.00  0.00     0.188 HD
HETATM   25  C1  UNL     1      35.928  30.564  27.882  1.00  0.00     0.183 C 
HETATM   26  C13 UNL     1      34.179  32.341  27.634  1.00  0.00     0.342 A 
HETATM   27  N9  UNL     1      34.136  33.556  27.062  1.00  0.00    -0.292 N 
HETATM   28  O6  UNL     1      33.242  31.772  28.234  1.00  0.00    -0.245 OA
ATOM     29  H9  UNL     1      33.328  34.180  27.041  1.00  0.00     0.172 HD
ENDBRANCH  20  21
BRANCH  20  30
HETATM   30  O1  UNL     1      35.614  34.813  24.423  1.00  0.00    -0.368 OA
ATOM     31  H1  UNL     1      34.734  35.043  24.149  1.00  0.00     0.212 HD
ENDBRANCH  20  30
ENDBRANCH  18  20
ENDBRANCH  16  18
ENDBRANCH   1  16
BRANCH   4  32
HETATM   32  O2  UNL     1      36.508  37.818  21.609  1.00  0.00    -0.301 OA
BRANCH  32  33
HETATM   33  C6  UNL     1      36.443  36.560  21.049  1.00  0.00     0.288 C 
BRANCH  33  34
HETATM   34  O3  UNL     1      35.438  35.787  21.684  1.00  0.00    -0.369 OA
ATOM     35  H3  UNL     1      35.752  35.452  22.515  1.00  0.00     0.212 HD
ENDBRANCH  33  34
BRANCH  33  36
HETATM   36  C7  UNL     1      37.721  35.755  21.217  1.00  0.00     0.225 C 
BRANCH  36  37
HETATM   37  O4  UNL     1      37.890  35.347  22.540  1.00  0.00    -0.396 OA
ATOM     38  H4  UNL     1      38.355  34.520  22.588  1.00  0.00     0.209 HD
ENDBRANCH  36  37
ENDBRANCH  33  36
ENDBRANCH  32  33
ENDBRANCH   4  32
TORSDOF 10
ENDMDL
MODEL 3
REMARK VINA RESULT: -6.243966707      2.414      3.284
REMARK  10 active torsions:
REMARK  status: ('A' for Active; 'I' for Inactive)
REMARK    1  A    between atoms: C2_5  and  C3_6 
REMARK    2  A    between atoms: C3_6  and  O1_7 
REMARK    3  A    between atoms: C3_6  and  N3_9 
REMARK    4  A    between atoms: N3_9  and  N4_11 
REMARK    5  A    between atoms: N4_11  and  C4_13 
REMARK    6  A    between atoms: C5_16  and  O2_17 
REMARK    7  A    between atoms: O2_17  and  C6_18 
REMARK    8  A    between atoms: C6_18  and  O3_19 
REMARK    9  A    between atoms: C6_18  and  C7_21 
REMARK   10  A    between atoms: C7_21  and  O4_22 
ROOT
HETATM    1  C4  UNL     1      36.183  34.392  25.479  1.00  0.00     0.702 A 
HETATM    2  N5  UNL     1      35.099  33.644  25.877  1.00  0.00    -0.168 N 
ATOM      3  H5  UNL     1      34.168  33.987  25.642  1.00  0.00     0.186 HD
HETATM    4  C5  UNL     1      35.189  32.496  26.552  1.00  0.00     0.179 A 
HETATM    5  C8  UNL     1      36.483  32.055  26.861  1.00  0.00     0.128 A 
HETATM    6  C9  UNL     1      36.652  30.878  27.556  1.00  0.00     0.264 A 
HETATM    7  O5  UNL     1      35.712  30.154  27.945  1.00  0.00    -0.267 OA
HETATM    8  N6  UNL     1      37.915  30.514  27.818  1.00  0.00    -0.319 N 
ATOM      9  H6  UNL     1      38.087  29.649  28.331  1.00  0.00     0.169 HD
HETATM   10  C10 UNL     1      38.975  31.268  27.417  1.00  0.00     0.184 A 
HETATM   11  N7  UNL     1      38.802  32.425  26.733  1.00  0.00    -0.337 N 
ATOM     12  H7  UNL     1      39.603  32.982  26.438  1.00  0.00     0.168 HD
HETATM   13  C11 UNL     1      37.559  32.816  26.455  1.00  0.00     0.144 A 
HETATM   14  N8  UNL     1      37.404  33.983  25.767  1.00  0.00    -0.170 N 
HETATM   15  C12 UNL     1      38.563  34.738  25.366  1.00  0.00     0.177 C 
ENDROOT
BRANCH   1  16
HETATM   16  N4  UNL     1      35.929  35.450  24.851  1.00  0.00    -0.133 N 
ATOM     17  H4  UNL     1      36.212  35.384  23.873  1.00  0.00     0.205 HD
BRANCH  16  18
HETATM   18  N3  UNL     1      35.382  36.647  25.129  1.00  0.00    -0.286 N 
ATOM     19  H3  UNL     1      35.208  37.306  24.370  1.00  0.00     0.184 HD
BRANCH  18  20
HETATM   20  C3  UNL     1      35.031  37.026  26.509  1.00  0.00     0.303 C 
BRANCH  20  21
HETATM   21  C2  UNL     1      35.647  38.319  26.835  1.00  0.00     0.151 A 
HETATM   22  N2  UNL     1      36.650  38.893  26.151  1.00  0.00    -0.279 N 
HETATM   23  N1  UNL     1      36.939  40.035  26.729  1.00  0.00    -0.246 N 
ATOM     24  H2  UNL     1      37.109  38.507  25.325  1.00  0.00     0.188 HD
HETATM   25  C1  UNL     1      37.992  40.942  26.253  1.00  0.00     0.183 C 
HETATM   26  C13 UNL     1      36.140  40.214  27.776  1.00  0.00     0.342 A 
HETATM   27  N9  UNL     1      35.333  39.141  27.843  1.00  0.00    -0.292 N 
HETATM   28  O6  UNL     1      36.137  41.191  28.555  1.00  0.00    -0.245 OA
ATOM     29  H9  UNL     1      34.606  38.982  28.541  1.00  0.00     0.172 HD
ENDBRANCH  20  21
BRANCH  20  30
HETATM   30  O1  UNL     1      33.650  37.099  26.676  1.00  0.00    -0.368 OA
ATOM     31  H1  UNL     1      33.238  36.319  26.326  1.00  0.00     0.212 HD
ENDBRANCH  20  30
ENDBRANCH  18  20
ENDBRANCH  16  18
ENDBRANCH   1  16
BRANCH   4  32
HETATM   32  O2  UNL     1      34.131  31.735  26.958  1.00  0.00    -0.301 OA
BRANCH  32  33
HETATM   33  C6  UNL     1      32.846  32.097  27.300  1.00  0.00     0.288 C 
BRANCH  33  34
HETATM   34  O3  UNL     1      32.124  32.508  26.151  1.00  0.00    -0.369 OA
ATOM     35  H3  UNL     1      31.326  32.001  26.062  1.00  0.00     0.212 HD
ENDBRANCH  33  34
BRANCH  33  36
HETATM   36  C7  UNL     1      32.783  33.284  28.248  1.00  0.00     0.225 C 
BRANCH  36  37
HETATM   37  O4  UNL     1      32.779  34.489  27.547  1.00  0.00    -0.396 OA
ATOM     38  H4  UNL     1      32.026  34.549  26.971  1.00  0.00     0.209 HD
ENDBRANCH  36  37
ENDBRANCH  33  36
ENDBRANCH  32  33
ENDBRANCH   4  32
TORSDOF 10
ENDMDL
MODEL 4
REMARK VINA RESULT: -6.119108522      1.690      1.910
REMARK  10 active torsions:
REMARK  status: ('A' for Active; 'I' for Inactive)
REMARK    1  A    between atoms: C2_5  and  C3_6 
REMARK    2  A    between atoms: C3_6  and  O1_7 
REMARK    3  A    between atoms: C3_6  and  N3_9 
REMARK    4  A    between atoms: N3_9  and  N4_11 
REMARK    5  A    between atoms: N4_11  and  C4_13 
REMARK    6  A    between atoms: C5_16  and  O2_17 
REMARK    7  A    between atoms: O2_17  and  C6_18 
REMARK    8  A    between atoms: C6_18  and  O3_19 
REMARK    9  A    between atoms: C6_18  and  C7_21 
REMARK   10  A    between atoms: C7_21  and  O4_22 
ROOT
HETATM    1  C4  UNL     1      38.229  34.162  25.406  1.00  0.00     0.702 A 
HETATM    2  N5  UNL     1      37.004  33.751  25.880  1.00  0.00    -0.168 N 
ATOM      3  H5  UNL     1      36.183  34.295  25.617  1.00  0.00     0.186 HD
HETATM    4  C5  UNL     1      36.824  32.684  26.662  1.00  0.00     0.179 A 
HETATM    5  C8  UNL     1      37.974  31.962  27.006  1.00  0.00     0.128 A 
HETATM    6  C9  UNL     1      37.863  30.850  27.810  1.00  0.00     0.264 A 
HETATM    7  O5  UNL     1      36.783  30.425  28.272  1.00  0.00    -0.267 OA
HETATM    8  N6  UNL     1      39.001  30.205  28.100  1.00  0.00    -0.319 N 
ATOM      9  H6  UNL     1      38.966  29.375  28.693  1.00  0.00     0.169 HD
HETATM   10  C10 UNL     1      40.204  30.627  27.624  1.00  0.00     0.184 A 
HETATM   11  N7  UNL     1      40.307  31.722  26.831  1.00  0.00    -0.337 N 
ATOM     12  H7  UNL     1      41.214  32.030  26.480  1.00  0.00     0.168 HD
HETATM   13  C11 UNL     1      39.194  32.387  26.523  1.00  0.00     0.144 A 
HETATM   14  N8  UNL     1      39.316  33.487  25.726  1.00  0.00    -0.170 N 
HETATM   15  C12 UNL     1      40.616  33.885  25.249  1.00  0.00     0.177 C 
ENDROOT
BRANCH   1  16
HETATM   16  N4  UNL     1      38.230  35.187  24.680  1.00  0.00    -0.133 N 
ATOM     17  H4  UNL     1      38.908  35.110  23.921  1.00  0.00     0.205 HD
BRANCH  16  18
HETATM   18  N3  UNL     1      37.573  36.360  24.641  1.00  0.00    -0.286 N 
ATOM     19  H3  UNL     1      37.961  37.167  25.131  1.00  0.00     0.184 HD
BRANCH  18  20
HETATM   20  C3  UNL     1      36.305  36.503  23.905  1.00  0.00     0.303 C 
BRANCH  20  21
HETATM   21  C2  UNL     1      36.576  36.553  22.463  1.00  0.00     0.151 A 
HETATM   22  N2  UNL     1      37.618  37.180  21.893  1.00  0.00    -0.279 N 
HETATM   23  N1  UNL     1      37.536  37.013  20.594  1.00  0.00    -0.246 N 
ATOM     24  H2  UNL     1      38.348  37.696  22.385  1.00  0.00     0.188 HD
HETATM   25  C1  UNL     1      38.510  37.562  19.642  1.00  0.00     0.183 C 
HETATM   26  C13 UNL     1      36.459  36.288  20.310  1.00  0.00     0.342 A 
HETATM   27  N9  UNL     1      35.858  36.001  21.478  1.00  0.00    -0.292 N 
HETATM   28  O6  UNL     1      36.072  35.938  19.174  1.00  0.00    -0.245 OA
ATOM     29  H9  UNL     1      35.003  35.456  21.593  1.00  0.00     0.172 HD
ENDBRANCH  20  21
BRANCH  20  30
HETATM   30  O1  UNL     1      35.434  35.453  24.192  1.00  0.00    -0.368 OA
ATOM     31  H1  UNL     1      35.676  35.045  25.015  1.00  0.00     0.212 HD
ENDBRANCH  20  30
ENDBRANCH  18  20
ENDBRANCH  16  18
ENDBRANCH   1  16
BRANCH   4  32
HETATM   32  O2  UNL     1      35.620  32.255  27.144  1.00  0.00    -0.301 OA
BRANCH  32  33
HETATM   33  C6  UNL     1      34.396  32.137  26.522  1.00  0.00     0.288 C 
BRANCH  33  34
HETATM   34  O3  UNL     1      34.369  32.905  25.331  1.00  0.00    -0.369 OA
ATOM     35  H3  UNL     1      34.517  32.350  24.575  1.00  0.00     0.212 HD
ENDBRANCH  33  34
BRANCH  33  36
HETATM   36  C7  UNL     1      33.240  32.664  27.356  1.00  0.00     0.225 C 
BRANCH  36  37
HETATM   37  O4  UNL     1      32.041  32.614  26.645  1.00  0.00    -0.396 OA
ATOM     38  H4  UNL     1      31.362  32.177  27.145  1.00  0.00     0.209 HD
ENDBRANCH  36  37
ENDBRANCH  33  36
ENDBRANCH  32  33
ENDBRANCH   4  32
TORSDOF 10
ENDMDL
MODEL 5
REMARK VINA RESULT: -6.113200933      2.217      6.435
REMARK  10 active torsions:
REMARK  status: ('A' for Active; 'I' for Inactive)
REMARK    1  A    between atoms: C2_5  and  C3_6 
REMARK    2  A    between atoms: C3_6  and  O1_7 
REMARK    3  A    between atoms: C3_6  and  N3_9 
REMARK    4  A    between atoms: N3_9  and  N4_11 
REMARK    5  A    between atoms: N4_11  and  C4_13 
REMARK    6  A    between atoms: C5_16  and  O2_17 
REMARK    7  A    between atoms: O2_17  and  C6_18 
REMARK    8  A    between atoms: C6_18  and  O3_19 
REMARK    9  A    between atoms: C6_18  and  C7_21 
REMARK   10  A    between atoms: C7_21  and  O4_22 
ROOT
HETATM    1  C4  UNL     1      38.081  33.659  25.236  1.00  0.00     0.702 A 
HETATM    2  N5  UNL     1      36.869  33.334  25.800  1.00  0.00    -0.168 N 
ATOM      3  H5  UNL     1      36.664  32.347  25.957  1.00  0.00     0.186 HD
HETATM    4  C5  UNL     1      35.944  34.229  26.153  1.00  0.00     0.179 A 
HETATM    5  C8  UNL     1      36.257  35.574  25.920  1.00  0.00     0.128 A 
HETATM    6  C9  UNL     1      35.350  36.552  26.260  1.00  0.00     0.264 A 
HETATM    7  O5  UNL     1      34.235  36.324  26.774  1.00  0.00    -0.267 OA
HETATM    8  N6  UNL     1      35.713  37.818  26.011  1.00  0.00    -0.319 N 
ATOM      9  H6  UNL     1      35.071  38.575  26.247  1.00  0.00     0.169 HD
HETATM   10  C10 UNL     1      36.916  38.121  25.452  1.00  0.00     0.184 A 
HETATM   11  N7  UNL     1      37.806  37.153  25.120  1.00  0.00    -0.337 N 
ATOM     12  H7  UNL     1      38.705  37.391  24.701  1.00  0.00     0.168 HD
HETATM   13  C11 UNL     1      37.477  35.883  25.355  1.00  0.00     0.144 A 
HETATM   14  N8  UNL     1      38.383  34.924  25.014  1.00  0.00    -0.170 N 
HETATM   15  C12 UNL     1      39.643  35.304  24.428  1.00  0.00     0.177 C 
ENDROOT
BRANCH   1  16
HETATM   16  N4  UNL     1      38.843  32.698  24.960  1.00  0.00    -0.133 N 
ATOM     17  H4  UNL     1      39.360  32.864  24.097  1.00  0.00     0.205 HD
BRANCH  16  18
HETATM   18  N3  UNL     1      39.155  31.509  25.505  1.00  0.00    -0.286 N 
ATOM     19  H3  UNL     1      39.940  31.446  26.153  1.00  0.00     0.184 HD
BRANCH  18  20
HETATM   20  C3  UNL     1      38.386  30.294  25.184  1.00  0.00     0.303 C 
BRANCH  20  21
HETATM   21  C2  UNL     1      37.894  29.681  26.424  1.00  0.00     0.151 A 
HETATM   22  N2  UNL     1      37.059  30.268  27.298  1.00  0.00    -0.279 N 
HETATM   23  N1  UNL     1      36.839  29.427  28.281  1.00  0.00    -0.246 N 
ATOM     24  H2  UNL     1      36.664  31.204  27.213  1.00  0.00     0.188 HD
HETATM   25  C1  UNL     1      35.970  29.727  29.427  1.00  0.00     0.183 C 
HETATM   26  C13 UNL     1      37.516  28.304  28.061  1.00  0.00     0.342 A 
HETATM   27  N9  UNL     1      38.175  28.463  26.900  1.00  0.00    -0.292 N 
HETATM   28  O6  UNL     1      37.539  27.290  28.792  1.00  0.00    -0.245 OA
ATOM     29  H9  UNL     1      38.785  27.774  26.459  1.00  0.00     0.172 HD
ENDBRANCH  20  21
BRANCH  20  30
HETATM   30  O1  UNL     1      37.317  30.583  24.337  1.00  0.00    -0.368 OA
ATOM     31  H1  UNL     1      37.372  31.483  24.038  1.00  0.00     0.212 HD
ENDBRANCH  20  30
ENDBRANCH  18  20
ENDBRANCH  16  18
ENDBRANCH   1  16
BRANCH   4  32
HETATM   32  O2  UNL     1      34.734  33.933  26.714  1.00  0.00    -0.301 OA
BRANCH  32  33
HETATM   33  C6  UNL     1      34.307  32.803  27.378  1.00  0.00     0.288 C 
BRANCH  33  34
HETATM   34  O3  UNL     1      34.489  31.654  26.569  1.00  0.00    -0.369 OA
ATOM     35  H3  UNL     1      33.868  30.977  26.810  1.00  0.00     0.212 HD
ENDBRANCH  33  34
BRANCH  33  36
HETATM   36  C7  UNL     1      32.823  32.820  27.708  1.00  0.00     0.225 C 
BRANCH  36  37
HETATM   37  O4  UNL     1      32.049  32.666  26.558  1.00  0.00    -0.396 OA
ATOM     38  H4  UNL     1      31.667  31.797  26.515  1.00  0.00     0.209 HD
ENDBRANCH  36  37
ENDBRANCH  33  36
ENDBRANCH  32  33
ENDBRANCH   4  32
TORSDOF 10
ENDMDL
