MODEL 1
REMARK VINA RESULT: -4.953100738      0.000      0.000
REMARK  10 active torsions:
REMARK  status: ('A' for Active; 'I' for Inactive)
REMARK    1  A    between atoms: C2_3  and  N2_4 
REMARK    2  A    between atoms: N4_11  and  C4_12 
REMARK    3  A    between atoms: C4_12  and  C5_13 
REMARK    4  A    between atoms: C6_17  and  N7_18 
REMARK    5  A    between atoms: N8_21  and  C7_22 
REMARK    6  A    between atoms: C7_22  and  C8_23 
REMARK    7  A    between atoms: C10_27  and  C11_28 
REMARK    8  A    between atoms: C11_28  and  N9_29 
REMARK    9  A    between atoms: C12_33  and  O4_34 
REMARK   10  A    between atoms: C12_33  and  C13_36 
ROOT
HETATM    1  C13 UNL     1      39.999  34.765  26.489  1.00  0.00     0.164 C 
HETATM    2  C14 UNL     1      40.342  34.073  27.699  1.00  0.00     0.062 C 
HETATM    3  N10 UNL     1      40.620  33.539  28.684  1.00  0.00    -0.197 NA
ENDROOT
BRANCH   1   4
HETATM    4  C12 UNL     1      39.185  33.964  25.496  1.00  0.00     0.106 C 
HETATM    5  C5  UNL     1      37.895  33.621  26.141  1.00  0.00     0.166 C 
HETATM    6  N5  UNL     1      37.006  34.742  25.773  1.00  0.00    -0.255 N 
HETATM    7  N6  UNL     1      35.902  35.334  26.112  1.00  0.00    -0.128 N 
HETATM    8  C9  UNL     1      37.497  35.402  24.700  1.00  0.00     0.127 A 
HETATM    9  C6  UNL     1      35.632  36.365  25.308  1.00  0.00     0.694 A 
ATOM     10  H6  UNL     1      35.314  35.047  26.895  1.00  0.00     0.206 HD
HETATM   11  N8  UNL     1      36.658  36.404  24.406  1.00  0.00    -0.159 N 
HETATM   12  C10 UNL     1      38.766  34.719  24.293  1.00  0.00     0.118 C 
BRANCH   5  13
HETATM   13  C4  UNL     1      37.221  32.339  25.912  1.00  0.00     0.185 C 
BRANCH  13  14
HETATM   14  N4  UNL     1      36.473  31.708  26.934  1.00  0.00    -0.224 N 
HETATM   15  N1  UNL     1      36.964  30.745  27.740  1.00  0.00    -0.122 N 
HETATM   16  C1  UNL     1      38.318  30.214  27.748  1.00  0.00     0.198 C 
HETATM   17  C2  UNL     1      36.010  30.311  28.576  1.00  0.00     0.696 A 
HETATM   18  N3  UNL     1      34.912  31.005  28.295  1.00  0.00    -0.139 N 
HETATM   19  C3  UNL     1      35.192  31.873  27.278  1.00  0.00     0.356 A 
ATOM     20  H3  UNL     1      34.010  30.905  28.761  1.00  0.00     0.189 HD
HETATM   21  O1  UNL     1      34.297  32.642  26.848  1.00  0.00    -0.244 OA
BRANCH  17  22
HETATM   22  N2  UNL     1      36.101  29.404  29.484  1.00  0.00    -0.233 N 
ATOM     23  H22 UNL     1      36.385  29.567  30.450  1.00  0.00     0.174 HD
ATOM     24  H21 UNL     1      35.911  28.405  29.400  1.00  0.00     0.174 HD
ENDBRANCH  17  22
ENDBRANCH  13  14
ENDBRANCH   5  13
BRANCH   9  25
HETATM   25  N7  UNL     1      34.649  37.179  25.323  1.00  0.00    -0.233 N 
ATOM     26  H72 UNL     1      34.205  37.535  26.168  1.00  0.00     0.174 HD
ATOM     27  H71 UNL     1      34.144  37.609  24.548  1.00  0.00     0.174 HD
ENDBRANCH   9  25
BRANCH  11  28
HETATM   28  C7  UNL     1      36.740  37.405  23.334  1.00  0.00     0.262 C 
BRANCH  28  29
HETATM   29  C8  UNL     1      36.565  36.732  22.030  1.00  0.00     0.192 C 
HETATM   30  O2  UNL     1      37.450  36.867  21.146  1.00  0.00    -0.647 OA
HETATM   31  O3  UNL     1      35.465  35.944  21.718  1.00  0.00    -0.647 OA
ENDBRANCH  28  29
ENDBRANCH  11  28
BRANCH  12  32
HETATM   32  C11 UNL     1      39.676  35.669  23.662  1.00  0.00     0.245 C 
BRANCH  32  33
HETATM   33  N9  UNL     1      39.941  35.403  22.251  1.00  0.00    -0.079 N 
ATOM     34  H93 UNL     1      40.110  36.276  21.750  1.00  0.00     0.274 HD
ATOM     35  H92 UNL     1      40.850  34.957  22.138  1.00  0.00     0.274 HD
ATOM     36  H91 UNL     1      39.216  34.859  21.783  1.00  0.00     0.274 HD
ENDBRANCH  32  33
ENDBRANCH  12  32
BRANCH   4  37
HETATM   37  O4  UNL     1      39.974  32.893  25.158  1.00  0.00    -0.386 OA
ATOM     38  H4  UNL     1      39.882  32.130  25.714  1.00  0.00     0.210 HD
ENDBRANCH   4  37
ENDBRANCH   1   4
TORSDOF 10
ENDMDL
MODEL 2
REMARK VINA RESULT: -4.933758001      2.983      6.925
REMARK  10 active torsions:
REMARK  status: ('A' for Active; 'I' for Inactive)
REMARK    1  A    between atoms: C2_3  and  N2_4 
REMARK    2  A    between atoms: N4_11  and  C4_12 
REMARK    3  A    between atoms: C4_12  and  C5_13 
REMARK    4  A    between atoms: C6_17  and  N7_18 
REMARK    5  A    between atoms: N8_21  and  C7_22 
REMARK    6  A    between atoms: C7_22  and  C8_23 
REMARK    7  A    between atoms: C10_27  and  C11_28 
REMARK    8  A    between atoms: C11_28  and  N9_29 
REMARK    9  A    between atoms: C12_33  and  O4_34 
REMARK   10  A    between atoms: C12_33  and  C13_36 
ROOT
HETATM    1  C13 UNL     1      36.619  37.404  26.680  1.00  0.00     0.164 C 
HETATM    2  C14 UNL     1      35.698  38.293  27.327  1.00  0.00     0.062 C 
HETATM    3  N10 UNL     1      34.974  39.017  27.863  1.00  0.00    -0.197 NA
ENDROOT
BRANCH   1   4
HETATM    4  C12 UNL     1      36.251  37.008  25.267  1.00  0.00     0.106 C 
HETATM    5  C5  UNL     1      36.926  37.950  24.343  1.00  0.00     0.166 C 
HETATM    6  N5  UNL     1      38.219  37.295  24.053  1.00  0.00    -0.255 N 
HETATM    7  N6  UNL     1      39.416  37.533  23.612  1.00  0.00    -0.128 N 
HETATM    8  C9  UNL     1      38.155  35.977  24.342  1.00  0.00     0.127 A 
HETATM    9  C6  UNL     1      40.160  36.424  23.592  1.00  0.00     0.694 A 
ATOM     10  H6  UNL     1      39.747  38.452  23.317  1.00  0.00     0.206 HD
HETATM   11  N8  UNL     1      39.346  35.431  24.062  1.00  0.00    -0.159 N 
HETATM   12  C10 UNL     1      36.773  35.690  24.840  1.00  0.00     0.118 C 
BRANCH   5  13
HETATM   13  C4  UNL     1      36.300  38.414  23.100  1.00  0.00     0.185 C 
BRANCH  13  14
HETATM   14  N4  UNL     1      36.638  37.846  21.849  1.00  0.00    -0.224 N 
HETATM   15  N1  UNL     1      37.429  38.450  20.939  1.00  0.00    -0.122 N 
HETATM   16  C1  UNL     1      38.100  39.733  21.073  1.00  0.00     0.198 C 
HETATM   17  C2  UNL     1      37.531  37.689  19.839  1.00  0.00     0.696 A 
HETATM   18  N3  UNL     1      36.800  36.601  20.058  1.00  0.00    -0.139 N 
HETATM   19  C3  UNL     1      36.245  36.692  21.303  1.00  0.00     0.356 A 
ATOM     20  H3  UNL     1      36.675  35.827  19.405  1.00  0.00     0.189 HD
HETATM   21  O1  UNL     1      35.513  35.764  21.729  1.00  0.00    -0.244 OA
BRANCH  17  22
HETATM   22  N2  UNL     1      38.195  37.931  18.763  1.00  0.00    -0.233 N 
ATOM     23  H22 UNL     1      39.083  37.498  18.512  1.00  0.00     0.174 HD
ATOM     24  H21 UNL     1      37.957  38.571  18.005  1.00  0.00     0.174 HD
ENDBRANCH  17  22
ENDBRANCH  13  14
ENDBRANCH   5  13
BRANCH   9  25
HETATM   25  N7  UNL     1      41.371  36.257  23.228  1.00  0.00    -0.233 N 
ATOM     26  H72 UNL     1      41.658  35.792  22.367  1.00  0.00     0.174 HD
ATOM     27  H71 UNL     1      42.237  36.533  23.690  1.00  0.00     0.174 HD
ENDBRANCH   9  25
BRANCH  11  28
HETATM   28  C7  UNL     1      39.788  34.036  24.198  1.00  0.00     0.262 C 
BRANCH  28  29
HETATM   29  C8  UNL     1      39.229  33.241  23.086  1.00  0.00     0.192 C 
HETATM   30  O2  UNL     1      38.874  32.053  23.298  1.00  0.00    -0.647 OA
HETATM   31  O3  UNL     1      39.065  33.736  21.798  1.00  0.00    -0.647 OA
ENDBRANCH  28  29
ENDBRANCH  11  28
BRANCH  12  32
HETATM   32  C11 UNL     1      36.790  34.566  25.770  1.00  0.00     0.245 C 
BRANCH  32  33
HETATM   33  N9  UNL     1      35.472  34.020  26.079  1.00  0.00    -0.079 N 
ATOM     34  H93 UNL     1      34.903  33.963  25.233  1.00  0.00     0.274 HD
ATOM     35  H92 UNL     1      35.542  33.029  26.309  1.00  0.00     0.274 HD
ATOM     36  H91 UNL     1      34.970  34.522  26.812  1.00  0.00     0.274 HD
ENDBRANCH  32  33
ENDBRANCH  12  32
BRANCH   4  37
HETATM   37  O4  UNL     1      34.879  37.032  25.228  1.00  0.00    -0.386 OA
ATOM     38  H4  UNL     1      34.482  36.491  24.556  1.00  0.00     0.210 HD
ENDBRANCH   4  37
ENDBRANCH   1   4
TORSDOF 10
ENDMDL
MODEL 3
REMARK VINA RESULT: -4.846405961      3.926      6.643
REMARK  10 active torsions:
REMARK  status: ('A' for Active; 'I' for Inactive)
REMARK    1  A    between atoms: C2_3  and  N2_4 
REMARK    2  A    between atoms: N4_11  and  C4_12 
REMARK    3  A    between atoms: C4_12  and  C5_13 
REMARK    4  A    between atoms: C6_17  and  N7_18 
REMARK    5  A    between atoms: N8_21  and  C7_22 
REMARK    6  A    between atoms: C7_22  and  C8_23 
REMARK    7  A    between atoms: C10_27  and  C11_28 
REMARK    8  A    between atoms: C11_28  and  N9_29 
REMARK    9  A    between atoms: C12_33  and  O4_34 
REMARK   10  A    between atoms: C12_33  and  C13_36 
ROOT
HETATM    1  C13 UNL     1      39.476  35.527  25.055  1.00  0.00     0.164 C 
HETATM    2  C14 UNL     1      39.322  34.512  24.052  1.00  0.00     0.062 C 
HETATM    3  N10 UNL     1      39.196  33.679  23.262  1.00  0.00    -0.197 NA
ENDROOT
BRANCH   1   4
HETATM    4  C12 UNL     1      39.088  36.924  24.626  1.00  0.00     0.106 C 
HETATM    5  C5  UNL     1      37.876  36.816  23.778  1.00  0.00     0.166 C 
HETATM    6  N5  UNL     1      36.760  36.938  24.738  1.00  0.00    -0.255 N 
HETATM    7  N6  UNL     1      35.494  36.692  24.879  1.00  0.00    -0.128 N 
HETATM    8  C9  UNL     1      37.186  37.508  25.887  1.00  0.00     0.127 A 
HETATM    9  C6  UNL     1      35.052  37.076  26.080  1.00  0.00     0.694 A 
ATOM     10  H6  UNL     1      34.910  36.260  24.163  1.00  0.00     0.206 HD
HETATM   11  N8  UNL     1      36.141  37.597  26.721  1.00  0.00    -0.159 N 
HETATM   12  C10 UNL     1      38.645  37.807  25.729  1.00  0.00     0.118 C 
BRANCH   5  13
HETATM   13  C4  UNL     1      37.651  37.688  22.620  1.00  0.00     0.185 C 
BRANCH  13  14
HETATM   14  N4  UNL     1      37.262  37.159  21.366  1.00  0.00    -0.224 N 
HETATM   15  N1  UNL     1      37.884  37.445  20.204  1.00  0.00    -0.122 N 
HETATM   16  C1  UNL     1      39.057  38.285  20.020  1.00  0.00     0.198 C 
HETATM   17  C2  UNL     1      37.264  36.833  19.185  1.00  0.00     0.696 A 
HETATM   18  N3  UNL     1      36.246  36.157  19.708  1.00  0.00    -0.139 N 
HETATM   19  C3  UNL     1      36.240  36.355  21.060  1.00  0.00     0.356 A 
ATOM     20  H3  UNL     1      35.580  35.587  19.187  1.00  0.00     0.189 HD
HETATM   21  O1  UNL     1      35.361  35.803  21.768  1.00  0.00    -0.244 OA
BRANCH  17  22
HETATM   22  N2  UNL     1      37.564  36.868  17.934  1.00  0.00    -0.233 N 
ATOM     23  H22 UNL     1      36.922  37.122  17.184  1.00  0.00     0.174 HD
ATOM     24  H21 UNL     1      38.460  36.656  17.494  1.00  0.00     0.174 HD
ENDBRANCH  17  22
ENDBRANCH  13  14
ENDBRANCH   5  13
BRANCH   9  25
HETATM   25  N7  UNL     1      33.882  37.001  26.584  1.00  0.00    -0.233 N 
ATOM     26  H72 UNL     1      33.016  37.095  26.054  1.00  0.00     0.174 HD
ATOM     27  H71 UNL     1      33.594  36.845  27.549  1.00  0.00     0.174 HD
ENDBRANCH   9  25
BRANCH  11  28
HETATM   28  C7  UNL     1      36.079  38.140  28.085  1.00  0.00     0.262 C 
BRANCH  28  29
HETATM   29  C8  UNL     1      36.115  39.615  28.020  1.00  0.00     0.192 C 
HETATM   30  O2  UNL     1      35.050  40.245  27.795  1.00  0.00    -0.647 OA
HETATM   31  O3  UNL     1      37.273  40.361  28.196  1.00  0.00    -0.647 OA
ENDBRANCH  28  29
ENDBRANCH  11  28
BRANCH  12  32
HETATM   32  C11 UNL     1      39.316  37.765  27.024  1.00  0.00     0.245 C 
BRANCH  32  33
HETATM   33  N9  UNL     1      39.845  39.051  27.469  1.00  0.00    -0.079 N 
ATOM     34  H93 UNL     1      40.002  39.041  28.478  1.00  0.00     0.274 HD
ATOM     35  H92 UNL     1      40.803  39.173  27.144  1.00  0.00     0.274 HD
ATOM     36  H91 UNL     1      39.274  39.854  27.206  1.00  0.00     0.274 HD
ENDBRANCH  32  33
ENDBRANCH  12  32
BRANCH   4  37
HETATM   37  O4  UNL     1      40.198  37.435  24.000  1.00  0.00    -0.386 OA
ATOM     38  H4  UNL     1      40.281  38.380  24.030  1.00  0.00     0.210 HD
ENDBRANCH   4  37
ENDBRANCH   1   4
TORSDOF 10
ENDMDL
MODEL 4
REMARK VINA RESULT: -4.804447283      3.458      6.059
REMARK  10 active torsions:
REMARK  status: ('A' for Active; 'I' for Inactive)
REMARK    1  A    between atoms: C2_3  and  N2_4 
REMARK    2  A    between atoms: N4_11  and  C4_12 
REMARK    3  A    between atoms: C4_12  and  C5_13 
REMARK    4  A    between atoms: C6_17  and  N7_18 
REMARK    5  A    between atoms: N8_21  and  C7_22 
REMARK    6  A    between atoms: C7_22  and  C8_23 
REMARK    7  A    between atoms: C10_27  and  C11_28 
REMARK    8  A    between atoms: C11_28  and  N9_29 
REMARK    9  A    between atoms: C12_33  and  O4_34 
REMARK   10  A    between atoms: C12_33  and  C13_36 
ROOT
HETATM    1  C13 UNL     1      35.769  36.991  23.793  1.00  0.00     0.164 C 
HETATM    2  C14 UNL     1      35.693  36.458  22.463  1.00  0.00     0.062 C 
HETATM    3  N10 UNL     1      35.635  36.052  21.383  1.00  0.00    -0.197 NA
ENDROOT
BRANCH   1   4
HETATM    4  C12 UNL     1      36.183  36.003  24.861  1.00  0.00     0.106 C 
HETATM    5  C5  UNL     1      37.650  35.817  24.762  1.00  0.00     0.166 C 
HETATM    6  N5  UNL     1      38.199  36.840  25.675  1.00  0.00    -0.255 N 
HETATM    7  N6  UNL     1      39.283  37.500  25.947  1.00  0.00    -0.128 N 
HETATM    8  C9  UNL     1      37.254  37.250  26.548  1.00  0.00     0.127 A 
HETATM    9  C6  UNL     1      39.102  38.338  26.972  1.00  0.00     0.694 A 
ATOM     10  H6  UNL     1      40.163  37.393  25.442  1.00  0.00     0.206 HD
HETATM   11  N8  UNL     1      37.799  38.173  27.352  1.00  0.00    -0.159 N 
HETATM   12  C10 UNL     1      36.001  36.486  26.249  1.00  0.00     0.118 C 
BRANCH   5  13
HETATM   13  C4  UNL     1      38.294  34.521  25.002  1.00  0.00     0.185 C 
BRANCH  13  14
HETATM   14  N4  UNL     1      39.485  34.156  24.332  1.00  0.00    -0.224 N 
HETATM   15  N1  UNL     1      40.689  34.065  24.933  1.00  0.00    -0.122 N 
HETATM   16  C1  UNL     1      40.983  34.274  26.342  1.00  0.00     0.198 C 
HETATM   17  C2  UNL     1      41.631  33.743  24.036  1.00  0.00     0.696 A 
HETATM   18  N3  UNL     1      41.018  33.631  22.862  1.00  0.00    -0.139 N 
HETATM   19  C3  UNL     1      39.687  33.885  23.039  1.00  0.00     0.356 A 
ATOM     20  H3  UNL     1      41.467  33.395  21.977  1.00  0.00     0.189 HD
HETATM   21  O1  UNL     1      38.905  33.829  22.058  1.00  0.00    -0.244 OA
BRANCH  17  22
HETATM   22  N2  UNL     1      42.891  33.569  24.232  1.00  0.00    -0.233 N 
ATOM     23  H22 UNL     1      43.375  33.734  25.114  1.00  0.00     0.174 HD
ATOM     24  H21 UNL     1      43.595  33.249  23.567  1.00  0.00     0.174 HD
ENDBRANCH  17  22
ENDBRANCH  13  14
ENDBRANCH   5  13
BRANCH   9  25
HETATM   25  N7  UNL     1      39.921  39.144  27.525  1.00  0.00    -0.233 N 
ATOM     26  H72 UNL     1      40.271  40.000  27.095  1.00  0.00     0.174 HD
ATOM     27  H71 UNL     1      40.363  39.100  28.443  1.00  0.00     0.174 HD
ENDBRANCH   9  25
BRANCH  11  28
HETATM   28  C7  UNL     1      37.192  38.921  28.462  1.00  0.00     0.262 C 
BRANCH  28  29
HETATM   29  C8  UNL     1      36.577  40.156  27.933  1.00  0.00     0.192 C 
HETATM   30  O2  UNL     1      35.336  40.323  28.053  1.00  0.00    -0.647 OA
HETATM   31  O3  UNL     1      37.299  41.160  27.303  1.00  0.00    -0.647 OA
ENDBRANCH  28  29
ENDBRANCH  11  28
BRANCH  12  32
HETATM   32  C11 UNL     1      34.826  37.271  26.611  1.00  0.00     0.245 C 
BRANCH  32  33
HETATM   33  N9  UNL     1      33.620  36.480  26.838  1.00  0.00    -0.079 N 
ATOM     34  H93 UNL     1      33.278  36.092  25.958  1.00  0.00     0.274 HD
ATOM     35  H92 UNL     1      33.848  35.618  27.332  1.00  0.00     0.274 HD
ATOM     36  H91 UNL     1      32.873  36.981  27.320  1.00  0.00     0.274 HD
ENDBRANCH  32  33
ENDBRANCH  12  32
BRANCH   4  37
HETATM   37  O4  UNL     1      35.432  34.878  24.627  1.00  0.00    -0.386 OA
ATOM     38  H4  UNL     1      35.917  34.125  24.312  1.00  0.00     0.210 HD
ENDBRANCH   4  37
ENDBRANCH   1   4
TORSDOF 10
ENDMDL
MODEL 5
REMARK VINA RESULT: -4.780214691      3.442      4.457
REMARK  10 active torsions:
REMARK  status: ('A' for Active; 'I' for Inactive)
REMARK    1  A    between atoms: C2_3  and  N2_4 
REMARK    2  A    between atoms: N4_11  and  C4_12 
REMARK    3  A    between atoms: C4_12  and  C5_13 
REMARK    4  A    between atoms: C6_17  and  N7_18 
REMARK    5  A    between atoms: N8_21  and  C7_22 
REMARK    6  A    between atoms: C7_22  and  C8_23 
REMARK    7  A    between atoms: C10_27  and  C11_28 
REMARK    8  A    between atoms: C11_28  and  N9_29 
REMARK    9  A    between atoms: C12_33  and  O4_34 
REMARK   10  A    between atoms: C12_33  and  C13_36 
ROOT
HETATM    1  C13 UNL     1      41.354  37.554  24.019  1.00  0.00     0.164 C 
HETATM    2  C14 UNL     1      42.644  36.998  24.316  1.00  0.00     0.062 C 
HETATM    3  N10 UNL     1      43.691  36.575  24.556  1.00  0.00    -0.197 NA
ENDROOT
BRANCH   1   4
HETATM    4  C12 UNL     1      40.176  36.675  24.375  1.00  0.00     0.106 C 
HETATM    5  C5  UNL     1      39.251  37.475  25.214  1.00  0.00     0.166 C 
HETATM    6  N5  UNL     1      38.332  38.093  24.236  1.00  0.00    -0.255 N 
HETATM    7  N6  UNL     1      37.488  39.068  24.092  1.00  0.00    -0.128 N 
HETATM    8  C9  UNL     1      38.365  37.419  23.065  1.00  0.00     0.127 A 
HETATM    9  C6  UNL     1      36.950  39.074  22.870  1.00  0.00     0.694 A 
ATOM     10  H6  UNL     1      37.262  39.744  24.822  1.00  0.00     0.206 HD
HETATM   11  N8  UNL     1      37.517  38.015  22.216  1.00  0.00    -0.159 N 
HETATM   12  C10 UNL     1      39.329  36.284  23.225  1.00  0.00     0.118 C 
BRANCH   5  13
HETATM   13  C4  UNL     1      38.495  36.889  26.325  1.00  0.00     0.185 C 
BRANCH  13  14
HETATM   14  N4  UNL     1      37.141  36.508  26.173  1.00  0.00    -0.224 N 
HETATM   15  N1  UNL     1      36.100  37.230  26.634  1.00  0.00    -0.122 N 
HETATM   16  C1  UNL     1      36.156  38.514  27.315  1.00  0.00     0.198 C 
HETATM   17  C2  UNL     1      34.947  36.595  26.379  1.00  0.00     0.696 A 
HETATM   18  N3  UNL     1      35.263  35.465  25.754  1.00  0.00    -0.139 N 
HETATM   19  C3  UNL     1      36.622  35.406  25.622  1.00  0.00     0.356 A 
ATOM     20  H3  UNL     1      34.602  34.761  25.427  1.00  0.00     0.189 HD
HETATM   21  O1  UNL     1      37.152  34.421  25.050  1.00  0.00    -0.244 OA
BRANCH  17  22
HETATM   22  N2  UNL     1      33.750  36.970  26.668  1.00  0.00    -0.233 N 
ATOM     23  H22 UNL     1      33.006  37.128  25.989  1.00  0.00     0.174 HD
ATOM     24  H21 UNL     1      33.355  37.168  27.587  1.00  0.00     0.174 HD
ENDBRANCH  17  22
ENDBRANCH  13  14
ENDBRANCH   5  13
BRANCH   9  25
HETATM   25  N7  UNL     1      36.091  39.866  22.357  1.00  0.00    -0.233 N 
ATOM     26  H72 UNL     1      36.170  40.282  21.430  1.00  0.00     0.174 HD
ATOM     27  H71 UNL     1      35.215  40.218  22.740  1.00  0.00     0.174 HD
ENDBRANCH   9  25
BRANCH  11  28
HETATM   28  C7  UNL     1      37.190  37.668  20.826  1.00  0.00     0.262 C 
BRANCH  28  29
HETATM   29  C8  UNL     1      36.290  36.497  20.821  1.00  0.00     0.192 C 
HETATM   30  O2  UNL     1      36.092  35.880  19.743  1.00  0.00    -0.647 OA
HETATM   31  O3  UNL     1      35.640  36.025  21.954  1.00  0.00    -0.647 OA
ENDBRANCH  28  29
ENDBRANCH  11  28
BRANCH  12  32
HETATM   32  C11 UNL     1      39.935  35.946  21.942  1.00  0.00     0.245 C 
BRANCH  32  33
HETATM   33  N9  UNL     1      40.687  34.696  21.942  1.00  0.00    -0.079 N 
ATOM     34  H93 UNL     1      40.063  33.905  22.104  1.00  0.00     0.274 HD
ATOM     35  H92 UNL     1      41.009  34.474  21.000  1.00  0.00     0.274 HD
ATOM     36  H91 UNL     1      41.467  34.674  22.599  1.00  0.00     0.274 HD
ENDBRANCH  32  33
ENDBRANCH  12  32
BRANCH   4  37
HETATM   37  O4  UNL     1      40.716  35.571  24.988  1.00  0.00    -0.386 OA
ATOM     38  H4  UNL     1      40.135  35.112  25.582  1.00  0.00     0.210 HD
ENDBRANCH   4  37
ENDBRANCH   1   4
TORSDOF 10
ENDMDL
