MODEL 1
REMARK VINA RESULT: -6.048142136      0.000      0.000
REMARK  10 active torsions:
REMARK  status: ('A' for Active; 'I' for Inactive)
REMARK    1  A    between atoms: C1_2  and  C2_4 
REMARK    2  A    between atoms: C2_4  and  C13_35 
REMARK    3  A    between atoms: C3_5  and  C4_6 
REMARK    4  A    between atoms: C5_8  and  N2_9 
REMARK    5  A    between atoms: C6_12  and  C7_13 
REMARK    6  A    between atoms: C8_18  and  C9_19 
REMARK    7  A    between atoms: C9_19  and  N6_20 
REMARK    8  A    between atoms: C9_19  and  N7_24 
REMARK    9  A    between atoms: C11_29  and  O4_30 
REMARK   10  A    between atoms: C11_29  and  C12_32 
ROOT
HETATM    1  N2  UNL     1      35.941  34.346  25.880  1.00  0.00    -0.245 N 
HETATM    2  N3  UNL     1      34.762  34.120  26.423  1.00  0.00    -0.275 N 
ATOM      3  H3  UNL     1      33.977  34.769  26.386  1.00  0.00     0.189 HD
HETATM    4  C6  UNL     1      34.730  32.943  27.022  1.00  0.00     0.188 A 
HETATM    5  N5  UNL     1      35.946  32.402  26.849  1.00  0.00    -0.322 N 
ATOM      6  H5  UNL     1      36.251  31.491  27.192  1.00  0.00     0.169 HD
HETATM    7  C8  UNL     1      36.699  33.279  26.138  1.00  0.00     0.161 A 
ENDROOT
BRANCH   1   8
HETATM    8  C5  UNL     1      36.269  35.566  25.161  1.00  0.00     0.250 C 
HETATM    9  O2  UNL     1      35.503  36.584  25.671  1.00  0.00    -0.352 OA
HETATM   10  C4  UNL     1      36.258  37.735  25.872  1.00  0.00     0.193 C 
HETATM   11  C11 UNL     1      37.595  37.497  25.223  1.00  0.00     0.179 C 
HETATM   12  C10 UNL     1      37.669  35.987  25.297  1.00  0.00     0.108 C 
BRANCH  10  13
HETATM   13  C3  UNL     1      36.390  38.051  27.295  1.00  0.00     0.032 C 
HETATM   14  C2  UNL     1      36.517  39.225  27.872  1.00  0.00     0.104 C 
BRANCH  14  15
HETATM   15  C1  UNL     1      36.635  39.281  29.353  1.00  0.00     0.271 C 
HETATM   16  N1  UNL     1      37.747  38.667  29.946  1.00  0.00    -0.057 NA
HETATM   17  O1  UNL     1      35.771  39.853  30.014  1.00  0.00    -0.271 OA
ENDBRANCH  14  15
BRANCH  14  18
HETATM   18  C13 UNL     1      36.555  40.505  27.207  1.00  0.00     0.214 C 
HETATM   19  O7  UNL     1      35.638  41.329  27.290  1.00  0.00    -0.644 OA
HETATM   20  O8  UNL     1      37.657  40.843  26.437  1.00  0.00    -0.644 OA
ENDBRANCH  14  18
ENDBRANCH  10  13
BRANCH  11  21
HETATM   21  O4  UNL     1      38.664  38.067  25.915  1.00  0.00    -0.376 OA
ATOM     22  H4  UNL     1      39.245  38.580  25.366  1.00  0.00     0.211 HD
ENDBRANCH  11  21
BRANCH  11  23
HETATM   23  C12 UNL     1      37.565  37.935  23.806  1.00  0.00     0.212 C 
HETATM   24  O5  UNL     1      38.364  37.482  22.954  1.00  0.00    -0.646 OA
HETATM   25  O6  UNL     1      36.643  38.876  23.350  1.00  0.00    -0.646 OA
ENDBRANCH  11  23
ENDBRANCH   1   8
BRANCH   7  26
HETATM   26  C9  UNL     1      38.090  33.052  25.738  1.00  0.00     0.446 C 
BRANCH  26  27
HETATM   27  N6  UNL     1      38.307  31.831  24.989  1.00  0.00    -0.043 N 
ATOM     28  H63 UNL     1      37.680  31.790  24.186  1.00  0.00     0.277 HD
ATOM     29  H62 UNL     1      39.206  31.865  24.507  1.00  0.00     0.277 HD
ATOM     30  H61 UNL     1      38.233  30.977  25.543  1.00  0.00     0.277 HD
ENDBRANCH  26  27
BRANCH  26  31
HETATM   31  N7  UNL     1      38.911  32.886  26.955  1.00  0.00    -0.043 N 
ATOM     32  H73 UNL     1      39.284  33.771  27.297  1.00  0.00     0.277 HD
ATOM     33  H72 UNL     1      38.352  32.643  27.772  1.00  0.00     0.277 HD
ATOM     34  H71 UNL     1      39.643  32.201  26.764  1.00  0.00     0.277 HD
ENDBRANCH  26  31
ENDBRANCH   7  26
BRANCH   4  35
HETATM   35  C7  UNL     1      33.601  32.325  27.742  1.00  0.00     0.300 C 
HETATM   36  N4  UNL     1      32.270  32.516  27.287  1.00  0.00    -0.054 NA
HETATM   37  O3  UNL     1      33.810  31.633  28.754  1.00  0.00    -0.268 OA
ENDBRANCH   4  35
TORSDOF 10
ENDMDL
MODEL 2
REMARK VINA RESULT: -5.836279132      2.778      4.923
REMARK  10 active torsions:
REMARK  status: ('A' for Active; 'I' for Inactive)
REMARK    1  A    between atoms: C1_2  and  C2_4 
REMARK    2  A    between atoms: C2_4  and  C13_35 
REMARK    3  A    between atoms: C3_5  and  C4_6 
REMARK    4  A    between atoms: C5_8  and  N2_9 
REMARK    5  A    between atoms: C6_12  and  C7_13 
REMARK    6  A    between atoms: C8_18  and  C9_19 
REMARK    7  A    between atoms: C9_19  and  N6_20 
REMARK    8  A    between atoms: C9_19  and  N7_24 
REMARK    9  A    between atoms: C11_29  and  O4_30 
REMARK   10  A    between atoms: C11_29  and  C12_32 
ROOT
HETATM    1  N2  UNL     1      36.678  34.247  25.965  1.00  0.00    -0.245 N 
HETATM    2  N3  UNL     1      36.138  33.090  26.287  1.00  0.00    -0.275 N 
ATOM      3  H3  UNL     1      36.619  32.193  26.226  1.00  0.00     0.189 HD
HETATM    4  C6  UNL     1      34.892  33.242  26.699  1.00  0.00     0.188 A 
HETATM    5  N5  UNL     1      34.635  34.557  26.633  1.00  0.00    -0.322 N 
ATOM      6  H5  UNL     1      33.755  35.009  26.884  1.00  0.00     0.169 HD
HETATM    7  C8  UNL     1      35.750  35.182  26.174  1.00  0.00     0.161 A 
ENDROOT
BRANCH   1   8
HETATM    8  C5  UNL     1      38.038  34.385  25.471  1.00  0.00     0.250 C 
HETATM    9  O2  UNL     1      37.980  34.699  24.136  1.00  0.00    -0.352 OA
HETATM   10  C4  UNL     1      38.869  35.721  23.817  1.00  0.00     0.193 C 
HETATM   11  C11 UNL     1      39.739  35.935  25.026  1.00  0.00     0.179 C 
HETATM   12  C10 UNL     1      38.809  35.453  26.120  1.00  0.00     0.108 C 
BRANCH  10  13
HETATM   13  C3  UNL     1      38.167  36.944  23.426  1.00  0.00     0.032 C 
HETATM   14  C2  UNL     1      37.435  37.170  22.358  1.00  0.00     0.104 C 
BRANCH  14  15
HETATM   15  C1  UNL     1      36.821  38.514  22.188  1.00  0.00     0.271 C 
HETATM   16  N1  UNL     1      37.226  39.286  21.090  1.00  0.00    -0.057 NA
HETATM   17  O1  UNL     1      35.988  38.912  22.998  1.00  0.00    -0.271 OA
ENDBRANCH  14  15
BRANCH  14  18
HETATM   18  C13 UNL     1      37.153  36.232  21.300  1.00  0.00     0.214 C 
HETATM   19  O7  UNL     1      37.985  35.927  20.437  1.00  0.00    -0.644 OA
HETATM   20  O8  UNL     1      35.904  35.636  21.229  1.00  0.00    -0.644 OA
ENDBRANCH  14  18
ENDBRANCH  10  13
BRANCH  11  21
HETATM   21  O4  UNL     1      40.085  37.269  25.240  1.00  0.00    -0.376 OA
ATOM     22  H4  UNL     1      39.382  37.792  25.606  1.00  0.00     0.211 HD
ENDBRANCH  11  21
BRANCH  11  23
HETATM   23  C12 UNL     1      40.938  35.063  24.960  1.00  0.00     0.212 C 
HETATM   24  O5  UNL     1      41.632  34.810  25.971  1.00  0.00    -0.646 OA
HETATM   25  O6  UNL     1      41.354  34.481  23.763  1.00  0.00    -0.646 OA
ENDBRANCH  11  23
ENDBRANCH   1   8
BRANCH   7  26
HETATM   26  C9  UNL     1      35.871  36.627  25.968  1.00  0.00     0.446 C 
BRANCH  26  27
HETATM   27  N6  UNL     1      35.529  37.429  27.124  1.00  0.00    -0.043 N 
ATOM     28  H63 UNL     1      34.596  37.188  27.461  1.00  0.00     0.277 HD
ATOM     29  H62 UNL     1      36.085  37.145  27.931  1.00  0.00     0.277 HD
ATOM     30  H61 UNL     1      35.604  38.436  26.978  1.00  0.00     0.277 HD
ENDBRANCH  26  27
BRANCH  26  31
HETATM   31  N7  UNL     1      34.899  37.041  24.935  1.00  0.00    -0.043 N 
ATOM     32  H73 UNL     1      35.303  37.683  24.254  1.00  0.00     0.277 HD
ATOM     33  H72 UNL     1      34.665  36.283  24.293  1.00  0.00     0.277 HD
ATOM     34  H71 UNL     1      34.076  37.429  25.397  1.00  0.00     0.277 HD
ENDBRANCH  26  31
ENDBRANCH   7  26
BRANCH   4  35
HETATM   35  C7  UNL     1      33.954  32.196  27.147  1.00  0.00     0.300 C 
HETATM   36  N4  UNL     1      32.568  32.478  27.262  1.00  0.00    -0.054 NA
HETATM   37  O3  UNL     1      34.374  31.059  27.427  1.00  0.00    -0.268 OA
ENDBRANCH   4  35
TORSDOF 10
ENDMDL
MODEL 3
REMARK VINA RESULT: -5.799292896      2.439      5.074
REMARK  10 active torsions:
REMARK  status: ('A' for Active; 'I' for Inactive)
REMARK    1  A    between atoms: C1_2  and  C2_4 
REMARK    2  A    between atoms: C2_4  and  C13_35 
REMARK    3  A    between atoms: C3_5  and  C4_6 
REMARK    4  A    between atoms: C5_8  and  N2_9 
REMARK    5  A    between atoms: C6_12  and  C7_13 
REMARK    6  A    between atoms: C8_18  and  C9_19 
REMARK    7  A    between atoms: C9_19  and  N6_20 
REMARK    8  A    between atoms: C9_19  and  N7_24 
REMARK    9  A    between atoms: C11_29  and  O4_30 
REMARK   10  A    between atoms: C11_29  and  C12_32 
ROOT
HETATM    1  N2  UNL     1      36.292  33.343  26.236  1.00  0.00    -0.245 N 
HETATM    2  N3  UNL     1      37.184  32.673  25.535  1.00  0.00    -0.275 N 
ATOM      3  H3  UNL     1      37.995  33.093  25.082  1.00  0.00     0.189 HD
HETATM    4  C6  UNL     1      36.890  31.385  25.496  1.00  0.00     0.188 A 
HETATM    5  N5  UNL     1      35.760  31.238  26.204  1.00  0.00    -0.322 N 
ATOM      6  H5  UNL     1      35.266  30.361  26.369  1.00  0.00     0.169 HD
HETATM    7  C8  UNL     1      35.389  32.461  26.664  1.00  0.00     0.161 A 
ENDROOT
BRANCH   1   8
HETATM    8  C5  UNL     1      36.355  34.781  26.442  1.00  0.00     0.250 C 
HETATM    9  O2  UNL     1      37.298  35.296  25.590  1.00  0.00    -0.352 OA
HETATM   10  C4  UNL     1      36.841  36.455  24.968  1.00  0.00     0.193 C 
HETATM   11  C11 UNL     1      35.559  36.840  25.655  1.00  0.00     0.179 C 
HETATM   12  C10 UNL     1      35.100  35.486  26.155  1.00  0.00     0.108 C 
BRANCH  10  13
HETATM   13  C3  UNL     1      36.653  36.257  23.531  1.00  0.00     0.032 C 
HETATM   14  C2  UNL     1      36.735  37.136  22.558  1.00  0.00     0.104 C 
BRANCH  14  15
HETATM   15  C1  UNL     1      36.498  36.679  21.163  1.00  0.00     0.271 C 
HETATM   16  N1  UNL     1      36.989  37.476  20.119  1.00  0.00    -0.057 NA
HETATM   17  O1  UNL     1      35.887  35.633  20.958  1.00  0.00    -0.271 OA
ENDBRANCH  14  15
BRANCH  14  18
HETATM   18  C13 UNL     1      37.041  38.539  22.697  1.00  0.00     0.214 C 
HETATM   19  O7  UNL     1      38.199  38.972  22.716  1.00  0.00    -0.644 OA
HETATM   20  O8  UNL     1      36.009  39.455  22.818  1.00  0.00    -0.644 OA
ENDBRANCH  14  18
ENDBRANCH  10  13
BRANCH  11  21
HETATM   21  O4  UNL     1      34.604  37.387  24.797  1.00  0.00    -0.376 OA
ATOM     22  H4  UNL     1      34.030  36.741  24.403  1.00  0.00     0.211 HD
ENDBRANCH  11  21
BRANCH  11  23
HETATM   23  C12 UNL     1      35.838  37.736  26.804  1.00  0.00     0.212 C 
HETATM   24  O5  UNL     1      34.942  38.086  27.607  1.00  0.00    -0.646 OA
HETATM   25  O6  UNL     1      37.117  38.236  27.048  1.00  0.00    -0.646 OA
ENDBRANCH  11  23
ENDBRANCH   1   8
BRANCH   7  26
HETATM   26  C9  UNL     1      34.205  32.718  27.487  1.00  0.00     0.446 C 
BRANCH  26  27
HETATM   27  N6  UNL     1      33.928  31.697  28.476  1.00  0.00    -0.043 N 
ATOM     28  H63 UNL     1      34.126  30.771  28.097  1.00  0.00     0.277 HD
ATOM     29  H62 UNL     1      34.621  31.731  29.225  1.00  0.00     0.277 HD
ATOM     30  H61 UNL     1      32.985  31.729  28.864  1.00  0.00     0.277 HD
ENDBRANCH  26  27
BRANCH  26  31
HETATM   31  N7  UNL     1      33.012  32.715  26.615  1.00  0.00    -0.043 N 
ATOM     32  H73 UNL     1      32.909  33.584  26.092  1.00  0.00     0.277 HD
ATOM     33  H72 UNL     1      33.112  32.083  25.820  1.00  0.00     0.277 HD
ATOM     34  H71 UNL     1      32.193  32.501  27.183  1.00  0.00     0.277 HD
ENDBRANCH  26  31
ENDBRANCH   7  26
BRANCH   4  35
HETATM   35  C7  UNL     1      37.635  30.308  24.818  1.00  0.00     0.300 C 
HETATM   36  N4  UNL     1      38.016  30.445  23.458  1.00  0.00    -0.054 NA
HETATM   37  O3  UNL     1      37.933  29.271  25.437  1.00  0.00    -0.268 OA
ENDBRANCH   4  35
TORSDOF 10
ENDMDL
MODEL 4
REMARK VINA RESULT: -5.743317907      4.621      7.553
REMARK  10 active torsions:
REMARK  status: ('A' for Active; 'I' for Inactive)
REMARK    1  A    between atoms: C1_2  and  C2_4 
REMARK    2  A    between atoms: C2_4  and  C13_35 
REMARK    3  A    between atoms: C3_5  and  C4_6 
REMARK    4  A    between atoms: C5_8  and  N2_9 
REMARK    5  A    between atoms: C6_12  and  C7_13 
REMARK    6  A    between atoms: C8_18  and  C9_19 
REMARK    7  A    between atoms: C9_19  and  N6_20 
REMARK    8  A    between atoms: C9_19  and  N7_24 
REMARK    9  A    between atoms: C11_29  and  O4_30 
REMARK   10  A    between atoms: C11_29  and  C12_32 
ROOT
HETATM    1  N2  UNL     1      36.716  32.891  26.464  1.00  0.00    -0.245 N 
HETATM    2  N3  UNL     1      35.810  32.177  27.101  1.00  0.00    -0.275 N 
ATOM      3  H3  UNL     1      35.983  31.259  27.510  1.00  0.00     0.189 HD
HETATM    4  C6  UNL     1      34.648  32.805  27.141  1.00  0.00     0.188 A 
HETATM    5  N5  UNL     1      34.831  33.969  26.498  1.00  0.00    -0.322 N 
ATOM      6  H5  UNL     1      34.124  34.690  26.352  1.00  0.00     0.169 HD
HETATM    7  C8  UNL     1      36.121  34.020  26.076  1.00  0.00     0.161 A 
ENDROOT
BRANCH   1   8
HETATM    8  C5  UNL     1      38.084  32.446  26.259  1.00  0.00     0.250 C 
HETATM    9  O2  UNL     1      38.561  31.961  27.450  1.00  0.00    -0.352 OA
HETATM   10  C4  UNL     1      39.247  30.763  27.272  1.00  0.00     0.193 C 
HETATM   11  C11 UNL     1      39.412  30.572  25.789  1.00  0.00     0.179 C 
HETATM   12  C10 UNL     1      38.224  31.361  25.279  1.00  0.00     0.108 C 
BRANCH  10  13
HETATM   13  C3  UNL     1      38.541  29.641  27.893  1.00  0.00     0.032 C 
HETATM   14  C2  UNL     1      38.840  28.983  28.990  1.00  0.00     0.104 C 
BRANCH  14  15
HETATM   15  C1  UNL     1      37.953  27.868  29.415  1.00  0.00     0.271 C 
HETATM   16  N1  UNL     1      37.503  27.858  30.743  1.00  0.00    -0.057 NA
HETATM   17  O1  UNL     1      37.640  26.995  28.610  1.00  0.00    -0.271 OA
ENDBRANCH  14  15
BRANCH  14  18
HETATM   18  C13 UNL     1      39.968  29.229  29.854  1.00  0.00     0.214 C 
HETATM   19  O7  UNL     1      40.013  30.185  30.638  1.00  0.00    -0.644 OA
HETATM   20  O8  UNL     1      41.057  28.373  29.820  1.00  0.00    -0.644 OA
ENDBRANCH  14  18
ENDBRANCH  10  13
BRANCH  11  21
HETATM   21  O4  UNL     1      39.319  29.241  25.380  1.00  0.00    -0.376 OA
ATOM     22  H4  UNL     1      39.196  29.137  24.444  1.00  0.00     0.211 HD
ENDBRANCH  11  21
BRANCH  11  23
HETATM   23  C12 UNL     1      40.673  31.199  25.325  1.00  0.00     0.212 C 
HETATM   24  O5  UNL     1      41.619  31.447  26.108  1.00  0.00    -0.646 OA
HETATM   25  O6  UNL     1      40.870  31.546  23.989  1.00  0.00    -0.646 OA
ENDBRANCH  11  23
ENDBRANCH   1   8
BRANCH   7  26
HETATM   26  C9  UNL     1      36.713  35.137  25.338  1.00  0.00     0.446 C 
BRANCH  26  27
HETATM   27  N6  UNL     1      37.440  36.082  26.161  1.00  0.00    -0.043 N 
ATOM     28  H63 UNL     1      36.823  36.837  26.464  1.00  0.00     0.277 HD
ATOM     29  H62 UNL     1      37.665  35.667  27.065  1.00  0.00     0.277 HD
ATOM     30  H61 UNL     1      38.280  36.463  25.726  1.00  0.00     0.277 HD
ENDBRANCH  26  27
BRANCH  26  31
HETATM   31  N7  UNL     1      35.627  35.936  24.735  1.00  0.00    -0.043 N 
ATOM     32  H73 UNL     1      34.706  35.531  24.902  1.00  0.00     0.277 HD
ATOM     33  H72 UNL     1      35.481  36.822  25.218  1.00  0.00     0.277 HD
ATOM     34  H71 UNL     1      35.824  36.060  23.742  1.00  0.00     0.277 HD
ENDBRANCH  26  31
ENDBRANCH   7  26
BRANCH   4  35
HETATM   35  C7  UNL     1      33.392  32.344  27.759  1.00  0.00     0.300 C 
HETATM   36  N4  UNL     1      32.147  32.598  27.128  1.00  0.00    -0.054 NA
HETATM   37  O3  UNL     1      33.417  31.731  28.841  1.00  0.00    -0.268 OA
ENDBRANCH   4  35
TORSDOF 10
ENDMDL
MODEL 5
REMARK VINA RESULT: -5.706630537      2.297      4.738
REMARK  10 active torsions:
REMARK  status: ('A' for Active; 'I' for Inactive)
REMARK    1  A    between atoms: C1_2  and  C2_4 
REMARK    2  A    between atoms: C2_4  and  C13_35 
REMARK    3  A    between atoms: C3_5  and  C4_6 
REMARK    4  A    between atoms: C5_8  and  N2_9 
REMARK    5  A    between atoms: C6_12  and  C7_13 
REMARK    6  A    between atoms: C8_18  and  C9_19 
REMARK    7  A    between atoms: C9_19  and  N6_20 
REMARK    8  A    between atoms: C9_19  and  N7_24 
REMARK    9  A    between atoms: C11_29  and  O4_30 
REMARK   10  A    between atoms: C11_29  and  C12_32 
ROOT
HETATM    1  N2  UNL     1      36.574  34.591  26.014  1.00  0.00    -0.245 N 
HETATM    2  N3  UNL     1      35.379  34.114  26.296  1.00  0.00    -0.275 N 
ATOM      3  H3  UNL     1      34.532  34.678  26.351  1.00  0.00     0.189 HD
HETATM    4  C6  UNL     1      35.421  32.810  26.499  1.00  0.00     0.188 A 
HETATM    5  N5  UNL     1      36.704  32.448  26.339  1.00  0.00    -0.322 N 
ATOM      6  H5  UNL     1      37.075  31.502  26.427  1.00  0.00     0.169 HD
HETATM    7  C8  UNL     1      37.420  33.561  26.037  1.00  0.00     0.161 A 
ENDROOT
BRANCH   1   8
HETATM    8  C5  UNL     1      36.831  35.997  25.751  1.00  0.00     0.250 C 
HETATM    9  O2  UNL     1      37.809  36.083  24.792  1.00  0.00    -0.352 OA
HETATM   10  C4  UNL     1      37.489  37.033  23.826  1.00  0.00     0.193 C 
HETATM   11  C11 UNL     1      36.290  37.785  24.336  1.00  0.00     0.179 C 
HETATM   12  C10 UNL     1      35.672  36.736  25.235  1.00  0.00     0.108 C 
BRANCH  10  13
HETATM   13  C3  UNL     1      37.234  36.414  22.525  1.00  0.00     0.032 C 
HETATM   14  C2  UNL     1      37.440  36.904  21.323  1.00  0.00     0.104 C 
BRANCH  14  15
HETATM   15  C1  UNL     1      37.093  36.066  20.144  1.00  0.00     0.271 C 
HETATM   16  N1  UNL     1      38.120  35.328  19.540  1.00  0.00    -0.057 NA
HETATM   17  O1  UNL     1      35.936  36.040  19.732  1.00  0.00    -0.271 OA
ENDBRANCH  14  15
BRANCH  14  18
HETATM   18  C13 UNL     1      37.981  38.204  21.010  1.00  0.00     0.214 C 
HETATM   19  O7  UNL     1      39.149  38.370  20.640  1.00  0.00    -0.644 OA
HETATM   20  O8  UNL     1      37.175  39.326  21.124  1.00  0.00    -0.644 OA
ENDBRANCH  14  18
ENDBRANCH  10  13
BRANCH  11  21
HETATM   21  O4  UNL     1      35.391  38.153  23.334  1.00  0.00    -0.376 OA
ATOM     22  H4  UNL     1      35.472  39.059  23.062  1.00  0.00     0.211 HD
ENDBRANCH  11  21
BRANCH  11  23
HETATM   23  C12 UNL     1      36.719  38.955  25.141  1.00  0.00     0.212 C 
HETATM   24  O5  UNL     1      37.445  39.859  24.667  1.00  0.00    -0.646 OA
HETATM   25  O6  UNL     1      36.334  39.106  26.473  1.00  0.00    -0.646 OA
ENDBRANCH  11  23
ENDBRANCH   1   8
BRANCH   7  26
HETATM   26  C9  UNL     1      38.862  33.580  25.781  1.00  0.00     0.446 C 
BRANCH  26  27
HETATM   27  N6  UNL     1      39.224  33.517  24.380  1.00  0.00    -0.043 N 
ATOM     28  H63 UNL     1      39.453  32.559  24.114  1.00  0.00     0.277 HD
ATOM     29  H62 UNL     1      38.403  33.670  23.793  1.00  0.00     0.277 HD
ATOM     30  H61 UNL     1      39.977  34.151  24.109  1.00  0.00     0.277 HD
ENDBRANCH  26  27
BRANCH  26  31
HETATM   31  N7  UNL     1      39.464  32.365  26.369  1.00  0.00    -0.043 N 
ATOM     32  H73 UNL     1      38.915  31.527  26.179  1.00  0.00     0.277 HD
ATOM     33  H72 UNL     1      40.320  32.084  25.891  1.00  0.00     0.277 HD
ATOM     34  H71 UNL     1      39.606  32.521  27.367  1.00  0.00     0.277 HD
ENDBRANCH  26  31
ENDBRANCH   7  26
BRANCH   4  35
HETATM   35  C7  UNL     1      34.303  31.910  26.836  1.00  0.00     0.300 C 
HETATM   36  N4  UNL     1      32.992  32.428  27.005  1.00  0.00    -0.054 NA
HETATM   37  O3  UNL     1      34.502  30.691  26.975  1.00  0.00    -0.268 OA
ENDBRANCH   4  35
TORSDOF 10
ENDMDL
