MODEL 1
REMARK VINA RESULT: -6.661352956      0.000      0.000
REMARK  8 active torsions:
REMARK  status: ('A' for Active; 'I' for Inactive)
REMARK    1  A    between atoms: N1_2  and  C2_3 
REMARK    2  A    between atoms: N1_2  and  C12_36 
REMARK    3  A    between atoms: C2_3  and  N2_4 
REMARK    4  A    between atoms: N2_4  and  C3_6 
REMARK       I    between atoms: N7_19  and  C8_21 
REMARK       I    between atoms: C8_21  and  N8_22 
REMARK       I    between atoms: C8_21  and  N9_26 
REMARK    5  A    between atoms: C12_36  and  C13_37 
REMARK       I    between atoms: C13_37  and  N12_39 
REMARK    6  A    between atoms: N12_39  and  C14_41 
REMARK    7  A    between atoms: C14_41  and  C15_42 
REMARK    8  A    between atoms: C15_42  and  O2_43 
ROOT
HETATM    1  C3  UNL     1      35.034  33.337  26.749  1.00  0.00     0.137 A 
HETATM    2  N3  UNL     1      33.780  33.685  27.078  1.00  0.00    -0.337 N 
ATOM      3  H3  UNL     1      33.409  34.546  26.674  1.00  0.00     0.168 HD
HETATM    4  C4  UNL     1      32.979  32.992  27.896  1.00  0.00     0.183 A 
HETATM    5  N4  UNL     1      33.465  31.860  28.429  1.00  0.00    -0.337 N 
ATOM      6  H4  UNL     1      32.885  31.304  29.058  1.00  0.00     0.168 HD
HETATM    7  C5  UNL     1      34.712  31.458  28.137  1.00  0.00     0.139 A 
HETATM    8  N5  UNL     1      35.157  30.325  28.690  1.00  0.00    -0.323 N 
ATOM      9  H5  UNL     1      34.553  29.790  29.315  1.00  0.00     0.169 HD
HETATM   10  C6  UNL     1      36.389  29.895  28.424  1.00  0.00     0.168 A 
HETATM   11  N6  UNL     1      37.023  28.806  28.864  1.00  0.00    -0.173 N 
ATOM     12  H6  UNL     1      36.653  28.099  29.499  1.00  0.00     0.186 HD
HETATM   13  C7  UNL     1      38.255  28.824  28.302  1.00  0.00     0.686 A 
HETATM   14  N7  UNL     1      39.210  27.979  28.439  1.00  0.00    -0.173 N 
ATOM     15  H7  UNL     1      40.075  28.161  27.932  1.00  0.00     0.181 HD
HETATM   16  C8  UNL     1      39.157  26.803  29.247  1.00  0.00     0.494 C 
HETATM   17  N8  UNL     1      38.059  25.922  28.989  1.00  0.00    -0.032 N 
ATOM     18  H81 UNL     1      38.021  25.083  29.566  1.00  0.00     0.278 HD
ATOM     19  H82 UNL     1      38.042  25.667  28.001  1.00  0.00     0.278 HD
ATOM     20  H83 UNL     1      37.179  26.433  29.059  1.00  0.00     0.278 HD
HETATM   21  N9  UNL     1      39.183  27.085  30.668  1.00  0.00    -0.032 N 
ATOM     22  H91 UNL     1      39.145  26.245  31.245  1.00  0.00     0.278 HD
ATOM     23  H92 UNL     1      38.438  27.734  30.923  1.00  0.00     0.278 HD
ATOM     24  H93 UNL     1      39.994  27.655  30.910  1.00  0.00     0.278 HD
HETATM   25  N10 UNL     1      38.367  29.917  27.526  1.00  0.00    -0.169 N 
HETATM   26  C9  UNL     1      39.534  30.305  26.747  1.00  0.00     0.177 C 
HETATM   27  C10 UNL     1      37.206  30.624  27.575  1.00  0.00     0.169 A 
HETATM   28  N11 UNL     1      36.788  31.767  27.003  1.00  0.00    -0.333 N 
ATOM     29  H11 UNL     1      37.392  32.302  26.379  1.00  0.00     0.168 HD
HETATM   30  C11 UNL     1      35.531  32.177  27.295  1.00  0.00     0.123 A 
ENDROOT
BRANCH   1  31
HETATM   31  N2  UNL     1      35.661  34.094  25.968  1.00  0.00    -0.341 N 
ATOM     32  H2  UNL     1      36.261  33.597  25.309  1.00  0.00     0.167 HD
BRANCH  31  33
HETATM   33  C2  UNL     1      35.699  35.494  25.822  1.00  0.00     0.152 C 
BRANCH  33  34
HETATM   34  N1  UNL     1      36.487  35.962  24.708  1.00  0.00    -0.275 NA
HETATM   35  C1  UNL     1      37.783  36.453  25.103  1.00  0.00     0.118 C 
BRANCH  34  36
HETATM   36  C12 UNL     1      35.771  36.902  23.877  1.00  0.00     0.198 C 
BRANCH  36  37
HETATM   37  C13 UNL     1      36.048  36.633  22.452  1.00  0.00     0.231 C 
HETATM   38  O1  UNL     1      35.368  35.792  21.840  1.00  0.00    -0.272 OA
HETATM   39  N12 UNL     1      37.076  37.326  21.794  1.00  0.00    -0.358 N 
ATOM     40  H12 UNL     1      37.628  38.016  22.304  1.00  0.00     0.162 HD
BRANCH  39  41
HETATM   41  C14 UNL     1      37.356  37.072  20.416  1.00  0.00     0.148 C 
BRANCH  41  42
HETATM   42  C15 UNL     1      38.371  36.009  20.149  1.00  0.00     0.183 C 
BRANCH  42  43
HETATM   43  O2  UNL     1      37.898  34.734  20.496  1.00  0.00    -0.399 OA
ATOM     44  H2  UNL     1      38.275  34.055  19.949  1.00  0.00     0.209 HD
ENDBRANCH  42  43
ENDBRANCH  41  42
ENDBRANCH  39  41
ENDBRANCH  36  37
ENDBRANCH  34  36
ENDBRANCH  33  34
ENDBRANCH  31  33
ENDBRANCH   1  31
TORSDOF 8
ENDMDL
MODEL 2
REMARK VINA RESULT: -6.653148794      2.915      3.922
REMARK  8 active torsions:
REMARK  status: ('A' for Active; 'I' for Inactive)
REMARK    1  A    between atoms: N1_2  and  C2_3 
REMARK    2  A    between atoms: N1_2  and  C12_36 
REMARK    3  A    between atoms: C2_3  and  N2_4 
REMARK    4  A    between atoms: N2_4  and  C3_6 
REMARK       I    between atoms: N7_19  and  C8_21 
REMARK       I    between atoms: C8_21  and  N8_22 
REMARK       I    between atoms: C8_21  and  N9_26 
REMARK    5  A    between atoms: C12_36  and  C13_37 
REMARK       I    between atoms: C13_37  and  N12_39 
REMARK    6  A    between atoms: N12_39  and  C14_41 
REMARK    7  A    between atoms: C14_41  and  C15_42 
REMARK    8  A    between atoms: C15_42  and  O2_43 
ROOT
HETATM    1  C3  UNL     1      34.985  33.366  26.666  1.00  0.00     0.137 A 
HETATM    2  N3  UNL     1      33.748  33.729  27.042  1.00  0.00    -0.337 N 
ATOM      3  H3  UNL     1      33.364  34.584  26.637  1.00  0.00     0.168 HD
HETATM    4  C4  UNL     1      32.979  33.056  27.906  1.00  0.00     0.183 A 
HETATM    5  N4  UNL     1      33.482  31.932  28.440  1.00  0.00    -0.337 N 
ATOM      6  H4  UNL     1      32.927  31.392  29.104  1.00  0.00     0.168 HD
HETATM    7  C5  UNL     1      34.713  31.517  28.103  1.00  0.00     0.139 A 
HETATM    8  N5  UNL     1      35.175  30.391  28.658  1.00  0.00    -0.323 N 
ATOM      9  H5  UNL     1      34.596  29.872  29.318  1.00  0.00     0.169 HD
HETATM   10  C6  UNL     1      36.392  29.949  28.348  1.00  0.00     0.168 A 
HETATM   11  N6  UNL     1      37.040  28.865  28.781  1.00  0.00    -0.173 N 
ATOM     12  H6  UNL     1      36.693  28.173  29.445  1.00  0.00     0.186 HD
HETATM   13  C7  UNL     1      38.246  28.864  28.166  1.00  0.00     0.686 A 
HETATM   14  N7  UNL     1      39.202  28.016  28.279  1.00  0.00    -0.173 N 
ATOM     15  H7  UNL     1      40.045  28.184  27.732  1.00  0.00     0.181 HD
HETATM   16  C8  UNL     1      39.177  26.857  29.111  1.00  0.00     0.494 C 
HETATM   17  N8  UNL     1      38.064  25.978  28.917  1.00  0.00    -0.032 N 
ATOM     18  H81 UNL     1      38.046  25.150  29.512  1.00  0.00     0.278 HD
ATOM     19  H82 UNL     1      38.004  25.704  27.937  1.00  0.00     0.278 HD
ATOM     20  H83 UNL     1      37.190  26.495  29.016  1.00  0.00     0.278 HD
HETATM   21  N9  UNL     1      39.266  27.165  30.524  1.00  0.00    -0.032 N 
ATOM     22  H91 UNL     1      39.248  26.337  31.119  1.00  0.00     0.278 HD
ATOM     23  H92 UNL     1      38.536  27.824  30.798  1.00  0.00     0.278 HD
ATOM     24  H93 UNL     1      40.089  27.735  30.720  1.00  0.00     0.278 HD
HETATM   25  N10 UNL     1      38.330  29.941  27.366  1.00  0.00    -0.169 N 
HETATM   26  C9  UNL     1      39.465  30.308  26.530  1.00  0.00     0.177 C 
HETATM   27  C10 UNL     1      37.176  30.657  27.450  1.00  0.00     0.169 A 
HETATM   28  N11 UNL     1      36.740  31.791  26.875  1.00  0.00    -0.333 N 
ATOM     29  H11 UNL     1      37.319  32.311  26.215  1.00  0.00     0.168 HD
HETATM   30  C11 UNL     1      35.498  32.214  27.212  1.00  0.00     0.123 A 
ENDROOT
BRANCH   1  31
HETATM   31  N2  UNL     1      35.582  34.105  25.844  1.00  0.00    -0.341 N 
ATOM     32  H2  UNL     1      35.322  33.930  24.873  1.00  0.00     0.167 HD
BRANCH  31  33
HETATM   33  C2  UNL     1      36.538  35.126  25.998  1.00  0.00     0.152 C 
BRANCH  33  34
HETATM   34  N1  UNL     1      35.998  36.464  25.990  1.00  0.00    -0.275 NA
HETATM   35  C1  UNL     1      35.454  36.842  24.711  1.00  0.00     0.118 C 
BRANCH  34  36
HETATM   36  C12 UNL     1      36.929  37.441  26.505  1.00  0.00     0.198 C 
BRANCH  36  37
HETATM   37  C13 UNL     1      36.208  38.462  27.291  1.00  0.00     0.231 C 
HETATM   38  O1  UNL     1      35.134  38.169  27.842  1.00  0.00    -0.272 OA
HETATM   39  N12 UNL     1      36.737  39.757  27.414  1.00  0.00    -0.358 N 
ATOM     40  H12 UNL     1      37.621  39.988  26.960  1.00  0.00     0.162 HD
BRANCH  39  41
HETATM   41  C14 UNL     1      36.047  40.753  28.170  1.00  0.00     0.148 C 
BRANCH  41  42
HETATM   42  C15 UNL     1      36.468  40.886  29.597  1.00  0.00     0.183 C 
BRANCH  42  43
HETATM   43  O2  UNL     1      35.802  39.970  30.427  1.00  0.00    -0.399 OA
ATOM     44  H2  UNL     1      36.382  39.599  31.082  1.00  0.00     0.209 HD
ENDBRANCH  42  43
ENDBRANCH  41  42
ENDBRANCH  39  41
ENDBRANCH  36  37
ENDBRANCH  34  36
ENDBRANCH  33  34
ENDBRANCH  31  33
ENDBRANCH   1  31
TORSDOF 8
ENDMDL
MODEL 3
REMARK VINA RESULT: -6.581133069      1.049      1.232
REMARK  8 active torsions:
REMARK  status: ('A' for Active; 'I' for Inactive)
REMARK    1  A    between atoms: N1_2  and  C2_3 
REMARK    2  A    between atoms: N1_2  and  C12_36 
REMARK    3  A    between atoms: C2_3  and  N2_4 
REMARK    4  A    between atoms: N2_4  and  C3_6 
REMARK       I    between atoms: N7_19  and  C8_21 
REMARK       I    between atoms: C8_21  and  N8_22 
REMARK       I    between atoms: C8_21  and  N9_26 
REMARK    5  A    between atoms: C12_36  and  C13_37 
REMARK       I    between atoms: C13_37  and  N12_39 
REMARK    6  A    between atoms: N12_39  and  C14_41 
REMARK    7  A    between atoms: C14_41  and  C15_42 
REMARK    8  A    between atoms: C15_42  and  O2_43 
ROOT
HETATM    1  C3  UNL     1      35.209  33.131  26.713  1.00  0.00     0.137 A 
HETATM    2  N3  UNL     1      33.948  33.504  26.986  1.00  0.00    -0.337 N 
ATOM      3  H3  UNL     1      33.596  34.345  26.528  1.00  0.00     0.168 HD
HETATM    4  C4  UNL     1      33.118  32.859  27.814  1.00  0.00     0.183 A 
HETATM    5  N4  UNL     1      33.580  31.753  28.420  1.00  0.00    -0.337 N 
ATOM      6  H4  UNL     1      32.979  31.234  29.059  1.00  0.00     0.168 HD
HETATM    7  C5  UNL     1      34.832  31.329  28.186  1.00  0.00     0.139 A 
HETATM    8  N5  UNL     1      35.252  30.223  28.809  1.00  0.00    -0.323 N 
ATOM      9  H5  UNL     1      34.627  29.725  29.443  1.00  0.00     0.169 HD
HETATM   10  C6  UNL     1      36.488  29.773  28.603  1.00  0.00     0.168 A 
HETATM   11  N6  UNL     1      37.102  28.705  29.117  1.00  0.00    -0.173 N 
ATOM     12  H6  UNL     1      36.707  28.034  29.777  1.00  0.00     0.186 HD
HETATM   13  C7  UNL     1      38.349  28.686  28.591  1.00  0.00     0.686 A 
HETATM   14  N7  UNL     1      39.294  27.843  28.801  1.00  0.00    -0.173 N 
ATOM     15  H7  UNL     1      40.175  27.994  28.310  1.00  0.00     0.181 HD
HETATM   16  C8  UNL     1      39.208  26.712  29.666  1.00  0.00     0.494 C 
HETATM   17  N8  UNL     1      38.112  25.825  29.421  1.00  0.00    -0.032 N 
ATOM     18  H81 UNL     1      38.050  25.017  30.039  1.00  0.00     0.278 HD
ATOM     19  H82 UNL     1      38.122  25.519  28.448  1.00  0.00     0.278 HD
ATOM     20  H83 UNL     1      37.233  26.344  29.439  1.00  0.00     0.278 HD
HETATM   21  N9  UNL     1      39.195  27.066  31.071  1.00  0.00    -0.032 N 
ATOM     22  H91 UNL     1      39.133  26.258  31.689  1.00  0.00     0.278 HD
ATOM     23  H92 UNL     1      38.448  27.732  31.269  1.00  0.00     0.278 HD
ATOM     24  H93 UNL     1      40.002  27.643  31.307  1.00  0.00     0.278 HD
HETATM   25  N10 UNL     1      38.492  29.736  27.764  1.00  0.00    -0.169 N 
HETATM   26  C9  UNL     1      39.684  30.077  27.001  1.00  0.00     0.177 C 
HETATM   27  C10 UNL     1      37.336  30.453  27.742  1.00  0.00     0.169 A 
HETATM   28  N11 UNL     1      36.943  31.567  27.100  1.00  0.00    -0.333 N 
ATOM     29  H11 UNL     1      37.569  32.065  26.467  1.00  0.00     0.168 HD
HETATM   30  C11 UNL     1      35.681  31.998  27.332  1.00  0.00     0.123 A 
ENDROOT
BRANCH   1  31
HETATM   31  N2  UNL     1      35.864  33.844  25.913  1.00  0.00    -0.341 N 
ATOM     32  H2  UNL     1      36.568  33.326  25.386  1.00  0.00     0.167 HD
BRANCH  31  33
HETATM   33  C2  UNL     1      35.819  35.215  25.599  1.00  0.00     0.152 C 
BRANCH  33  34
HETATM   34  N1  UNL     1      36.452  35.569  24.352  1.00  0.00    -0.275 NA
HETATM   35  C1  UNL     1      37.884  35.685  24.461  1.00  0.00     0.118 C 
BRANCH  34  36
HETATM   36  C12 UNL     1      35.850  36.728  23.733  1.00  0.00     0.198 C 
BRANCH  36  37
HETATM   37  C13 UNL     1      36.120  36.724  22.282  1.00  0.00     0.231 C 
HETATM   38  O1  UNL     1      35.629  35.834  21.566  1.00  0.00    -0.272 OA
HETATM   39  N12 UNL     1      36.926  37.723  21.715  1.00  0.00    -0.358 N 
ATOM     40  H12 UNL     1      37.323  38.451  22.309  1.00  0.00     0.162 HD
BRANCH  39  41
HETATM   41  C14 UNL     1      37.196  37.728  20.311  1.00  0.00     0.148 C 
BRANCH  41  42
HETATM   42  C15 UNL     1      37.608  39.045  19.740  1.00  0.00     0.183 C 
BRANCH  42  43
HETATM   43  O2  UNL     1      36.938  40.115  20.353  1.00  0.00    -0.399 OA
ATOM     44  H2  UNL     1      36.321  39.818  21.010  1.00  0.00     0.209 HD
ENDBRANCH  42  43
ENDBRANCH  41  42
ENDBRANCH  39  41
ENDBRANCH  36  37
ENDBRANCH  34  36
ENDBRANCH  33  34
ENDBRANCH  31  33
ENDBRANCH   1  31
TORSDOF 8
ENDMDL
MODEL 4
REMARK VINA RESULT: -6.529794153      2.667      3.574
REMARK  8 active torsions:
REMARK  status: ('A' for Active; 'I' for Inactive)
REMARK    1  A    between atoms: N1_2  and  C2_3 
REMARK    2  A    between atoms: N1_2  and  C12_36 
REMARK    3  A    between atoms: C2_3  and  N2_4 
REMARK    4  A    between atoms: N2_4  and  C3_6 
REMARK       I    between atoms: N7_19  and  C8_21 
REMARK       I    between atoms: C8_21  and  N8_22 
REMARK       I    between atoms: C8_21  and  N9_26 
REMARK    5  A    between atoms: C12_36  and  C13_37 
REMARK       I    between atoms: C13_37  and  N12_39 
REMARK    6  A    between atoms: N12_39  and  C14_41 
REMARK    7  A    between atoms: C14_41  and  C15_42 
REMARK    8  A    between atoms: C15_42  and  O2_43 
ROOT
HETATM    1  C3  UNL     1      34.951  33.340  26.633  1.00  0.00     0.137 A 
HETATM    2  N3  UNL     1      33.725  33.709  27.039  1.00  0.00    -0.337 N 
ATOM      3  H3  UNL     1      33.331  34.559  26.633  1.00  0.00     0.168 HD
HETATM    4  C4  UNL     1      32.980  33.050  27.933  1.00  0.00     0.183 A 
HETATM    5  N4  UNL     1      33.497  31.933  28.469  1.00  0.00    -0.337 N 
ATOM      6  H4  UNL     1      32.960  31.402  29.156  1.00  0.00     0.168 HD
HETATM    7  C5  UNL     1      34.718  31.511  28.103  1.00  0.00     0.139 A 
HETATM    8  N5  UNL     1      35.194  30.393  28.661  1.00  0.00    -0.323 N 
ATOM      9  H5  UNL     1      34.634  29.884  29.345  1.00  0.00     0.169 HD
HETATM   10  C6  UNL     1      36.402  29.945  28.324  1.00  0.00     0.168 A 
HETATM   11  N6  UNL     1      37.060  28.867  28.753  1.00  0.00    -0.173 N 
ATOM     12  H6  UNL     1      36.732  28.185  29.437  1.00  0.00     0.186 HD
HETATM   13  C7  UNL     1      38.249  28.856  28.105  1.00  0.00     0.686 A 
HETATM   14  N7  UNL     1      39.207  28.008  28.203  1.00  0.00    -0.173 N 
ATOM     15  H7  UNL     1      40.035  28.167  27.630  1.00  0.00     0.181 HD
HETATM   16  C8  UNL     1      39.205  26.861  29.052  1.00  0.00     0.494 C 
HETATM   17  N8  UNL     1      38.086  25.981  28.902  1.00  0.00    -0.032 N 
ATOM     18  H81 UNL     1      38.084  25.161  29.508  1.00  0.00     0.278 HD
ATOM     19  H82 UNL     1      37.998  25.693  27.927  1.00  0.00     0.278 HD
ATOM     20  H83 UNL     1      37.216  26.500  29.017  1.00  0.00     0.278 HD
HETATM   21  N9  UNL     1      39.333  27.189  30.457  1.00  0.00    -0.032 N 
ATOM     22  H91 UNL     1      39.331  26.370  31.064  1.00  0.00     0.278 HD
ATOM     23  H92 UNL     1      38.612  27.852  30.742  1.00  0.00     0.278 HD
ATOM     24  H93 UNL     1      40.162  27.761  30.622  1.00  0.00     0.278 HD
HETATM   25  N10 UNL     1      38.311  29.922  27.287  1.00  0.00    -0.169 N 
HETATM   26  C9  UNL     1      39.423  30.275  26.415  1.00  0.00     0.177 C 
HETATM   27  C10 UNL     1      37.161  30.640  27.394  1.00  0.00     0.169 A 
HETATM   28  N11 UNL     1      36.710  31.766  26.815  1.00  0.00    -0.333 N 
ATOM     29  H11 UNL     1      37.271  32.275  26.132  1.00  0.00     0.168 HD
HETATM   30  C11 UNL     1      35.478  32.195  27.181  1.00  0.00     0.123 A 
ENDROOT
BRANCH   1  31
HETATM   31  N2  UNL     1      35.525  34.066  25.785  1.00  0.00    -0.341 N 
ATOM     32  H2  UNL     1      35.223  33.891  24.826  1.00  0.00     0.167 HD
BRANCH  31  33
HETATM   33  C2  UNL     1      36.502  35.074  25.896  1.00  0.00     0.152 C 
BRANCH  33  34
HETATM   34  N1  UNL     1      35.981  36.419  25.904  1.00  0.00    -0.275 NA
HETATM   35  C1  UNL     1      35.627  36.893  24.590  1.00  0.00     0.118 C 
BRANCH  34  36
HETATM   36  C12 UNL     1      36.839  37.342  26.610  1.00  0.00     0.198 C 
BRANCH  36  37
HETATM   37  C13 UNL     1      36.031  38.408  27.235  1.00  0.00     0.231 C 
HETATM   38  O1  UNL     1      34.947  38.124  27.772  1.00  0.00    -0.272 OA
HETATM   39  N12 UNL     1      36.487  39.735  27.221  1.00  0.00    -0.358 N 
ATOM     40  H12 UNL     1      37.380  39.959  26.779  1.00  0.00     0.162 HD
BRANCH  39  41
HETATM   41  C14 UNL     1      35.712  40.776  27.820  1.00  0.00     0.148 C 
BRANCH  41  42
HETATM   42  C15 UNL     1      35.899  42.137  27.234  1.00  0.00     0.183 C 
BRANCH  42  43
HETATM   43  O2  UNL     1      36.421  42.080  25.932  1.00  0.00    -0.399 OA
ATOM     44  H2  UNL     1      37.131  42.700  25.808  1.00  0.00     0.209 HD
ENDBRANCH  42  43
ENDBRANCH  41  42
ENDBRANCH  39  41
ENDBRANCH  36  37
ENDBRANCH  34  36
ENDBRANCH  33  34
ENDBRANCH  31  33
ENDBRANCH   1  31
TORSDOF 8
ENDMDL
MODEL 5
REMARK VINA RESULT: -6.522847310      2.495      7.137
REMARK  8 active torsions:
REMARK  status: ('A' for Active; 'I' for Inactive)
REMARK    1  A    between atoms: N1_2  and  C2_3 
REMARK    2  A    between atoms: N1_2  and  C12_36 
REMARK    3  A    between atoms: C2_3  and  N2_4 
REMARK    4  A    between atoms: N2_4  and  C3_6 
REMARK       I    between atoms: N7_19  and  C8_21 
REMARK       I    between atoms: C8_21  and  N8_22 
REMARK       I    between atoms: C8_21  and  N9_26 
REMARK    5  A    between atoms: C12_36  and  C13_37 
REMARK       I    between atoms: C13_37  and  N12_39 
REMARK    6  A    between atoms: N12_39  and  C14_41 
REMARK    7  A    between atoms: C14_41  and  C15_42 
REMARK    8  A    between atoms: C15_42  and  O2_43 
ROOT
HETATM    1  C3  UNL     1      35.921  31.460  27.502  1.00  0.00     0.137 A 
HETATM    2  N3  UNL     1      34.747  31.173  28.086  1.00  0.00    -0.337 N 
ATOM      3  H3  UNL     1      34.669  30.278  28.571  1.00  0.00     0.168 HD
HETATM    4  C4  UNL     1      33.671  31.969  28.083  1.00  0.00     0.183 A 
HETATM    5  N4  UNL     1      33.771  33.146  27.445  1.00  0.00    -0.337 N 
ATOM      6  H4  UNL     1      32.972  33.780  27.419  1.00  0.00     0.168 HD
HETATM    7  C5  UNL     1      34.920  33.491  26.842  1.00  0.00     0.139 A 
HETATM    8  N5  UNL     1      34.976  34.672  26.218  1.00  0.00    -0.323 N 
ATOM      9  H5  UNL     1      34.161  35.285  26.210  1.00  0.00     0.169 HD
HETATM   10  C6  UNL     1      36.099  35.048  25.608  1.00  0.00     0.168 A 
HETATM   11  N6  UNL     1      36.367  36.169  24.935  1.00  0.00    -0.173 N 
ATOM     12  H6  UNL     1      35.731  36.950  24.773  1.00  0.00     0.186 HD
HETATM   13  C7  UNL     1      37.648  36.066  24.510  1.00  0.00     0.686 A 
HETATM   14  N7  UNL     1      38.333  36.906  23.822  1.00  0.00    -0.173 N 
ATOM     15  H7  UNL     1      39.294  36.652  23.593  1.00  0.00     0.181 HD
HETATM   16  C8  UNL     1      37.857  38.166  23.353  1.00  0.00     0.494 C 
HETATM   17  N8  UNL     1      37.303  39.030  24.351  1.00  0.00    -0.032 N 
ATOM     18  H81 UNL     1      36.962  39.931  24.016  1.00  0.00     0.278 HD
ATOM     19  H82 UNL     1      37.978  39.171  25.103  1.00  0.00     0.278 HD
ATOM     20  H83 UNL     1      36.563  38.546  24.860  1.00  0.00     0.278 HD
HETATM   21  N9  UNL     1      36.895  38.049  22.276  1.00  0.00    -0.032 N 
ATOM     22  H91 UNL     1      36.554  38.950  21.941  1.00  0.00     0.278 HD
ATOM     23  H92 UNL     1      36.118  37.446  22.548  1.00  0.00     0.278 HD
ATOM     24  H93 UNL     1      37.276  37.496  21.508  1.00  0.00     0.278 HD
HETATM   25  N10 UNL     1      38.154  34.890  24.921  1.00  0.00    -0.169 N 
HETATM   26  C9  UNL     1      39.500  34.396  24.670  1.00  0.00     0.177 C 
HETATM   27  C10 UNL     1      37.205  34.212  25.621  1.00  0.00     0.169 A 
HETATM   28  N11 UNL     1      37.180  33.019  26.240  1.00  0.00    -0.333 N 
ATOM     29  H11 UNL     1      37.995  32.406  26.248  1.00  0.00     0.168 HD
HETATM   30  C11 UNL     1      36.023  32.667  26.850  1.00  0.00     0.123 A 
ENDROOT
BRANCH   1  31
HETATM   31  N2  UNL     1      36.839  30.608  27.592  1.00  0.00    -0.341 N 
ATOM     32  H2  UNL     1      37.767  31.017  27.709  1.00  0.00     0.167 HD
BRANCH  31  33
HETATM   33  C2  UNL     1      36.840  29.201  27.565  1.00  0.00     0.152 C 
BRANCH  33  34
HETATM   34  N1  UNL     1      37.309  28.623  26.329  1.00  0.00    -0.275 NA
HETATM   35  C1  UNL     1      37.543  27.204  26.426  1.00  0.00     0.118 C 
BRANCH  34  36
HETATM   36  C12 UNL     1      38.441  29.332  25.778  1.00  0.00     0.198 C 
BRANCH  36  37
HETATM   37  C13 UNL     1      38.106  29.857  24.440  1.00  0.00     0.231 C 
HETATM   38  O1  UNL     1      37.362  30.847  24.335  1.00  0.00    -0.272 OA
HETATM   39  N12 UNL     1      38.629  29.240  23.293  1.00  0.00    -0.358 N 
ATOM     40  H12 UNL     1      39.242  28.430  23.388  1.00  0.00     0.162 HD
BRANCH  39  41
HETATM   41  C14 UNL     1      38.311  29.739  21.992  1.00  0.00     0.148 C 
BRANCH  41  42
HETATM   42  C15 UNL     1      39.216  30.807  21.472  1.00  0.00     0.183 C 
BRANCH  42  43
HETATM   43  O2  UNL     1      38.744  32.092  21.785  1.00  0.00    -0.399 OA
ATOM     44  H2  UNL     1      38.841  32.290  22.709  1.00  0.00     0.209 HD
ENDBRANCH  42  43
ENDBRANCH  41  42
ENDBRANCH  39  41
ENDBRANCH  36  37
ENDBRANCH  34  36
ENDBRANCH  33  34
ENDBRANCH  31  33
ENDBRANCH   1  31
TORSDOF 8
ENDMDL
