MODEL 1
REMARK VINA RESULT: -3.952182930      0.000      0.000
REMARK  1 active torsions:
REMARK  status: ('A' for Active; 'I' for Inactive)
REMARK    1  A    between atoms: N2_3  and  C2_5 
ROOT
HETATM    1  N1  UNL     1      22.030   7.653  13.241  1.00  0.00    -0.172 NA
HETATM    2  C1  UNL     1      22.405   8.348  12.378  1.00  0.00     0.183 C 
HETATM    3  N2  UNL     1      22.856   9.168  11.342  1.00  0.00    -0.272 N 
ATOM      4  H2  UNL     1      22.523   8.998  10.393  1.00  0.00     0.180 HD
ENDROOT
BRANCH   3   5
HETATM    5  C2  UNL     1      23.766  10.232  11.573  1.00  0.00     0.194 C 
HETATM    6  N3  UNL     1      23.529  11.078  12.717  1.00  0.00    -0.069 NA
HETATM    7  S1  UNL     1      25.041  10.531  10.620  1.00  0.00    -0.043 SA
ENDBRANCH   3   5
TORSDOF 1
ENDMDL
MODEL 2
REMARK VINA RESULT: -3.884730158      1.477      1.518
REMARK  1 active torsions:
REMARK  status: ('A' for Active; 'I' for Inactive)
REMARK    1  A    between atoms: N2_3  and  C2_5 
ROOT
HETATM    1  N1  UNL     1      21.990   7.624  13.212  1.00  0.00    -0.172 NA
HETATM    2  C1  UNL     1      22.409   8.342  12.389  1.00  0.00     0.183 C 
HETATM    3  N2  UNL     1      22.911   9.189  11.399  1.00  0.00    -0.272 N 
ATOM      4  H2  UNL     1      22.535   9.124  10.453  1.00  0.00     0.180 HD
ENDROOT
BRANCH   3   5
HETATM    5  C2  UNL     1      23.930  10.136  11.672  1.00  0.00     0.194 C 
HETATM    6  N3  UNL     1      25.171  10.012  10.948  1.00  0.00    -0.069 NA
HETATM    7  S1  UNL     1      23.761  11.336  12.748  1.00  0.00    -0.043 SA
ENDBRANCH   3   5
TORSDOF 1
ENDMDL
MODEL 3
REMARK VINA RESULT: -3.737830794      1.560      1.774
REMARK  1 active torsions:
REMARK  status: ('A' for Active; 'I' for Inactive)
REMARK    1  A    between atoms: N2_3  and  C2_5 
ROOT
HETATM    1  N1  UNL     1      22.357   7.978  12.743  1.00  0.00    -0.172 NA
HETATM    2  C1  UNL     1      22.792   9.063  12.779  1.00  0.00     0.183 C 
HETATM    3  N2  UNL     1      23.301  10.363  12.817  1.00  0.00    -0.272 N 
ATOM      4  H2  UNL     1      22.770  11.089  13.298  1.00  0.00     0.180 HD
ENDROOT
BRANCH   3   5
HETATM    5  C2  UNL     1      24.535  10.701  12.206  1.00  0.00     0.194 C 
HETATM    6  N3  UNL     1      24.975   9.893  11.095  1.00  0.00    -0.069 NA
HETATM    7  S1  UNL     1      25.458  11.939  12.696  1.00  0.00    -0.043 SA
ENDBRANCH   3   5
TORSDOF 1
ENDMDL
MODEL 4
REMARK VINA RESULT: -3.724988540      2.622      4.301
REMARK  1 active torsions:
REMARK  status: ('A' for Active; 'I' for Inactive)
REMARK    1  A    between atoms: N2_3  and  C2_5 
ROOT
HETATM    1  N1  UNL     1      26.279  13.809  13.865  1.00  0.00    -0.172 NA
HETATM    2  C1  UNL     1      25.641  12.859  13.627  1.00  0.00     0.183 C 
HETATM    3  N2  UNL     1      24.885  11.717  13.352  1.00  0.00    -0.272 N 
ATOM      4  H2  UNL     1      24.317  11.308  14.094  1.00  0.00     0.180 HD
ENDROOT
BRANCH   3   5
HETATM    5  C2  UNL     1      24.883  11.112  12.069  1.00  0.00     0.194 C 
HETATM    6  N3  UNL     1      24.536   9.715  11.990  1.00  0.00    -0.069 NA
HETATM    7  S1  UNL     1      25.249  11.913  10.710  1.00  0.00    -0.043 SA
ENDBRANCH   3   5
TORSDOF 1
ENDMDL
MODEL 5
REMARK VINA RESULT: -3.723920607      1.073      1.463
REMARK  1 active torsions:
REMARK  status: ('A' for Active; 'I' for Inactive)
REMARK    1  A    between atoms: N2_3  and  C2_5 
ROOT
HETATM    1  N1  UNL     1      21.928   7.624  13.080  1.00  0.00    -0.172 NA
HETATM    2  C1  UNL     1      22.761   8.354  12.704  1.00  0.00     0.183 C 
HETATM    3  N2  UNL     1      23.756   9.232  12.268  1.00  0.00    -0.272 N 
ATOM      4  H2  UNL     1      24.623   9.305  12.802  1.00  0.00     0.180 HD
ENDROOT
BRANCH   3   5
HETATM    5  C2  UNL     1      23.596  10.023  11.102  1.00  0.00     0.194 C 
HETATM    6  N3  UNL     1      22.591   9.616  10.151  1.00  0.00    -0.069 NA
HETATM    7  S1  UNL     1      24.481  11.346  10.799  1.00  0.00    -0.043 SA
ENDBRANCH   3   5
TORSDOF 1
ENDMDL
