MODEL 1
REMARK VINA RESULT: -4.033097849      0.000      0.000
REMARK  2 active torsions:
REMARK  status: ('A' for Active; 'I' for Inactive)
REMARK    1  A    between atoms: N1_1  and  C1_5 
REMARK    2  A    between atoms: C4_8  and  O1_9 
ROOT
HETATM    1  C1  UNL     1      25.606  10.608  10.545  1.00  0.00     0.194 C 
HETATM    2  C2  UNL     1      24.971  11.959  10.431  1.00  0.00     0.019 C 
HETATM    3  C3  UNL     1      25.640  12.730  11.540  1.00  0.00     0.039 C 
HETATM    4  C4  UNL     1      25.655  11.635  12.625  1.00  0.00     0.124 C 
HETATM    5  C5  UNL     1      24.897  10.562  11.880  1.00  0.00     0.045 C 
HETATM    6  C6  UNL     1      23.799  11.355  11.217  1.00  0.00     0.016 C 
ENDROOT
BRANCH   1   7
HETATM    7  N1  UNL     1      25.273   9.621   9.603  1.00  0.00    -0.074 N 
ATOM      8  H13 UNL     1      24.939  10.075   8.754  1.00  0.00     0.274 HD
ATOM      9  H12 UNL     1      26.131   9.182   9.269  1.00  0.00     0.274 HD
ATOM     10  H11 UNL     1      24.612   8.890   9.868  1.00  0.00     0.274 HD
ENDBRANCH   1   7
BRANCH   4  11
HETATM   11  O1  UNL     1      25.001  12.040  13.760  1.00  0.00    -0.395 OA
ATOM     12  H1  UNL     1      25.160  11.448  14.486  1.00  0.00     0.210 HD
ENDBRANCH   4  11
TORSDOF 2
ENDMDL
MODEL 2
REMARK VINA RESULT: -3.944732249      2.915      3.415
REMARK  2 active torsions:
REMARK  status: ('A' for Active; 'I' for Inactive)
REMARK    1  A    between atoms: N1_1  and  C1_5 
REMARK    2  A    between atoms: C4_8  and  O1_9 
ROOT
HETATM    1  C1  UNL     1      26.918  13.291  12.068  1.00  0.00     0.194 C 
HETATM    2  C2  UNL     1      26.609  14.057  13.315  1.00  0.00     0.019 C 
HETATM    3  C3  UNL     1      27.813  13.778  14.179  1.00  0.00     0.039 C 
HETATM    4  C4  UNL     1      28.005  12.284  13.853  1.00  0.00     0.124 C 
HETATM    5  C5  UNL     1      26.797  12.083  12.969  1.00  0.00     0.045 C 
HETATM    6  C6  UNL     1      25.735  12.858  13.707  1.00  0.00     0.016 C 
ENDROOT
BRANCH   1   7
HETATM    7  N1  UNL     1      26.032  13.377  10.982  1.00  0.00    -0.074 N 
ATOM      8  H13 UNL     1      25.754  12.434  10.709  1.00  0.00     0.274 HD
ATOM      9  H12 UNL     1      25.145  13.758  11.310  1.00  0.00     0.274 HD
ATOM     10  H11 UNL     1      26.321  13.888  10.148  1.00  0.00     0.274 HD
ENDBRANCH   1   7
BRANCH   4  11
HETATM   11  O1  UNL     1      27.955  11.510  14.984  1.00  0.00    -0.395 OA
ATOM     12  H1  UNL     1      27.797  12.034  15.761  1.00  0.00     0.210 HD
ENDBRANCH   4  11
TORSDOF 2
ENDMDL
MODEL 3
REMARK VINA RESULT: -3.889117786      3.009      3.589
REMARK  2 active torsions:
REMARK  status: ('A' for Active; 'I' for Inactive)
REMARK    1  A    between atoms: N1_1  and  C1_5 
REMARK    2  A    between atoms: C4_8  and  O1_9 
ROOT
HETATM    1  C1  UNL     1      26.395  10.624   7.278  1.00  0.00     0.194 C 
HETATM    2  C2  UNL     1      25.054  11.190   7.625  1.00  0.00     0.019 C 
HETATM    3  C3  UNL     1      25.196  11.496   9.094  1.00  0.00     0.039 C 
HETATM    4  C4  UNL     1      25.981  10.242   9.529  1.00  0.00     0.124 C 
HETATM    5  C5  UNL     1      25.988   9.505   8.210  1.00  0.00     0.045 C 
HETATM    6  C6  UNL     1      24.582   9.732   7.716  1.00  0.00     0.016 C 
ENDROOT
BRANCH   1   7
HETATM    7  N1  UNL     1      26.664  10.285   5.942  1.00  0.00    -0.074 N 
ATOM      8  H13 UNL     1      26.055  10.832   5.335  1.00  0.00     0.274 HD
ATOM      9  H12 UNL     1      27.581  10.652   5.687  1.00  0.00     0.274 HD
ATOM     10  H11 UNL     1      26.613   9.305   5.662  1.00  0.00     0.274 HD
ENDBRANCH   1   7
BRANCH   4  11
HETATM   11  O1  UNL     1      25.320   9.546  10.508  1.00  0.00    -0.395 OA
ATOM     12  H1  UNL     1      24.966  10.127  11.172  1.00  0.00     0.210 HD
ENDBRANCH   4  11
TORSDOF 2
ENDMDL
MODEL 4
REMARK VINA RESULT: -3.821791347      1.654      1.960
REMARK  2 active torsions:
REMARK  status: ('A' for Active; 'I' for Inactive)
REMARK    1  A    between atoms: N1_1  and  C1_5 
REMARK    2  A    between atoms: C4_8  and  O1_9 
ROOT
HETATM    1  C1  UNL     1      24.041   9.617  12.042  1.00  0.00     0.194 C 
HETATM    2  C2  UNL     1      24.223  10.290  10.718  1.00  0.00     0.019 C 
HETATM    3  C3  UNL     1      25.577  10.937  10.861  1.00  0.00     0.039 C 
HETATM    4  C4  UNL     1      25.455  11.436  12.315  1.00  0.00     0.124 C 
HETATM    5  C5  UNL     1      24.025  11.030  12.580  1.00  0.00     0.045 C 
HETATM    6  C6  UNL     1      23.346  11.412  11.290  1.00  0.00     0.016 C 
ENDROOT
BRANCH   1   7
HETATM    7  N1  UNL     1      22.895   8.833  12.253  1.00  0.00    -0.074 N 
ATOM      8  H13 UNL     1      22.776   8.204  11.460  1.00  0.00     0.274 HD
ATOM      9  H12 UNL     1      23.084   8.170  13.005  1.00  0.00     0.274 HD
ATOM     10  H11 UNL     1      22.007   9.298  12.440  1.00  0.00     0.274 HD
ENDBRANCH   1   7
BRANCH   4  11
HETATM   11  O1  UNL     1      25.634  12.793  12.401  1.00  0.00    -0.395 OA
ATOM     12  H1  UNL     1      25.600  13.095  13.301  1.00  0.00     0.210 HD
ENDBRANCH   4  11
TORSDOF 2
ENDMDL
MODEL 5
REMARK VINA RESULT: -3.795084651      3.583      4.284
REMARK  2 active torsions:
REMARK  status: ('A' for Active; 'I' for Inactive)
REMARK    1  A    between atoms: N1_1  and  C1_5 
REMARK    2  A    between atoms: C4_8  and  O1_9 
ROOT
HETATM    1  C1  UNL     1      25.301  11.702   8.785  1.00  0.00     0.194 C 
HETATM    2  C2  UNL     1      26.619  11.104   8.407  1.00  0.00     0.019 C 
HETATM    3  C3  UNL     1      26.281  10.322   7.164  1.00  0.00     0.039 C 
HETATM    4  C4  UNL     1      24.922   9.742   7.603  1.00  0.00     0.124 C 
HETATM    5  C5  UNL     1      24.895  10.264   9.020  1.00  0.00     0.045 C 
HETATM    6  C6  UNL     1      26.316  10.035   9.466  1.00  0.00     0.016 C 
ENDROOT
BRANCH   1   7
HETATM    7  N1  UNL     1      25.242  12.576   9.883  1.00  0.00    -0.074 N 
ATOM      8  H13 UNL     1      25.081  13.523   9.541  1.00  0.00     0.274 HD
ATOM      9  H12 UNL     1      24.378  12.402  10.396  1.00  0.00     0.274 HD
ATOM     10  H11 UNL     1      26.019  12.592  10.543  1.00  0.00     0.274 HD
ENDBRANCH   1   7
BRANCH   4  11
HETATM   11  O1  UNL     1      24.918   8.372   7.555  1.00  0.00    -0.395 OA
ATOM     12  H1  UNL     1      25.698   8.033   7.130  1.00  0.00     0.210 HD
ENDBRANCH   4  11
TORSDOF 2
ENDMDL
