MODEL 1
REMARK VINA RESULT: -4.765235039      0.000      0.000
REMARK  1 active torsions:
REMARK  status: ('A' for Active; 'I' for Inactive)
REMARK       I    between atoms: C1_2  and  N3_7 
REMARK    1  A    between atoms: N2_3  and  O1_5 
ROOT
HETATM    1  N1  UNL     1      22.293   8.473  12.925  1.00  0.00    -0.062 NA
HETATM    2  C1  UNL     1      22.597   8.831  11.585  1.00  0.00     0.210 C 
HETATM    3  N2  UNL     1      21.955   8.269  10.622  1.00  0.00    -0.241 N 
ATOM      4  H2  UNL     1      21.234   7.574  10.813  1.00  0.00     0.197 HD
HETATM    5  N3  UNL     1      23.605   9.799  11.343  1.00  0.00    -0.354 N 
HETATM    6  C2  UNL     1      23.980  10.707  10.271  1.00  0.00     0.127 C 
HETATM    7  C3  UNL     1      24.378  11.673  11.385  1.00  0.00     0.040 C 
HETATM    8  C4  UNL     1      24.746  10.342  12.063  1.00  0.00     0.127 C 
ENDROOT
BRANCH   3   9
HETATM    9  O1  UNL     1      22.261   8.624   9.327  1.00  0.00    -0.287 OA
ATOM     10  H1  UNL     1      22.208   9.539   9.079  1.00  0.00     0.244 HD
ENDBRANCH   3   9
TORSDOF 1
ENDMDL
MODEL 2
REMARK VINA RESULT: -4.626886033      3.194      3.962
REMARK  1 active torsions:
REMARK  status: ('A' for Active; 'I' for Inactive)
REMARK       I    between atoms: C1_2  and  N3_7 
REMARK    1  A    between atoms: N2_3  and  O1_5 
ROOT
HETATM    1  N1  UNL     1      24.885  10.036  11.319  1.00  0.00    -0.062 NA
HETATM    2  C1  UNL     1      24.667  10.958  12.376  1.00  0.00     0.210 C 
HETATM    3  N2  UNL     1      23.535  10.961  12.987  1.00  0.00    -0.241 N 
ATOM      4  H2  UNL     1      22.798  10.309  12.719  1.00  0.00     0.197 HD
HETATM    5  N3  UNL     1      25.707  11.856  12.732  1.00  0.00    -0.354 N 
HETATM    6  C2  UNL     1      26.084  12.650  13.890  1.00  0.00     0.127 C 
HETATM    7  C3  UNL     1      27.524  12.327  13.498  1.00  0.00     0.040 C 
HETATM    8  C4  UNL     1      26.894  12.405  12.097  1.00  0.00     0.127 C 
ENDROOT
BRANCH   3   9
HETATM    9  O1  UNL     1      23.336  11.861  14.010  1.00  0.00    -0.287 OA
ATOM     10  H1  UNL     1      23.583  11.612  14.893  1.00  0.00     0.244 HD
ENDBRANCH   3   9
TORSDOF 1
ENDMDL
MODEL 3
REMARK VINA RESULT: -4.426359362      3.416      4.456
REMARK  1 active torsions:
REMARK  status: ('A' for Active; 'I' for Inactive)
REMARK       I    between atoms: C1_2  and  N3_7 
REMARK    1  A    between atoms: N2_3  and  O1_5 
ROOT
HETATM    1  N1  UNL     1      26.854  12.418  12.104  1.00  0.00    -0.062 NA
HETATM    2  C1  UNL     1      25.642  12.134  12.788  1.00  0.00     0.210 C 
HETATM    3  N2  UNL     1      25.365  12.773  13.870  1.00  0.00    -0.241 N 
ATOM      4  H2  UNL     1      26.005  13.477  14.237  1.00  0.00     0.197 HD
HETATM    5  N3  UNL     1      24.767  11.151  12.259  1.00  0.00    -0.354 N 
HETATM    6  C2  UNL     1      23.359  10.807  12.362  1.00  0.00     0.127 C 
HETATM    7  C3  UNL     1      23.464  10.420  10.888  1.00  0.00     0.040 C 
HETATM    8  C4  UNL     1      24.873  10.016  11.356  1.00  0.00     0.127 C 
ENDROOT
BRANCH   3   9
HETATM    9  O1  UNL     1      24.187  12.487  14.524  1.00  0.00    -0.287 OA
ATOM     10  H1  UNL     1      23.372  12.814  14.162  1.00  0.00     0.244 HD
ENDBRANCH   3   9
TORSDOF 1
ENDMDL
MODEL 4
REMARK VINA RESULT: -4.353626172      3.625      4.379
REMARK  1 active torsions:
REMARK  status: ('A' for Active; 'I' for Inactive)
REMARK       I    between atoms: C1_2  and  N3_7 
REMARK    1  A    between atoms: N2_3  and  O1_5 
ROOT
HETATM    1  N1  UNL     1      26.481  13.376  13.930  1.00  0.00    -0.062 NA
HETATM    2  C1  UNL     1      25.403  12.590  13.446  1.00  0.00     0.210 C 
HETATM    3  N2  UNL     1      24.406  12.340  14.221  1.00  0.00    -0.241 N 
ATOM      4  H2  UNL     1      24.387  12.702  15.175  1.00  0.00     0.197 HD
HETATM    5  N3  UNL     1      25.451  12.098  12.116  1.00  0.00    -0.354 N 
HETATM    6  C2  UNL     1      24.509  11.622  11.117  1.00  0.00     0.127 C 
HETATM    7  C3  UNL     1      25.425  12.296  10.098  1.00  0.00     0.040 C 
HETATM    8  C4  UNL     1      26.480  11.838  11.121  1.00  0.00     0.127 C 
ENDROOT
BRANCH   3   9
HETATM    9  O1  UNL     1      23.367  11.576  13.740  1.00  0.00    -0.287 OA
ATOM     10  H1  UNL     1      23.414  10.632  13.831  1.00  0.00     0.244 HD
ENDBRANCH   3   9
TORSDOF 1
ENDMDL
MODEL 5
REMARK VINA RESULT: -4.338851057      2.216      3.098
REMARK  1 active torsions:
REMARK  status: ('A' for Active; 'I' for Inactive)
REMARK       I    between atoms: C1_2  and  N3_7 
REMARK    1  A    between atoms: N2_3  and  O1_5 
ROOT
HETATM    1  N1  UNL     1      26.872  10.017   9.240  1.00  0.00    -0.062 NA
HETATM    2  C1  UNL     1      25.460   9.870   9.261  1.00  0.00     0.210 C 
HETATM    3  N2  UNL     1      24.879   9.226   8.310  1.00  0.00    -0.241 N 
ATOM      4  H2  UNL     1      25.423   8.822   7.548  1.00  0.00     0.197 HD
HETATM    5  N3  UNL     1      24.724  10.440  10.332  1.00  0.00    -0.354 N 
HETATM    6  C2  UNL     1      23.426  10.250  10.957  1.00  0.00     0.127 C 
HETATM    7  C3  UNL     1      24.137  10.580  12.267  1.00  0.00     0.040 C 
HETATM    8  C4  UNL     1      24.929  11.492  11.314  1.00  0.00     0.127 C 
ENDROOT
BRANCH   3   9
HETATM    9  O1  UNL     1      23.509   9.092   8.342  1.00  0.00    -0.287 OA
ATOM     10  H1  UNL     1      23.099   8.773   9.138  1.00  0.00     0.244 HD
ENDBRANCH   3   9
TORSDOF 1
ENDMDL
