MODEL 1
REMARK VINA RESULT: -8.279500780      0.000      0.000
REMARK  12 active torsions:
REMARK  status: ('A' for Active; 'I' for Inactive)
REMARK    1  A    between atoms: C2_2  and  C3_3 
REMARK    2  A    between atoms: C3_3  and  C4_4 
REMARK    3  A    between atoms: C4_4  and  O1_5 
REMARK    4  A    between atoms: O1_5  and  C5_6 
REMARK       I    between atoms: C5_6  and  N1_8 
REMARK    5  A    between atoms: N1_8  and  C6_10 
REMARK    6  A    between atoms: C6_10  and  C8_12 
REMARK    7  A    between atoms: C8_12  and  N2_14 
REMARK       I    between atoms: N2_14  and  C10_16 
REMARK    8  A    between atoms: C10_16  and  C11_18 
REMARK    9  A    between atoms: C11_18  and  O4_19 
REMARK   10  A    between atoms: C11_18  and  C12_21 
REMARK   11  A    between atoms: C12_21  and  C13_22 
REMARK   12  A    between atoms: C13_22  and  C16_25 
ROOT
HETATM    1  C16 UNL     1      45.766  48.651  16.796  1.00  0.00     0.132 C 
HETATM    2  C17 UNL     1      46.183  48.467  18.179  1.00  0.00     0.059 C 
HETATM    3  N3  UNL     1      46.505  48.345  19.258  1.00  0.00    -0.197 NA
ENDROOT
BRANCH   1   4
HETATM    4  C13 UNL     1      46.862  48.289  15.813  1.00  0.00    -0.033 C 
HETATM    5  C14 UNL     1      46.182  47.971  14.500  1.00  0.00     0.016 C 
HETATM    6  C15 UNL     1      47.571  47.057  16.385  1.00  0.00     0.016 C 
BRANCH   4   7
HETATM    7  C12 UNL     1      47.786  49.453  15.738  1.00  0.00     0.051 C 
BRANCH   7   8
HETATM    8  C11 UNL     1      49.155  49.206  16.283  1.00  0.00     0.210 C 
BRANCH   8   9
HETATM    9  C10 UNL     1      49.391  49.897  17.571  1.00  0.00     0.246 C 
HETATM   10  N2  UNL     1      50.273  49.289  18.525  1.00  0.00    -0.353 N 
ATOM     11  H2  UNL     1      50.717  48.400  18.293  1.00  0.00     0.163 HD
HETATM   12  O3  UNL     1      48.841  50.996  17.853  1.00  0.00    -0.271 OA
BRANCH  10  13
HETATM   13  C8  UNL     1      50.547  49.896  19.796  1.00  0.00     0.102 C 
HETATM   14  C9  UNL     1      50.941  48.780  20.754  1.00  0.00     0.034 C 
BRANCH  13  15
HETATM   15  C6  UNL     1      51.570  50.980  19.783  1.00  0.00     0.105 C 
HETATM   16  C7  UNL     1      52.478  50.843  21.026  1.00  0.00     0.034 C 
BRANCH  15  17
HETATM   17  N1  UNL     1      51.011  52.296  19.867  1.00  0.00    -0.331 N 
HETATM   18  C5  UNL     1      51.098  53.253  18.813  1.00  0.00     0.360 C 
HETATM   19  O2  UNL     1      51.711  52.902  17.771  1.00  0.00    -0.239 OA
ATOM     20  H1  UNL     1      50.526  52.563  20.724  1.00  0.00     0.165 HD
BRANCH  18  21
HETATM   21  O1  UNL     1      50.562  54.515  18.863  1.00  0.00    -0.303 OA
BRANCH  21  22
HETATM   22  C4  UNL     1      49.734  54.977  19.923  1.00  0.00     0.193 C 
BRANCH  22  23
HETATM   23  C3  UNL     1      50.373  56.186  20.507  1.00  0.00     0.013 C 
HETATM   24  C18 UNL     1      51.686  56.516  19.763  1.00  0.00     0.180 C 
HETATM   25  O5  UNL     1      51.970  57.829  20.125  1.00  0.00    -0.389 OA
HETATM   26  C19 UNL     1      50.822  58.440  20.570  1.00  0.00     0.177 C 
HETATM   27  C20 UNL     1      49.677  57.483  20.290  1.00  0.00    -0.007 C 
HETATM   28  C21 UNL     1      48.440  57.746  21.036  1.00  0.00     0.012 C 
HETATM   29  C24 UNL     1      49.306  57.693  18.845  1.00  0.00     0.012 C 
HETATM   30  C22 UNL     1      47.927  59.019  20.343  1.00  0.00     0.001 C 
HETATM   31  C23 UNL     1      48.497  58.998  18.958  1.00  0.00     0.001 C 
BRANCH  23  32
HETATM   32  C2  UNL     1      50.821  55.988  21.938  1.00  0.00     0.010 C 
HETATM   33  C1  UNL     1      51.645  54.774  22.150  1.00  0.00     0.006 C 
ENDBRANCH  23  32
ENDBRANCH  22  23
ENDBRANCH  21  22
ENDBRANCH  18  21
ENDBRANCH  15  17
ENDBRANCH  13  15
ENDBRANCH  10  13
ENDBRANCH   8   9
BRANCH   8  34
HETATM   34  O4  UNL     1      50.192  49.335  15.397  1.00  0.00    -0.386 OA
ATOM     35  H4  UNL     1      51.046  49.351  15.814  1.00  0.00     0.210 HD
ENDBRANCH   8  34
ENDBRANCH   7   8
ENDBRANCH   4   7
ENDBRANCH   1   4
TORSDOF 12
ENDMDL
MODEL 2
REMARK VINA RESULT: -8.101411706      1.880      8.748
REMARK  12 active torsions:
REMARK  status: ('A' for Active; 'I' for Inactive)
REMARK    1  A    between atoms: C2_2  and  C3_3 
REMARK    2  A    between atoms: C3_3  and  C4_4 
REMARK    3  A    between atoms: C4_4  and  O1_5 
REMARK    4  A    between atoms: O1_5  and  C5_6 
REMARK       I    between atoms: C5_6  and  N1_8 
REMARK    5  A    between atoms: N1_8  and  C6_10 
REMARK    6  A    between atoms: C6_10  and  C8_12 
REMARK    7  A    between atoms: C8_12  and  N2_14 
REMARK       I    between atoms: N2_14  and  C10_16 
REMARK    8  A    between atoms: C10_16  and  C11_18 
REMARK    9  A    between atoms: C11_18  and  O4_19 
REMARK   10  A    between atoms: C11_18  and  C12_21 
REMARK   11  A    between atoms: C12_21  and  C13_22 
REMARK   12  A    between atoms: C13_22  and  C16_25 
ROOT
HETATM    1  C16 UNL     1      49.874  58.077  21.805  1.00  0.00     0.132 C 
HETATM    2  C17 UNL     1      48.547  58.165  21.213  1.00  0.00     0.059 C 
HETATM    3  N3  UNL     1      47.506  58.225  20.769  1.00  0.00    -0.197 NA
ENDROOT
BRANCH   1   4
HETATM    4  C13 UNL     1      50.802  57.183  21.005  1.00  0.00    -0.033 C 
HETATM    5  C14 UNL     1      52.213  57.626  21.320  1.00  0.00     0.016 C 
HETATM    6  C15 UNL     1      50.463  57.415  19.528  1.00  0.00     0.016 C 
BRANCH   4   7
HETATM    7  C12 UNL     1      50.514  55.780  21.407  1.00  0.00     0.051 C 
BRANCH   7   8
HETATM    8  C11 UNL     1      51.713  54.892  21.497  1.00  0.00     0.210 C 
BRANCH   8   9
HETATM    9  C10 UNL     1      51.739  53.857  20.438  1.00  0.00     0.246 C 
HETATM   10  N2  UNL     1      51.900  52.485  20.823  1.00  0.00    -0.353 N 
ATOM     11  H2  UNL     1      51.989  52.255  21.813  1.00  0.00     0.163 HD
HETATM   12  O3  UNL     1      51.628  54.147  19.216  1.00  0.00    -0.271 OA
BRANCH  10  13
HETATM   13  C8  UNL     1      51.939  51.428  19.854  1.00  0.00     0.102 C 
HETATM   14  C9  UNL     1      53.196  50.612  20.126  1.00  0.00     0.034 C 
BRANCH  13  15
HETATM   15  C6  UNL     1      50.732  50.555  19.804  1.00  0.00     0.105 C 
HETATM   16  C7  UNL     1      51.018  49.240  20.563  1.00  0.00     0.034 C 
BRANCH  15  17
HETATM   17  N1  UNL     1      50.368  50.156  18.477  1.00  0.00    -0.331 N 
HETATM   18  C5  UNL     1      49.636  50.988  17.581  1.00  0.00     0.360 C 
HETATM   19  O2  UNL     1      49.295  52.124  18.004  1.00  0.00    -0.239 OA
ATOM     20  H1  UNL     1      50.648  49.228  18.158  1.00  0.00     0.165 HD
BRANCH  18  21
HETATM   21  O1  UNL     1      49.285  50.634  16.303  1.00  0.00    -0.303 OA
BRANCH  21  22
HETATM   22  C4  UNL     1      47.940  50.455  15.876  1.00  0.00     0.193 C 
BRANCH  22  23
HETATM   23  C3  UNL     1      47.692  48.995  15.750  1.00  0.00     0.013 C 
HETATM   24  C18 UNL     1      48.991  48.202  16.013  1.00  0.00     0.180 C 
HETATM   25  O5  UNL     1      48.562  46.899  16.245  1.00  0.00    -0.389 OA
HETATM   26  C19 UNL     1      47.236  46.911  16.607  1.00  0.00     0.177 C 
HETATM   27  C20 UNL     1      46.846  48.366  16.798  1.00  0.00    -0.007 C 
HETATM   28  C21 UNL     1      45.403  48.637  16.788  1.00  0.00     0.012 C 
HETATM   29  C24 UNL     1      47.295  48.735  18.188  1.00  0.00     0.012 C 
HETATM   30  C22 UNL     1      44.967  48.042  18.138  1.00  0.00     0.001 C 
HETATM   31  C23 UNL     1      46.176  48.081  19.020  1.00  0.00     0.001 C 
BRANCH  23  32
HETATM   32  C2  UNL     1      47.304  48.578  14.348  1.00  0.00     0.010 C 
HETATM   33  C1  UNL     1      46.900  49.705  13.474  1.00  0.00     0.006 C 
ENDBRANCH  23  32
ENDBRANCH  22  23
ENDBRANCH  21  22
ENDBRANCH  18  21
ENDBRANCH  15  17
ENDBRANCH  13  15
ENDBRANCH  10  13
ENDBRANCH   8   9
BRANCH   8  34
HETATM   34  O4  UNL     1      52.015  54.406  22.742  1.00  0.00    -0.386 OA
ATOM     35  H4  UNL     1      51.367  53.798  23.078  1.00  0.00     0.210 HD
ENDBRANCH   8  34
ENDBRANCH   7   8
ENDBRANCH   4   7
ENDBRANCH   1   4
TORSDOF 12
ENDMDL
MODEL 3
REMARK VINA RESULT: -7.893600930      1.296      2.649
REMARK  12 active torsions:
REMARK  status: ('A' for Active; 'I' for Inactive)
REMARK    1  A    between atoms: C2_2  and  C3_3 
REMARK    2  A    between atoms: C3_3  and  C4_4 
REMARK    3  A    between atoms: C4_4  and  O1_5 
REMARK    4  A    between atoms: O1_5  and  C5_6 
REMARK       I    between atoms: C5_6  and  N1_8 
REMARK    5  A    between atoms: N1_8  and  C6_10 
REMARK    6  A    between atoms: C6_10  and  C8_12 
REMARK    7  A    between atoms: C8_12  and  N2_14 
REMARK       I    between atoms: N2_14  and  C10_16 
REMARK    8  A    between atoms: C10_16  and  C11_18 
REMARK    9  A    between atoms: C11_18  and  O4_19 
REMARK   10  A    between atoms: C11_18  and  C12_21 
REMARK   11  A    between atoms: C12_21  and  C13_22 
REMARK   12  A    between atoms: C13_22  and  C16_25 
ROOT
HETATM    1  C16 UNL     1      45.812  48.339  14.921  1.00  0.00     0.132 C 
HETATM    2  C17 UNL     1      44.621  47.568  15.244  1.00  0.00     0.059 C 
HETATM    3  N3  UNL     1      43.681  46.985  15.493  1.00  0.00    -0.197 NA
ENDROOT
BRANCH   1   4
HETATM    4  C13 UNL     1      46.786  48.405  16.082  1.00  0.00    -0.033 C 
HETATM    5  C14 UNL     1      47.406  47.032  16.209  1.00  0.00     0.016 C 
HETATM    6  C15 UNL     1      45.960  48.759  17.323  1.00  0.00     0.016 C 
BRANCH   4   7
HETATM    7  C12 UNL     1      47.770  49.476  15.769  1.00  0.00     0.051 C 
BRANCH   7   8
HETATM    8  C11 UNL     1      49.135  49.265  16.339  1.00  0.00     0.210 C 
BRANCH   8   9
HETATM    9  C10 UNL     1      49.329  49.957  17.633  1.00  0.00     0.246 C 
HETATM   10  N2  UNL     1      50.304  49.440  18.548  1.00  0.00    -0.353 N 
ATOM     11  H2  UNL     1      50.842  48.614  18.286  1.00  0.00     0.163 HD
HETATM   12  O3  UNL     1      48.662  50.978  17.952  1.00  0.00    -0.271 OA
BRANCH  10  13
HETATM   13  C8  UNL     1      50.546  50.055  19.822  1.00  0.00     0.102 C 
HETATM   14  C9  UNL     1      50.925  48.945  20.794  1.00  0.00     0.034 C 
BRANCH  13  15
HETATM   15  C6  UNL     1      51.561  51.146  19.829  1.00  0.00     0.105 C 
HETATM   16  C7  UNL     1      52.304  51.147  21.184  1.00  0.00     0.034 C 
BRANCH  15  17
HETATM   17  N1  UNL     1      50.994  52.456  19.707  1.00  0.00    -0.331 N 
HETATM   18  C5  UNL     1      51.057  53.228  18.509  1.00  0.00     0.360 C 
HETATM   19  O2  UNL     1      51.655  52.714  17.527  1.00  0.00    -0.239 OA
ATOM     20  H1  UNL     1      50.522  52.857  20.517  1.00  0.00     0.165 HD
BRANCH  18  21
HETATM   21  O1  UNL     1      50.514  54.479  18.363  1.00  0.00    -0.303 OA
BRANCH  21  22
HETATM   22  C4  UNL     1      49.361  54.925  19.067  1.00  0.00     0.193 C 
BRANCH  22  23
HETATM   23  C3  UNL     1      49.560  56.360  19.404  1.00  0.00     0.013 C 
HETATM   24  C18 UNL     1      48.447  56.851  20.355  1.00  0.00     0.180 C 
HETATM   25  O5  UNL     1      48.942  58.038  20.886  1.00  0.00    -0.389 OA
HETATM   26  C19 UNL     1      50.310  58.064  20.752  1.00  0.00     0.177 C 
HETATM   27  C20 UNL     1      50.730  56.691  20.260  1.00  0.00    -0.007 C 
HETATM   28  C21 UNL     1      52.072  56.617  19.669  1.00  0.00     0.012 C 
HETATM   29  C24 UNL     1      50.802  55.817  21.485  1.00  0.00     0.012 C 
HETATM   30  C22 UNL     1      52.965  56.763  20.913  1.00  0.00     0.001 C 
HETATM   31  C23 UNL     1      52.150  56.278  22.071  1.00  0.00     0.001 C 
BRANCH  23  32
HETATM   32  C2  UNL     1      49.427  57.274  18.206  1.00  0.00     0.010 C 
HETATM   33  C1  UNL     1      48.433  56.818  17.206  1.00  0.00     0.006 C 
ENDBRANCH  23  32
ENDBRANCH  22  23
ENDBRANCH  21  22
ENDBRANCH  18  21
ENDBRANCH  15  17
ENDBRANCH  13  15
ENDBRANCH  10  13
ENDBRANCH   8   9
BRANCH   8  34
HETATM   34  O4  UNL     1      50.184  49.423  15.472  1.00  0.00    -0.386 OA
ATOM     35  H4  UNL     1      49.916  49.510  14.565  1.00  0.00     0.210 HD
ENDBRANCH   8  34
ENDBRANCH   7   8
ENDBRANCH   4   7
ENDBRANCH   1   4
TORSDOF 12
ENDMDL
MODEL 4
REMARK VINA RESULT: -7.821064173      1.406      1.998
REMARK  12 active torsions:
REMARK  status: ('A' for Active; 'I' for Inactive)
REMARK    1  A    between atoms: C2_2  and  C3_3 
REMARK    2  A    between atoms: C3_3  and  C4_4 
REMARK    3  A    between atoms: C4_4  and  O1_5 
REMARK    4  A    between atoms: O1_5  and  C5_6 
REMARK       I    between atoms: C5_6  and  N1_8 
REMARK    5  A    between atoms: N1_8  and  C6_10 
REMARK    6  A    between atoms: C6_10  and  C8_12 
REMARK    7  A    between atoms: C8_12  and  N2_14 
REMARK       I    between atoms: N2_14  and  C10_16 
REMARK    8  A    between atoms: C10_16  and  C11_18 
REMARK    9  A    between atoms: C11_18  and  O4_19 
REMARK   10  A    between atoms: C11_18  and  C12_21 
REMARK   11  A    between atoms: C12_21  and  C13_22 
REMARK   12  A    between atoms: C13_22  and  C16_25 
ROOT
HETATM    1  C16 UNL     1      46.056  48.522  15.106  1.00  0.00     0.132 C 
HETATM    2  C17 UNL     1      44.907  47.723  15.506  1.00  0.00     0.059 C 
HETATM    3  N3  UNL     1      44.000  47.118  15.816  1.00  0.00    -0.197 NA
ENDROOT
BRANCH   1   4
HETATM    4  C13 UNL     1      47.093  48.629  16.208  1.00  0.00    -0.033 C 
HETATM    5  C14 UNL     1      47.764  47.278  16.308  1.00  0.00     0.016 C 
HETATM    6  C15 UNL     1      46.330  48.967  17.493  1.00  0.00     0.016 C 
BRANCH   4   7
HETATM    7  C12 UNL     1      48.021  49.728  15.831  1.00  0.00     0.051 C 
BRANCH   7   8
HETATM    8  C11 UNL     1      49.425  49.562  16.315  1.00  0.00     0.210 C 
BRANCH   8   9
HETATM    9  C10 UNL     1      49.662  50.218  17.620  1.00  0.00     0.246 C 
HETATM   10  N2  UNL     1      50.452  49.532  18.601  1.00  0.00    -0.353 N 
ATOM     11  H2  UNL     1      50.833  48.613  18.376  1.00  0.00     0.163 HD
HETATM   12  O3  UNL     1      49.189  51.355  17.894  1.00  0.00    -0.271 OA
BRANCH  10  13
HETATM   13  C8  UNL     1      50.721  50.102  19.889  1.00  0.00     0.102 C 
HETATM   14  C9  UNL     1      50.894  48.948  20.867  1.00  0.00     0.034 C 
BRANCH  13  15
HETATM   15  C6  UNL     1      51.880  51.037  19.950  1.00  0.00     0.105 C 
HETATM   16  C7  UNL     1      52.449  51.056  21.387  1.00  0.00     0.034 C 
BRANCH  15  17
HETATM   17  N1  UNL     1      51.536  52.397  19.662  1.00  0.00    -0.331 N 
HETATM   18  C5  UNL     1      52.429  53.316  19.036  1.00  0.00     0.360 C 
HETATM   19  O2  UNL     1      53.576  52.889  18.741  1.00  0.00    -0.239 OA
ATOM     20  H1  UNL     1      50.604  52.725  19.918  1.00  0.00     0.165 HD
BRANCH  18  21
HETATM   21  O1  UNL     1      52.120  54.619  18.740  1.00  0.00    -0.303 OA
BRANCH  21  22
HETATM   22  C4  UNL     1      52.226  55.686  19.675  1.00  0.00     0.193 C 
BRANCH  22  23
HETATM   23  C3  UNL     1      50.890  55.879  20.298  1.00  0.00     0.013 C 
HETATM   24  C18 UNL     1      50.808  57.261  20.984  1.00  0.00     0.180 C 
HETATM   25  O5  UNL     1      49.447  57.473  21.177  1.00  0.00    -0.389 OA
HETATM   26  C19 UNL     1      48.732  56.672  20.319  1.00  0.00     0.177 C 
HETATM   27  C20 UNL     1      49.736  56.035  19.374  1.00  0.00    -0.007 C 
HETATM   28  C21 UNL     1      49.255  54.852  18.650  1.00  0.00     0.012 C 
HETATM   29  C24 UNL     1      50.001  57.059  18.301  1.00  0.00     0.012 C 
HETATM   30  C22 UNL     1      48.274  55.481  17.646  1.00  0.00     0.001 C 
HETATM   31  C23 UNL     1      48.733  56.892  17.443  1.00  0.00     0.001 C 
BRANCH  23  32
HETATM   32  C2  UNL     1      50.616  54.910  21.427  1.00  0.00     0.010 C 
HETATM   33  C1  UNL     1      51.711  54.817  22.422  1.00  0.00     0.006 C 
ENDBRANCH  23  32
ENDBRANCH  22  23
ENDBRANCH  21  22
ENDBRANCH  18  21
ENDBRANCH  15  17
ENDBRANCH  13  15
ENDBRANCH  10  13
ENDBRANCH   8   9
BRANCH   8  34
HETATM   34  O4  UNL     1      50.415  49.799  15.397  1.00  0.00    -0.386 OA
ATOM     35  H4  UNL     1      50.254  50.563  14.857  1.00  0.00     0.210 HD
ENDBRANCH   8  34
ENDBRANCH   7   8
ENDBRANCH   4   7
ENDBRANCH   1   4
TORSDOF 12
ENDMDL
MODEL 5
REMARK VINA RESULT: -7.788280029      1.908      2.666
REMARK  12 active torsions:
REMARK  status: ('A' for Active; 'I' for Inactive)
REMARK    1  A    between atoms: C2_2  and  C3_3 
REMARK    2  A    between atoms: C3_3  and  C4_4 
REMARK    3  A    between atoms: C4_4  and  O1_5 
REMARK    4  A    between atoms: O1_5  and  C5_6 
REMARK       I    between atoms: C5_6  and  N1_8 
REMARK    5  A    between atoms: N1_8  and  C6_10 
REMARK    6  A    between atoms: C6_10  and  C8_12 
REMARK    7  A    between atoms: C8_12  and  N2_14 
REMARK       I    between atoms: N2_14  and  C10_16 
REMARK    8  A    between atoms: C10_16  and  C11_18 
REMARK    9  A    between atoms: C11_18  and  O4_19 
REMARK   10  A    between atoms: C11_18  and  C12_21 
REMARK   11  A    between atoms: C12_21  and  C13_22 
REMARK   12  A    between atoms: C13_22  and  C16_25 
ROOT
HETATM    1  C16 UNL     1      45.702  47.000  14.947  1.00  0.00     0.132 C 
HETATM    2  C17 UNL     1      44.291  47.327  14.799  1.00  0.00     0.059 C 
HETATM    3  N3  UNL     1      43.196  47.587  14.663  1.00  0.00    -0.197 NA
ENDROOT
BRANCH   1   4
HETATM    4  C13 UNL     1      46.405  47.919  15.926  1.00  0.00    -0.033 C 
HETATM    5  C14 UNL     1      47.764  47.313  16.195  1.00  0.00     0.016 C 
HETATM    6  C15 UNL     1      45.546  47.942  17.195  1.00  0.00     0.016 C 
BRANCH   4   7
HETATM    7  C12 UNL     1      46.467  49.266  15.297  1.00  0.00     0.051 C 
BRANCH   7   8
HETATM    8  C11 UNL     1      47.573  49.449  14.309  1.00  0.00     0.210 C 
BRANCH   8   9
HETATM    9  C10 UNL     1      48.707  50.227  14.857  1.00  0.00     0.246 C 
HETATM   10  N2  UNL     1      48.543  50.884  16.121  1.00  0.00    -0.353 N 
ATOM     11  H2  UNL     1      47.653  50.798  16.612  1.00  0.00     0.163 HD
HETATM   12  O3  UNL     1      49.805  50.330  14.246  1.00  0.00    -0.271 OA
BRANCH  10  13
HETATM   13  C8  UNL     1      49.595  51.658  16.713  1.00  0.00     0.102 C 
HETATM   14  C9  UNL     1      49.055  53.066  16.926  1.00  0.00     0.034 C 
BRANCH  13  15
HETATM   15  C6  UNL     1      50.170  51.106  17.973  1.00  0.00     0.105 C 
HETATM   16  C7  UNL     1      49.264  49.967  18.494  1.00  0.00     0.034 C 
BRANCH  15  17
HETATM   17  N1  UNL     1      50.232  52.059  19.040  1.00  0.00    -0.331 N 
HETATM   18  C5  UNL     1      51.432  52.369  19.745  1.00  0.00     0.360 C 
HETATM   19  O2  UNL     1      52.474  51.753  19.399  1.00  0.00    -0.239 OA
ATOM     20  H1  UNL     1      49.374  52.540  19.310  1.00  0.00     0.165 HD
BRANCH  18  21
HETATM   21  O1  UNL     1      51.521  53.284  20.763  1.00  0.00    -0.303 OA
BRANCH  21  22
HETATM   22  C4  UNL     1      50.540  54.285  21.011  1.00  0.00     0.193 C 
BRANCH  22  23
HETATM   23  C3  UNL     1      51.213  55.609  20.943  1.00  0.00     0.013 C 
HETATM   24  C18 UNL     1      52.278  55.618  19.825  1.00  0.00     0.180 C 
HETATM   25  O5  UNL     1      52.545  56.966  19.610  1.00  0.00    -0.389 OA
HETATM   26  C19 UNL     1      51.499  57.722  20.083  1.00  0.00     0.177 C 
HETATM   27  C20 UNL     1      50.393  56.752  20.462  1.00  0.00    -0.007 C 
HETATM   28  C21 UNL     1      49.358  57.295  21.351  1.00  0.00     0.012 C 
HETATM   29  C24 UNL     1      49.668  56.432  19.181  1.00  0.00     0.012 C 
HETATM   30  C22 UNL     1      48.601  58.240  20.404  1.00  0.00     0.001 C 
HETATM   31  C23 UNL     1      48.818  57.706  19.022  1.00  0.00     0.001 C 
BRANCH  23  32
HETATM   32  C2  UNL     1      52.008  55.935  22.188  1.00  0.00     0.010 C 
HETATM   33  C1  UNL     1      51.640  55.118  23.370  1.00  0.00     0.006 C 
ENDBRANCH  23  32
ENDBRANCH  22  23
ENDBRANCH  21  22
ENDBRANCH  18  21
ENDBRANCH  15  17
ENDBRANCH  13  15
ENDBRANCH  10  13
ENDBRANCH   8   9
BRANCH   8  34
HETATM   34  O4  UNL     1      47.201  49.840  13.049  1.00  0.00    -0.386 OA
ATOM     35  H4  UNL     1      46.277  50.046  12.974  1.00  0.00     0.210 HD
ENDBRANCH   8  34
ENDBRANCH   7   8
ENDBRANCH   4   7
ENDBRANCH   1   4
TORSDOF 12
ENDMDL
