MODEL 1
REMARK VINA RESULT: -8.115290652      0.000      0.000
REMARK  3 active torsions:
REMARK  status: ('A' for Active; 'I' for Inactive)
REMARK    1  A    between atoms: C5_5  and  O1_6 
REMARK    2  A    between atoms: C8_10  and  O2_11 
REMARK    3  A    between atoms: C11_16  and  O4_17 
ROOT
HETATM    1  C1  UNL     1      37.565  17.541  32.412  1.00  0.00     0.016 C 
HETATM    2  C2  UNL     1      38.562  16.515  31.981  1.00  0.00    -0.033 C 
HETATM    3  C3  UNL     1      39.929  16.979  32.475  1.00  0.00     0.012 C 
HETATM    4  C4  UNL     1      40.454  18.046  31.542  1.00  0.00     0.032 C 
HETATM    5  C5  UNL     1      40.812  17.366  30.242  1.00  0.00     0.118 C 
HETATM    6  C6  UNL     1      39.854  16.303  29.833  1.00  0.00     0.039 C 
HETATM    7  C7  UNL     1      38.512  16.400  30.492  1.00  0.00     0.026 C 
HETATM    8  C8  UNL     1      37.717  15.141  30.276  1.00  0.00     0.134 C 
HETATM    9  C9  UNL     1      38.257  14.237  31.357  1.00  0.00     0.077 C 
HETATM   10  C10 UNL     1      37.432  13.028  31.568  1.00  0.00     0.069 A 
HETATM   11  O3  UNL     1      37.106  12.082  30.753  1.00  0.00    -0.291 OA
HETATM   12  C11 UNL     1      36.347  11.178  31.346  1.00  0.00     0.183 A 
HETATM   13  C12 UNL     1      36.168  11.567  32.648  1.00  0.00     0.073 A 
HETATM   14  C13 UNL     1      36.852  12.737  32.792  1.00  0.00    -0.023 A 
HETATM   15  C14 UNL     1      37.035  13.640  33.966  1.00  0.00     0.042 C 
HETATM   16  C15 UNL     1      37.067  15.059  33.381  1.00  0.00     0.011 C 
HETATM   17  C16 UNL     1      38.304  15.141  32.542  1.00  0.00     0.007 C 
ENDROOT
BRANCH   5  18
HETATM   18  O1  UNL     1      42.112  16.842  30.421  1.00  0.00    -0.396 OA
ATOM     19  H1  UNL     1      42.010  15.899  30.478  1.00  0.00     0.210 HD
ENDBRANCH   5  18
BRANCH   8  20
HETATM   20  O2  UNL     1      37.828  14.623  29.012  1.00  0.00    -0.394 OA
ATOM     21  H2  UNL     1      37.072  14.119  28.735  1.00  0.00     0.210 HD
ENDBRANCH   8  20
BRANCH  12  22
HETATM   22  O4  UNL     1      35.808  10.026  30.786  1.00  0.00    -0.341 OA
ATOM     23  H4  UNL     1      36.213   9.446  30.153  1.00  0.00     0.220 HD
ENDBRANCH  12  22
TORSDOF 3
ENDMDL
MODEL 2
REMARK VINA RESULT: -7.291102636      3.197      5.248
REMARK  3 active torsions:
REMARK  status: ('A' for Active; 'I' for Inactive)
REMARK    1  A    between atoms: C5_5  and  O1_6 
REMARK    2  A    between atoms: C8_10  and  O2_11 
REMARK    3  A    between atoms: C11_16  and  O4_17 
ROOT
HETATM    1  C1  UNL     1      40.665  15.119  27.062  1.00  0.00     0.016 C 
HETATM    2  C2  UNL     1      39.957  16.376  27.451  1.00  0.00    -0.033 C 
HETATM    3  C3  UNL     1      39.149  16.832  26.239  1.00  0.00     0.012 C 
HETATM    4  C4  UNL     1      40.074  17.522  25.262  1.00  0.00     0.032 C 
HETATM    5  C5  UNL     1      40.474  18.840  25.878  1.00  0.00     0.118 C 
HETATM    6  C6  UNL     1      40.717  18.772  27.345  1.00  0.00     0.039 C 
HETATM    7  C7  UNL     1      40.977  17.389  27.860  1.00  0.00     0.026 C 
HETATM    8  C8  UNL     1      40.904  17.354  29.362  1.00  0.00     0.134 C 
HETATM    9  C9  UNL     1      39.419  17.239  29.604  1.00  0.00     0.077 C 
HETATM   10  C10 UNL     1      39.084  16.878  30.999  1.00  0.00     0.069 A 
HETATM   11  O3  UNL     1      39.355  17.480  32.109  1.00  0.00    -0.291 OA
HETATM   12  C11 UNL     1      38.869  16.819  33.144  1.00  0.00     0.183 A 
HETATM   13  C12 UNL     1      38.233  15.701  32.669  1.00  0.00     0.073 A 
HETATM   14  C13 UNL     1      38.368  15.735  31.313  1.00  0.00    -0.023 A 
HETATM   15  C14 UNL     1      37.895  14.804  30.247  1.00  0.00     0.042 C 
HETATM   16  C15 UNL     1      38.998  14.824  29.179  1.00  0.00     0.011 C 
HETATM   17  C16 UNL     1      39.007  16.208  28.608  1.00  0.00     0.007 C 
ENDROOT
BRANCH   5  18
HETATM   18  O1  UNL     1      39.431  19.745  25.575  1.00  0.00    -0.396 OA
ATOM     19  H1  UNL     1      39.700  20.200  24.786  1.00  0.00     0.210 HD
ENDBRANCH   5  18
BRANCH   8  20
HETATM   20  O2  UNL     1      41.483  18.436  29.972  1.00  0.00    -0.394 OA
ATOM     21  H2  UNL     1      41.065  18.689  30.787  1.00  0.00     0.210 HD
ENDBRANCH   8  20
BRANCH  12  22
HETATM   22  O4  UNL     1      38.964  17.161  34.488  1.00  0.00    -0.341 OA
ATOM     23  H4  UNL     1      38.272  17.146  35.139  1.00  0.00     0.220 HD
ENDBRANCH  12  22
TORSDOF 3
ENDMDL
MODEL 3
REMARK VINA RESULT: -7.278425895      1.900      2.618
REMARK  3 active torsions:
REMARK  status: ('A' for Active; 'I' for Inactive)
REMARK    1  A    between atoms: C5_5  and  O1_6 
REMARK    2  A    between atoms: C8_10  and  O2_11 
REMARK    3  A    between atoms: C11_16  and  O4_17 
ROOT
HETATM    1  C1  UNL     1      38.517  17.807  29.315  1.00  0.00     0.016 C 
HETATM    2  C2  UNL     1      39.208  16.498  29.118  1.00  0.00    -0.033 C 
HETATM    3  C3  UNL     1      40.678  16.800  28.842  1.00  0.00     0.012 C 
HETATM    4  C4  UNL     1      40.830  17.226  27.399  1.00  0.00     0.032 C 
HETATM    5  C5  UNL     1      40.603  16.003  26.545  1.00  0.00     0.118 C 
HETATM    6  C6  UNL     1      39.514  15.116  27.037  1.00  0.00     0.039 C 
HETATM    7  C7  UNL     1      38.557  15.784  27.977  1.00  0.00     0.026 C 
HETATM    8  C8  UNL     1      37.686  14.769  28.667  1.00  0.00     0.134 C 
HETATM    9  C9  UNL     1      38.574  14.304  29.794  1.00  0.00     0.077 C 
HETATM   10  C10 UNL     1      37.850  13.519  30.817  1.00  0.00     0.069 A 
HETATM   11  O3  UNL     1      37.180  12.420  30.712  1.00  0.00    -0.291 OA
HETATM   12  C11 UNL     1      36.684  12.048  31.879  1.00  0.00     0.183 A 
HETATM   13  C12 UNL     1      37.063  12.976  32.813  1.00  0.00     0.073 A 
HETATM   14  C13 UNL     1      37.800  13.908  32.145  1.00  0.00    -0.023 A 
HETATM   15  C14 UNL     1      38.481  15.152  32.611  1.00  0.00     0.042 C 
HETATM   16  C15 UNL     1      38.338  16.146  31.450  1.00  0.00     0.011 C 
HETATM   17  C16 UNL     1      39.136  15.584  30.314  1.00  0.00     0.007 C 
ENDROOT
BRANCH   5  18
HETATM   18  O1  UNL     1      41.840  15.320  26.504  1.00  0.00    -0.396 OA
ATOM     19  H1  UNL     1      42.171  15.430  25.621  1.00  0.00     0.210 HD
ENDBRANCH   5  18
BRANCH   8  20
HETATM   20  O2  UNL     1      37.255  13.759  27.847  1.00  0.00    -0.394 OA
ATOM     21  H2  UNL     1      36.689  13.128  28.277  1.00  0.00     0.210 HD
ENDBRANCH   8  20
BRANCH  12  22
HETATM   22  O4  UNL     1      35.913  10.924  32.151  1.00  0.00    -0.341 OA
ATOM     23  H4  UNL     1      36.186  10.014  32.124  1.00  0.00     0.220 HD
ENDBRANCH  12  22
TORSDOF 3
ENDMDL
MODEL 4
REMARK VINA RESULT: -6.972546813      1.743      5.631
REMARK  3 active torsions:
REMARK  status: ('A' for Active; 'I' for Inactive)
REMARK    1  A    between atoms: C5_5  and  O1_6 
REMARK    2  A    between atoms: C8_10  and  O2_11 
REMARK    3  A    between atoms: C11_16  and  O4_17 
ROOT
HETATM    1  C1  UNL     1      38.423  14.088  33.500  1.00  0.00     0.016 C 
HETATM    2  C2  UNL     1      37.690  14.703  32.353  1.00  0.00    -0.033 C 
HETATM    3  C3  UNL     1      36.241  14.893  32.792  1.00  0.00     0.012 C 
HETATM    4  C4  UNL     1      35.518  13.569  32.690  1.00  0.00     0.032 C 
HETATM    5  C5  UNL     1      35.356  13.260  31.222  1.00  0.00     0.118 C 
HETATM    6  C6  UNL     1      36.536  13.627  30.393  1.00  0.00     0.039 C 
HETATM    7  C7  UNL     1      37.805  13.794  31.172  1.00  0.00     0.026 C 
HETATM    8  C8  UNL     1      38.864  14.458  30.335  1.00  0.00     0.134 C 
HETATM    9  C9  UNL     1      38.508  15.918  30.474  1.00  0.00     0.077 C 
HETATM   10  C10 UNL     1      39.574  16.823  29.995  1.00  0.00     0.069 A 
HETATM   11  O3  UNL     1      40.124  16.929  28.831  1.00  0.00    -0.291 OA
HETATM   12  C11 UNL     1      41.048  17.874  28.822  1.00  0.00     0.183 A 
HETATM   13  C12 UNL     1      41.101  18.424  30.076  1.00  0.00     0.073 A 
HETATM   14  C13 UNL     1      40.171  17.762  30.821  1.00  0.00    -0.023 A 
HETATM   15  C14 UNL     1      39.761  17.904  32.249  1.00  0.00     0.042 C 
HETATM   16  C15 UNL     1      39.432  16.479  32.715  1.00  0.00     0.011 C 
HETATM   17  C16 UNL     1      38.230  16.047  31.934  1.00  0.00     0.007 C 
ENDROOT
BRANCH   5  18
HETATM   18  O1  UNL     1      34.199  13.956  30.802  1.00  0.00    -0.396 OA
ATOM     19  H1  UNL     1      34.475  14.851  30.644  1.00  0.00     0.210 HD
ENDBRANCH   5  18
BRANCH   8  20
HETATM   20  O2  UNL     1      38.905  14.017  29.039  1.00  0.00    -0.394 OA
ATOM     21  H2  UNL     1      39.032  14.710  28.401  1.00  0.00     0.210 HD
ENDBRANCH   8  20
BRANCH  12  22
HETATM   22  O4  UNL     1      41.844  18.269  27.753  1.00  0.00    -0.341 OA
ATOM     23  H4  UNL     1      42.791  18.223  27.688  1.00  0.00     0.220 HD
ENDBRANCH  12  22
TORSDOF 3
ENDMDL
MODEL 5
REMARK VINA RESULT: -6.968401137      2.272      3.675
REMARK  3 active torsions:
REMARK  status: ('A' for Active; 'I' for Inactive)
REMARK    1  A    between atoms: C5_5  and  O1_6 
REMARK    2  A    between atoms: C8_10  and  O2_11 
REMARK    3  A    between atoms: C11_16  and  O4_17 
ROOT
HETATM    1  C1  UNL     1      41.528  15.979  29.161  1.00  0.00     0.016 C 
HETATM    2  C2  UNL     1      40.652  16.902  29.943  1.00  0.00    -0.033 C 
HETATM    3  C3  UNL     1      40.516  18.188  29.133  1.00  0.00     0.012 C 
HETATM    4  C4  UNL     1      41.760  19.025  29.325  1.00  0.00     0.032 C 
HETATM    5  C5  UNL     1      41.733  19.549  30.740  1.00  0.00     0.118 C 
HETATM    6  C6  UNL     1      41.231  18.566  31.739  1.00  0.00     0.039 C 
HETATM    7  C7  UNL     1      41.283  17.141  31.276  1.00  0.00     0.026 C 
HETATM    8  C8  UNL     1      40.486  16.252  32.192  1.00  0.00     0.134 C 
HETATM    9  C9  UNL     1      39.082  16.441  31.673  1.00  0.00     0.077 C 
HETATM   10  C10 UNL     1      38.129  15.441  32.202  1.00  0.00     0.069 A 
HETATM   11  O3  UNL     1      37.788  15.168  33.417  1.00  0.00    -0.291 OA
HETATM   12  C11 UNL     1      36.895  14.195  33.458  1.00  0.00     0.183 A 
HETATM   13  C12 UNL     1      36.637  13.806  32.169  1.00  0.00     0.073 A 
HETATM   14  C13 UNL     1      37.415  14.592  31.372  1.00  0.00    -0.023 A 
HETATM   15  C14 UNL     1      37.578  14.647  29.890  1.00  0.00     0.042 C 
HETATM   16  C15 UNL     1      39.059  14.979  29.660  1.00  0.00     0.011 C 
HETATM   17  C16 UNL     1      39.268  16.361  30.196  1.00  0.00     0.007 C 
ENDROOT
BRANCH   5  18
HETATM   18  O1  UNL     1      40.924  20.707  30.712  1.00  0.00    -0.396 OA
ATOM     19  H1  UNL     1      41.312  21.284  30.065  1.00  0.00     0.210 HD
ENDBRANCH   5  18
BRANCH   8  20
HETATM   20  O2  UNL     1      40.632  16.550  33.521  1.00  0.00    -0.394 OA
ATOM     21  H2  UNL     1      41.344  16.085  33.944  1.00  0.00     0.210 HD
ENDBRANCH   8  20
BRANCH  12  22
HETATM   22  O4  UNL     1      36.301  13.637  34.584  1.00  0.00    -0.341 OA
ATOM     23  H4  UNL     1      36.117  14.064  35.412  1.00  0.00     0.220 HD
ENDBRANCH  12  22
TORSDOF 3
ENDMDL
