MODEL 1
REMARK VINA RESULT: -7.511543524      0.000      0.000
REMARK  3 active torsions:
REMARK  status: ('A' for Active; 'I' for Inactive)
REMARK    1  A    between atoms: N2_3  and  C2_5 
REMARK    2  A    between atoms: C4_7  and  O1_8 
REMARK    3  A    between atoms: C9_14  and  C10_16 
ROOT
HETATM    1  N1  UNL     1       1.663  -0.049  24.092  1.00  0.00    -0.172 NA
HETATM    2  C1  UNL     1       0.530  -0.308  24.238  1.00  0.00     0.177 C 
HETATM    3  N2  UNL     1      -0.821  -0.606  24.404  1.00  0.00    -0.321 N 
ATOM      4  H2  UNL     1      -1.104  -1.581  24.508  1.00  0.00     0.172 HD
ENDROOT
BRANCH   3   5
HETATM    5  C2  UNL     1      -1.837   0.428  24.434  1.00  0.00     0.135 C 
HETATM    6  C3  UNL     1      -1.781   1.269  23.194  1.00  0.00     0.067 C 
HETATM    7  C4  UNL     1      -2.649   0.843  22.082  1.00  0.00     0.060 C 
HETATM    8  C5  UNL     1      -3.881   1.761  22.063  1.00  0.00     0.038 C 
HETATM    9  C8  UNL     1      -3.322  -0.492  22.362  1.00  0.00     0.045 C 
HETATM   10  C6  UNL     1      -4.606   1.306  23.308  1.00  0.00     0.011 C 
HETATM   11  C7  UNL     1      -4.144  -0.118  23.583  1.00  0.00     0.031 C 
HETATM   12  C9  UNL     1      -3.177  -0.127  24.754  1.00  0.00     0.135 C 
HETATM   13  F1  UNL     1      -3.056  -1.476  25.124  1.00  0.00    -0.240 F 
BRANCH   7  14
HETATM   14  O1  UNL     1      -2.091   0.899  20.830  1.00  0.00    -0.390 OA
ATOM     15  H1  UNL     1      -2.636   0.588  20.117  1.00  0.00     0.210 HD
ENDBRANCH   7  14
BRANCH  12  16
HETATM   16  C10 UNL     1      -3.774   0.573  25.951  1.00  0.00     0.079 C 
HETATM   17  C11 UNL     1      -4.873  -0.145  26.659  1.00  0.00     0.241 C 
HETATM   18  N3  UNL     1      -4.304   0.372  27.913  1.00  0.00    -0.074 N 
HETATM   19  C12 UNL     1      -3.005   0.279  27.247  1.00  0.00     0.241 C 
ATOM     20  H32 UNL     1      -4.631   1.243  28.332  1.00  0.00     0.277 HD
ATOM     21  H31 UNL     1      -4.481  -0.082  28.809  1.00  0.00     0.277 HD
ENDBRANCH  12  16
ENDBRANCH   3   5
TORSDOF 3
ENDMDL
MODEL 2
REMARK VINA RESULT: -7.437114024      3.118      4.201
REMARK  3 active torsions:
REMARK  status: ('A' for Active; 'I' for Inactive)
REMARK    1  A    between atoms: N2_3  and  C2_5 
REMARK    2  A    between atoms: C4_7  and  O1_8 
REMARK    3  A    between atoms: C9_14  and  C10_16 
ROOT
HETATM    1  N1  UNL     1      -1.201   1.095  30.710  1.00  0.00    -0.172 NA
HETATM    2  C1  UNL     1      -1.814   0.641  29.821  1.00  0.00     0.177 C 
HETATM    3  N2  UNL     1      -2.540   0.109  28.756  1.00  0.00    -0.321 N 
ATOM      4  H2  UNL     1      -2.738  -0.892  28.743  1.00  0.00     0.172 HD
ENDROOT
BRANCH   3   5
HETATM    5  C2  UNL     1      -3.021   0.937  27.667  1.00  0.00     0.135 C 
HETATM    6  C3  UNL     1      -2.451   0.480  26.357  1.00  0.00     0.067 C 
HETATM    7  C4  UNL     1      -3.260  -0.492  25.602  1.00  0.00     0.060 C 
HETATM    8  C5  UNL     1      -3.978   0.263  24.473  1.00  0.00     0.038 C 
HETATM    9  C8  UNL     1      -4.463  -0.975  26.398  1.00  0.00     0.045 C 
HETATM   10  C6  UNL     1      -4.986   1.072  25.254  1.00  0.00     0.011 C 
HETATM   11  C7  UNL     1      -5.207   0.337  26.569  1.00  0.00     0.031 C 
HETATM   12  C9  UNL     1      -4.500   1.074  27.693  1.00  0.00     0.135 C 
HETATM   13  F1  UNL     1      -5.007   0.516  28.877  1.00  0.00    -0.240 F 
BRANCH   7  14
HETATM   14  O1  UNL     1      -2.568  -1.522  25.016  1.00  0.00    -0.390 OA
ATOM     15  H1  UNL     1      -2.213  -1.345  24.153  1.00  0.00     0.210 HD
ENDBRANCH   7  14
BRANCH  12  16
HETATM   16  C10 UNL     1      -4.901   2.528  27.721  1.00  0.00     0.079 C 
HETATM   17  C11 UNL     1      -6.200   2.845  28.384  1.00  0.00     0.241 C 
HETATM   18  N3  UNL     1      -5.555   4.060  28.904  1.00  0.00    -0.074 N 
HETATM   19  C12 UNL     1      -4.321   3.274  28.931  1.00  0.00     0.241 C 
ATOM     20  H32 UNL     1      -5.613   4.951  28.410  1.00  0.00     0.277 HD
ATOM     21  H31 UNL     1      -5.904   4.538  29.734  1.00  0.00     0.277 HD
ENDBRANCH  12  16
ENDBRANCH   3   5
TORSDOF 3
ENDMDL
MODEL 3
REMARK VINA RESULT: -7.365664783      2.502      3.988
REMARK  3 active torsions:
REMARK  status: ('A' for Active; 'I' for Inactive)
REMARK    1  A    between atoms: N2_3  and  C2_5 
REMARK    2  A    between atoms: C4_7  and  O1_8 
REMARK    3  A    between atoms: C9_14  and  C10_16 
ROOT
HETATM    1  N1  UNL     1       1.353   0.017  24.092  1.00  0.00    -0.172 NA
HETATM    2  C1  UNL     1       0.280   0.487  24.131  1.00  0.00     0.177 C 
HETATM    3  N2  UNL     1      -0.999   1.036  24.185  1.00  0.00    -0.321 N 
ATOM      4  H2  UNL     1      -1.104   2.051  24.157  1.00  0.00     0.172 HD
ENDROOT
BRANCH   3   5
HETATM    5  C2  UNL     1      -2.186   0.209  24.279  1.00  0.00     0.135 C 
HETATM    6  C3  UNL     1      -1.968  -0.934  25.226  1.00  0.00     0.067 C 
HETATM    7  C4  UNL     1      -2.363  -0.700  26.626  1.00  0.00     0.060 C 
HETATM    8  C5  UNL     1      -3.711  -1.398  26.861  1.00  0.00     0.038 C 
HETATM    9  C8  UNL     1      -2.771   0.744  26.870  1.00  0.00     0.045 C 
HETATM   10  C6  UNL     1      -4.640  -0.525  26.052  1.00  0.00     0.011 C 
HETATM   11  C7  UNL     1      -3.970   0.838  25.943  1.00  0.00     0.031 C 
HETATM   12  C9  UNL     1      -3.402   1.019  24.546  1.00  0.00     0.135 C 
HETATM   13  F1  UNL     1      -3.092   2.385  24.447  1.00  0.00    -0.240 F 
BRANCH   7  14
HETATM   14  O1  UNL     1      -1.497  -1.172  27.580  1.00  0.00    -0.390 OA
ATOM     15  H1  UNL     1      -1.896  -1.612  28.322  1.00  0.00     0.210 HD
ENDBRANCH   7  14
BRANCH  12  16
HETATM   16  C10 UNL     1      -4.457   0.762  23.497  1.00  0.00     0.079 C 
HETATM   17  C11 UNL     1      -4.560   1.768  22.401  1.00  0.00     0.241 C 
HETATM   18  N3  UNL     1      -4.828   0.642  21.492  1.00  0.00    -0.074 N 
HETATM   19  C12 UNL     1      -3.951  -0.140  22.363  1.00  0.00     0.241 C 
ATOM     20  H32 UNL     1      -5.778   0.341  21.277  1.00  0.00     0.277 HD
ATOM     21  H31 UNL     1      -4.662   0.713  20.489  1.00  0.00     0.277 HD
ENDBRANCH  12  16
ENDBRANCH   3   5
TORSDOF 3
ENDMDL
MODEL 4
REMARK VINA RESULT: -6.811283581      4.384      6.006
REMARK  3 active torsions:
REMARK  status: ('A' for Active; 'I' for Inactive)
REMARK    1  A    between atoms: N2_3  and  C2_5 
REMARK    2  A    between atoms: C4_7  and  O1_8 
REMARK    3  A    between atoms: C9_14  and  C10_16 
ROOT
HETATM    1  N1  UNL     1      -7.959   3.820  28.626  1.00  0.00    -0.172 NA
HETATM    2  C1  UNL     1      -6.820   3.573  28.510  1.00  0.00     0.177 C 
HETATM    3  N2  UNL     1      -5.468   3.266  28.369  1.00  0.00    -0.321 N 
ATOM      4  H2  UNL     1      -4.821   4.002  28.084  1.00  0.00     0.172 HD
ENDROOT
BRANCH   3   5
HETATM    5  C2  UNL     1      -4.953   1.934  28.615  1.00  0.00     0.135 C 
HETATM    6  C3  UNL     1      -5.600   0.934  27.703  1.00  0.00     0.067 C 
HETATM    7  C4  UNL     1      -4.899   0.665  26.435  1.00  0.00     0.060 C 
HETATM    8  C5  UNL     1      -4.156  -0.673  26.579  1.00  0.00     0.038 C 
HETATM    9  C8  UNL     1      -3.717   1.598  26.227  1.00  0.00     0.045 C 
HETATM   10  C6  UNL     1      -3.060  -0.298  27.548  1.00  0.00     0.011 C 
HETATM   11  C7  UNL     1      -2.861   1.205  27.417  1.00  0.00     0.031 C 
HETATM   12  C9  UNL     1      -3.468   1.909  28.618  1.00  0.00     0.135 C 
HETATM   13  F1  UNL     1      -2.973   3.222  28.567  1.00  0.00    -0.240 F 
BRANCH   7  14
HETATM   14  O1  UNL     1      -5.693   0.562  25.321  1.00  0.00    -0.390 OA
ATOM     15  H1  UNL     1      -6.034  -0.304  25.132  1.00  0.00     0.210 HD
ENDBRANCH   7  14
BRANCH  12  16
HETATM   16  C10 UNL     1      -2.945   1.325  29.907  1.00  0.00     0.079 C 
HETATM   17  C11 UNL     1      -1.494   1.527  30.187  1.00  0.00     0.241 C 
HETATM   18  N3  UNL     1      -1.865   1.704  31.599  1.00  0.00    -0.074 N 
HETATM   19  C12 UNL     1      -3.112   2.281  31.096  1.00  0.00     0.241 C 
ATOM     20  H32 UNL     1      -1.862   0.924  32.256  1.00  0.00     0.277 HD
ATOM     21  H31 UNL     1      -1.266   2.209  32.251  1.00  0.00     0.277 HD
ENDBRANCH  12  16
ENDBRANCH   3   5
TORSDOF 3
ENDMDL
MODEL 5
REMARK VINA RESULT: -6.507847245      1.672      2.118
REMARK  3 active torsions:
REMARK  status: ('A' for Active; 'I' for Inactive)
REMARK    1  A    between atoms: N2_3  and  C2_5 
REMARK    2  A    between atoms: C4_7  and  O1_8 
REMARK    3  A    between atoms: C9_14  and  C10_16 
ROOT
HETATM    1  N1  UNL     1      -1.883  -0.980  28.480  1.00  0.00    -0.172 NA
HETATM    2  C1  UNL     1      -1.928  -0.834  27.318  1.00  0.00     0.177 C 
HETATM    3  N2  UNL     1      -1.981  -0.649  25.938  1.00  0.00    -0.321 N 
ATOM      4  H2  UNL     1      -1.538  -1.337  25.329  1.00  0.00     0.172 HD
ENDROOT
BRANCH   3   5
HETATM    5  C2  UNL     1      -2.647   0.493  25.343  1.00  0.00     0.135 C 
HETATM    6  C3  UNL     1      -1.876   1.006  24.163  1.00  0.00     0.067 C 
HETATM    7  C4  UNL     1      -2.258   0.456  22.850  1.00  0.00     0.060 C 
HETATM    8  C5  UNL     1      -3.119   1.504  22.128  1.00  0.00     0.038 C 
HETATM    9  C8  UNL     1      -3.270  -0.672  22.976  1.00  0.00     0.045 C 
HETATM   10  C6  UNL     1      -4.389   1.455  22.945  1.00  0.00     0.011 C 
HETATM   11  C7  UNL     1      -4.426   0.085  23.607  1.00  0.00     0.031 C 
HETATM   12  C9  UNL     1      -4.083   0.217  25.080  1.00  0.00     0.135 C 
HETATM   13  F1  UNL     1      -4.442  -1.013  25.655  1.00  0.00    -0.240 F 
BRANCH   7  14
HETATM   14  O1  UNL     1      -1.221   0.142  22.007  1.00  0.00    -0.390 OA
ATOM     15  H1  UNL     1      -0.481  -0.299  22.406  1.00  0.00     0.210 HD
ENDBRANCH   7  14
BRANCH  12  16
HETATM   16  C10 UNL     1      -4.957   1.250  25.747  1.00  0.00     0.079 C 
HETATM   17  C11 UNL     1      -5.702   0.806  26.961  1.00  0.00     0.241 C 
HETATM   18  N3  UNL     1      -5.439   2.140  27.522  1.00  0.00    -0.074 N 
HETATM   19  C12 UNL     1      -4.187   2.102  26.766  1.00  0.00     0.241 C 
ATOM     20  H32 UNL     1      -6.105   2.906  27.419  1.00  0.00     0.277 HD
ATOM     21  H31 UNL     1      -5.453   2.310  28.527  1.00  0.00     0.277 HD
ENDBRANCH  12  16
ENDBRANCH   3   5
TORSDOF 3
ENDMDL
