MODEL 1
REMARK VINA RESULT: -6.111632510      0.000      0.000
REMARK  6 active torsions:
REMARK  status: ('A' for Active; 'I' for Inactive)
REMARK    1  A    between atoms: C2_2  and  O1_4 
REMARK    2  A    between atoms: C2_2  and  C4_6 
REMARK    3  A    between atoms: C5_8  and  C6_10 
REMARK    4  A    between atoms: C6_10  and  O3_11 
REMARK    5  A    between atoms: C6_10  and  C7_13 
REMARK    6  A    between atoms: C7_13  and  O4_14 
ROOT
HETATM    1  C4  UNL     1      -4.033   0.176  23.995  1.00  0.00     0.205 A 
HETATM    2  O2  UNL     1      -3.351  -1.043  23.508  1.00  0.00    -0.351 OA
HETATM    3  C5  UNL     1      -2.911  -0.321  24.727  1.00  0.00     0.175 A 
HETATM    4 BR1  UNL     1      -1.180   0.446  24.472  1.00  0.00    -0.049 Br
ENDROOT
BRANCH   3   5
HETATM    5  C6  UNL     1      -3.166  -1.219  25.909  1.00  0.00     0.190 C 
BRANCH   5   6
HETATM    6  O3  UNL     1      -2.595  -2.469  25.689  1.00  0.00    -0.389 OA
ATOM      7  H3  UNL     1      -3.171  -3.150  26.015  1.00  0.00     0.210 HD
ENDBRANCH   5   6
BRANCH   5   8
HETATM    8  C7  UNL     1      -2.641  -0.673  27.192  1.00  0.00     0.199 C 
BRANCH   8   9
HETATM    9  O4  UNL     1      -1.404  -1.270  27.437  1.00  0.00    -0.398 OA
ATOM     10  H4  UNL     1      -1.550  -2.030  27.988  1.00  0.00     0.209 HD
ENDBRANCH   8   9
ENDBRANCH   5   8
ENDBRANCH   3   5
BRANCH   1  11
HETATM   11  C2  UNL     1      -3.970   1.216  22.914  1.00  0.00     0.080 C 
HETATM   12  C1  UNL     1      -5.254   1.373  22.170  1.00  0.00     0.048 C 
HETATM   13  C3  UNL     1      -2.894   0.747  21.924  1.00  0.00     0.048 C 
BRANCH  11  14
HETATM   14  O1  UNL     1      -3.555   2.457  23.384  1.00  0.00    -0.388 OA
ATOM     15  H1  UNL     1      -4.301   2.922  23.745  1.00  0.00     0.210 HD
ENDBRANCH  11  14
ENDBRANCH   1  11
TORSDOF 6
ENDMDL
MODEL 2
REMARK VINA RESULT: -6.104576597      2.591      4.742
REMARK  6 active torsions:
REMARK  status: ('A' for Active; 'I' for Inactive)
REMARK    1  A    between atoms: C2_2  and  O1_4 
REMARK    2  A    between atoms: C2_2  and  C4_6 
REMARK    3  A    between atoms: C5_8  and  C6_10 
REMARK    4  A    between atoms: C6_10  and  O3_11 
REMARK    5  A    between atoms: C6_10  and  C7_13 
REMARK    6  A    between atoms: C7_13  and  O4_14 
ROOT
HETATM    1  C4  UNL     1      -2.780   0.579  27.631  1.00  0.00     0.205 A 
HETATM    2  O2  UNL     1      -3.011  -0.854  27.919  1.00  0.00    -0.351 OA
HETATM    3  C5  UNL     1      -3.473  -0.212  26.664  1.00  0.00     0.175 A 
HETATM    4 BR1  UNL     1      -5.381  -0.179  26.584  1.00  0.00    -0.049 Br
ENDROOT
BRANCH   3   5
HETATM    5  C6  UNL     1      -2.685  -0.808  25.527  1.00  0.00     0.190 C 
BRANCH   5   6
HETATM    6  O3  UNL     1      -2.854  -2.190  25.504  1.00  0.00    -0.389 OA
ATOM      7  H3  UNL     1      -2.265  -2.578  24.868  1.00  0.00     0.210 HD
ENDBRANCH   5   6
BRANCH   5   8
HETATM    8  C7  UNL     1      -3.062  -0.260  24.193  1.00  0.00     0.199 C 
BRANCH   8   9
HETATM    9  O4  UNL     1      -3.861  -1.206  23.551  1.00  0.00    -0.398 OA
ATOM     10  H4  UNL     1      -3.563  -1.278  22.651  1.00  0.00     0.209 HD
ENDBRANCH   8   9
ENDBRANCH   5   8
ENDBRANCH   3   5
BRANCH   1  11
HETATM   11  C2  UNL     1      -3.430   1.388  28.715  1.00  0.00     0.080 C 
HETATM   12  C1  UNL     1      -3.772   2.777  28.290  1.00  0.00     0.048 C 
HETATM   13  C3  UNL     1      -2.415   1.472  29.863  1.00  0.00     0.048 C 
BRANCH  11  14
HETATM   14  O1  UNL     1      -4.564   0.775  29.238  1.00  0.00    -0.388 OA
ATOM     15  H1  UNL     1      -4.384  -0.146  29.383  1.00  0.00     0.210 HD
ENDBRANCH  11  14
ENDBRANCH   1  11
TORSDOF 6
ENDMDL
MODEL 3
REMARK VINA RESULT: -6.008903918      2.722      4.509
REMARK  6 active torsions:
REMARK  status: ('A' for Active; 'I' for Inactive)
REMARK    1  A    between atoms: C2_2  and  O1_4 
REMARK    2  A    between atoms: C2_2  and  C4_6 
REMARK    3  A    between atoms: C5_8  and  C6_10 
REMARK    4  A    between atoms: C6_10  and  O3_11 
REMARK    5  A    between atoms: C6_10  and  C7_13 
REMARK    6  A    between atoms: C7_13  and  O4_14 
ROOT
HETATM    1  C4  UNL     1      -2.828   0.514  27.701  1.00  0.00     0.205 A 
HETATM    2  O2  UNL     1      -3.548  -0.754  27.446  1.00  0.00    -0.351 OA
HETATM    3  C5  UNL     1      -3.139   0.161  26.352  1.00  0.00     0.175 A 
HETATM    4 BR1  UNL     1      -4.669   0.910  25.490  1.00  0.00    -0.049 Br
ENDROOT
BRANCH   3   5
HETATM    5  C6  UNL     1      -2.087  -0.543  25.534  1.00  0.00     0.190 C 
BRANCH   5   6
HETATM    6  O3  UNL     1      -2.571  -1.771  25.092  1.00  0.00    -0.389 OA
ATOM      7  H3  UNL     1      -2.749  -1.733  24.160  1.00  0.00     0.210 HD
ENDBRANCH   5   6
BRANCH   5   8
HETATM    8  C7  UNL     1      -1.630   0.243  24.354  1.00  0.00     0.199 C 
BRANCH   8   9
HETATM    9  O4  UNL     1      -0.845   1.298  24.819  1.00  0.00    -0.398 OA
ATOM     10  H4  UNL     1      -0.008   1.260  24.371  1.00  0.00     0.209 HD
ENDBRANCH   8   9
ENDBRANCH   5   8
ENDBRANCH   3   5
BRANCH   1  11
HETATM   11  C2  UNL     1      -3.683   1.369  28.591  1.00  0.00     0.080 C 
HETATM   12  C1  UNL     1      -3.847   2.764  28.088  1.00  0.00     0.048 C 
HETATM   13  C3  UNL     1      -2.971   1.428  29.950  1.00  0.00     0.048 C 
BRANCH  11  14
HETATM   14  O1  UNL     1      -4.936   0.815  28.828  1.00  0.00    -0.388 OA
ATOM     15  H1  UNL     1      -4.846   0.070  29.410  1.00  0.00     0.210 HD
ENDBRANCH  11  14
ENDBRANCH   1  11
TORSDOF 6
ENDMDL
MODEL 4
REMARK VINA RESULT: -5.926203192      2.071      2.617
REMARK  6 active torsions:
REMARK  status: ('A' for Active; 'I' for Inactive)
REMARK    1  A    between atoms: C2_2  and  O1_4 
REMARK    2  A    between atoms: C2_2  and  C4_6 
REMARK    3  A    between atoms: C5_8  and  C6_10 
REMARK    4  A    between atoms: C6_10  and  O3_11 
REMARK    5  A    between atoms: C6_10  and  C7_13 
REMARK    6  A    between atoms: C7_13  and  O4_14 
ROOT
HETATM    1  C4  UNL     1      -4.038  -0.608  23.764  1.00  0.00     0.205 A 
HETATM    2  O2  UNL     1      -3.005  -1.424  24.440  1.00  0.00    -0.351 OA
HETATM    3  C5  UNL     1      -3.740  -0.338  25.135  1.00  0.00     0.175 A 
HETATM    4 BR1  UNL     1      -2.558   1.088  25.599  1.00  0.00    -0.049 Br
ENDROOT
BRANCH   3   5
HETATM    5  C6  UNL     1      -4.602  -0.972  26.195  1.00  0.00     0.190 C 
BRANCH   5   6
HETATM    6  O3  UNL     1      -3.802  -1.516  27.197  1.00  0.00    -0.389 OA
ATOM      7  H3  UNL     1      -3.450  -0.823  27.743  1.00  0.00     0.210 HD
ENDBRANCH   5   6
BRANCH   5   8
HETATM    8  C7  UNL     1      -5.568  -0.025  26.819  1.00  0.00     0.199 C 
BRANCH   8   9
HETATM    9  O4  UNL     1      -6.830  -0.618  26.789  1.00  0.00    -0.398 OA
ATOM     10  H4  UNL     1      -7.094  -0.699  25.880  1.00  0.00     0.209 HD
ENDBRANCH   8   9
ENDBRANCH   5   8
ENDBRANCH   3   5
BRANCH   1  11
HETATM   11  C2  UNL     1      -3.403   0.076  22.589  1.00  0.00     0.080 C 
HETATM   12  C1  UNL     1      -1.974   0.441  22.819  1.00  0.00     0.048 C 
HETATM   13  C3  UNL     1      -4.199   1.368  22.356  1.00  0.00     0.048 C 
BRANCH  11  14
HETATM   14  O1  UNL     1      -3.506  -0.664  21.415  1.00  0.00    -0.388 OA
ATOM     15  H1  UNL     1      -2.724  -0.534  20.892  1.00  0.00     0.210 HD
ENDBRANCH  11  14
ENDBRANCH   1  11
TORSDOF 6
ENDMDL
MODEL 5
REMARK VINA RESULT: -5.910348986      2.366      4.379
REMARK  6 active torsions:
REMARK  status: ('A' for Active; 'I' for Inactive)
REMARK    1  A    between atoms: C2_2  and  O1_4 
REMARK    2  A    between atoms: C2_2  and  C4_6 
REMARK    3  A    between atoms: C5_8  and  C6_10 
REMARK    4  A    between atoms: C6_10  and  O3_11 
REMARK    5  A    between atoms: C6_10  and  C7_13 
REMARK    6  A    between atoms: C7_13  and  O4_14 
ROOT
HETATM    1  C4  UNL     1      -2.855  -0.363  24.332  1.00  0.00     0.205 A 
HETATM    2  O2  UNL     1      -3.668  -1.174  23.400  1.00  0.00    -0.351 OA
HETATM    3  C5  UNL     1      -3.185   0.185  23.054  1.00  0.00     0.175 A 
HETATM    4 BR1  UNL     1      -4.649   1.399  22.878  1.00  0.00    -0.049 Br
ENDROOT
BRANCH   3   5
HETATM    5  C6  UNL     1      -2.187   0.046  21.934  1.00  0.00     0.190 C 
BRANCH   5   6
HETATM    6  O3  UNL     1      -2.729  -0.721  20.907  1.00  0.00    -0.389 OA
ATOM      7  H3  UNL     1      -2.202  -0.630  20.122  1.00  0.00     0.210 HD
ENDBRANCH   5   6
BRANCH   5   8
HETATM    8  C7  UNL     1      -1.743   1.352  21.371  1.00  0.00     0.199 C 
BRANCH   8   9
HETATM    9  O4  UNL     1      -0.985   1.091  20.229  1.00  0.00    -0.398 OA
ATOM     10  H4  UNL     1      -0.067   1.150  20.468  1.00  0.00     0.209 HD
ENDBRANCH   8   9
ENDBRANCH   5   8
ENDBRANCH   3   5
BRANCH   1  11
HETATM   11  C2  UNL     1      -3.644  -0.158  25.592  1.00  0.00     0.080 C 
HETATM   12  C1  UNL     1      -3.418   1.176  26.221  1.00  0.00     0.048 C 
HETATM   13  C3  UNL     1      -3.179  -1.241  26.576  1.00  0.00     0.048 C 
BRANCH  11  14
HETATM   14  O1  UNL     1      -5.009  -0.355  25.410  1.00  0.00    -0.388 OA
ATOM     15  H1  UNL     1      -5.177  -1.279  25.267  1.00  0.00     0.210 HD
ENDBRANCH  11  14
ENDBRANCH   1  11
TORSDOF 6
ENDMDL
