MODEL 1
REMARK VINA RESULT: -7.184730758      0.000      0.000
REMARK  7 active torsions:
REMARK  status: ('A' for Active; 'I' for Inactive)
REMARK    1  A    between atoms: C2_2  and  C3_3 
REMARK       I    between atoms: C3_3  and  N1_5 
REMARK    2  A    between atoms: N1_5  and  C4_7 
REMARK    3  A    between atoms: C7_11  and  N2_12 
REMARK    4  A    between atoms: N2_12  and  N3_14 
REMARK    5  A    between atoms: N3_14  and  N4_15 
REMARK    6  A    between atoms: C8_18  and  O2_19 
REMARK    7  A    between atoms: C9_21  and  O3_22 
ROOT
HETATM    1  C4  UNL     1      -2.587   0.790  27.290  1.00  0.00     0.118 C 
HETATM    2  C5  UNL     1      -3.240   1.637  26.250  1.00  0.00     0.067 C 
HETATM    3  C6  UNL     1      -4.163   0.796  25.407  1.00  0.00     0.200 C 
HETATM    4  F1  UNL     1      -5.089   0.141  26.184  1.00  0.00    -0.247 F 
HETATM    5  C7  UNL     1      -3.289  -0.151  24.622  1.00  0.00     0.179 C 
HETATM    6  C8  UNL     1      -2.377  -0.963  25.491  1.00  0.00     0.176 C 
HETATM    7  C9  UNL     1      -2.440  -0.644  26.937  1.00  0.00     0.171 C 
ENDROOT
BRANCH   1   8
HETATM    8  N1  UNL     1      -3.271   0.909  28.564  1.00  0.00    -0.350 N 
HETATM    9  C3  UNL     1      -2.809   1.730  29.619  1.00  0.00     0.240 C 
HETATM   10  O1  UNL     1      -1.764   2.404  29.491  1.00  0.00    -0.269 OA
ATOM     11  H1  UNL     1      -4.127   0.374  28.706  1.00  0.00     0.163 HD
BRANCH   9  12
HETATM   12  C2  UNL     1      -3.539   1.806  30.872  1.00  0.00     0.064 C 
HETATM   13  C1  UNL     1      -3.128   2.547  31.873  1.00  0.00     0.017 C 
ENDBRANCH   9  12
ENDBRANCH   1   8
BRANCH   7  14
HETATM   14  O3  UNL     1      -1.295  -1.159  27.551  1.00  0.00    -0.391 OA
ATOM     15  H3  UNL     1      -1.494  -1.386  28.451  1.00  0.00     0.210 HD
ENDBRANCH   7  14
BRANCH   6  16
HETATM   16  O2  UNL     1      -2.748  -2.312  25.322  1.00  0.00    -0.391 OA
ATOM     17  H2  UNL     1      -3.690  -2.326  25.198  1.00  0.00     0.210 HD
ENDBRANCH   6  16
BRANCH   5  18
HETATM   18  N2  UNL     1      -4.160  -0.965  23.796  1.00  0.00    -0.242 N 
ATOM     19  H2  UNL     1      -5.002  -1.367  24.207  1.00  0.00     0.197 HD
BRANCH  18  20
HETATM   20  N3  UNL     1      -3.908  -1.183  22.615  1.00  0.00    -0.248 NA
BRANCH  20  21
HETATM   21  N4  UNL     1      -3.531  -1.273  21.440  1.00  0.00    -0.261 N 
ATOM     22  H42 UNL     1      -3.346  -0.271  21.489  1.00  0.00     0.193 HD
ATOM     23  H41 UNL     1      -3.252  -1.491  20.484  1.00  0.00     0.193 HD
ENDBRANCH  20  21
ENDBRANCH  18  20
ENDBRANCH   5  18
TORSDOF 7
ENDMDL
MODEL 2
REMARK VINA RESULT: -7.016493414      2.380      2.802
REMARK  7 active torsions:
REMARK  status: ('A' for Active; 'I' for Inactive)
REMARK    1  A    between atoms: C2_2  and  C3_3 
REMARK       I    between atoms: C3_3  and  N1_5 
REMARK    2  A    between atoms: N1_5  and  C4_7 
REMARK    3  A    between atoms: C7_11  and  N2_12 
REMARK    4  A    between atoms: N2_12  and  N3_14 
REMARK    5  A    between atoms: N3_14  and  N4_15 
REMARK    6  A    between atoms: C8_18  and  O2_19 
REMARK    7  A    between atoms: C9_21  and  O3_22 
ROOT
HETATM    1  C4  UNL     1      -3.348   0.450  26.432  1.00  0.00     0.118 C 
HETATM    2  C5  UNL     1      -2.290  -0.520  26.026  1.00  0.00     0.067 C 
HETATM    3  C6  UNL     1      -1.611  -0.044  24.768  1.00  0.00     0.200 C 
HETATM    4  F1  UNL     1      -1.105   1.224  24.924  1.00  0.00    -0.247 F 
HETATM    5  C7  UNL     1      -2.637  -0.127  23.665  1.00  0.00     0.179 C 
HETATM    6  C8  UNL     1      -3.896   0.622  23.977  1.00  0.00     0.176 C 
HETATM    7  C9  UNL     1      -3.941   1.240  25.323  1.00  0.00     0.171 C 
ENDROOT
BRANCH   1   8
HETATM    8  N1  UNL     1      -2.865   1.347  27.464  1.00  0.00    -0.350 N 
HETATM    9  C3  UNL     1      -3.477   1.472  28.732  1.00  0.00     0.240 C 
HETATM   10  O1  UNL     1      -4.487   0.794  29.023  1.00  0.00    -0.269 OA
ATOM     11  H1  UNL     1      -2.042   1.917  27.265  1.00  0.00     0.163 HD
BRANCH   9  12
HETATM   12  C2  UNL     1      -2.944   2.390  29.725  1.00  0.00     0.064 C 
HETATM   13  C1  UNL     1      -2.256   1.972  30.760  1.00  0.00     0.017 C 
ENDBRANCH   9  12
ENDBRANCH   1   8
BRANCH   7  14
HETATM   14  O3  UNL     1      -5.271   1.539  25.626  1.00  0.00    -0.391 OA
ATOM     15  H3  UNL     1      -5.627   2.110  24.955  1.00  0.00     0.210 HD
ENDBRANCH   7  14
BRANCH   6  16
HETATM   16  O2  UNL     1      -4.007   1.649  23.018  1.00  0.00    -0.391 OA
ATOM     17  H2  UNL     1      -3.493   2.381  23.338  1.00  0.00     0.210 HD
ENDBRANCH   6  16
BRANCH   5  18
HETATM   18  N2  UNL     1      -1.999   0.319  22.440  1.00  0.00    -0.242 N 
ATOM     19  H2  UNL     1      -1.417   1.156  22.461  1.00  0.00     0.197 HD
BRANCH  18  20
HETATM   20  N3  UNL     1      -2.142  -0.284  21.382  1.00  0.00    -0.248 NA
BRANCH  20  21
HETATM   21  N4  UNL     1      -2.207  -1.032  20.398  1.00  0.00    -0.261 N 
ATOM     22  H42 UNL     1      -1.812  -1.755  21.000  1.00  0.00     0.193 HD
ATOM     23  H41 UNL     1      -2.318  -1.531  19.516  1.00  0.00     0.193 HD
ENDBRANCH  20  21
ENDBRANCH  18  20
ENDBRANCH   5  18
TORSDOF 7
ENDMDL
MODEL 3
REMARK VINA RESULT: -6.874983567      2.124      2.430
REMARK  7 active torsions:
REMARK  status: ('A' for Active; 'I' for Inactive)
REMARK    1  A    between atoms: C2_2  and  C3_3 
REMARK       I    between atoms: C3_3  and  N1_5 
REMARK    2  A    between atoms: N1_5  and  C4_7 
REMARK    3  A    between atoms: C7_11  and  N2_12 
REMARK    4  A    between atoms: N2_12  and  N3_14 
REMARK    5  A    between atoms: N3_14  and  N4_15 
REMARK    6  A    between atoms: C8_18  and  O2_19 
REMARK    7  A    between atoms: C9_21  and  O3_22 
ROOT
HETATM    1  C4  UNL     1      -3.745   0.310  27.317  1.00  0.00     0.118 C 
HETATM    2  C5  UNL     1      -3.568  -1.061  26.757  1.00  0.00     0.067 C 
HETATM    3  C6  UNL     1      -2.607  -1.022  25.598  1.00  0.00     0.200 C 
HETATM    4  F1  UNL     1      -1.405  -0.465  25.965  1.00  0.00    -0.247 F 
HETATM    5  C7  UNL     1      -3.290  -0.254  24.494  1.00  0.00     0.179 C 
HETATM    6  C8  UNL     1      -3.751   1.105  24.925  1.00  0.00     0.176 C 
HETATM    7  C9  UNL     1      -3.526   1.420  26.356  1.00  0.00     0.171 C 
ENDROOT
BRANCH   1   8
HETATM    8  N1  UNL     1      -2.909   0.508  28.486  1.00  0.00    -0.350 N 
HETATM    9  C3  UNL     1      -3.211   1.436  29.508  1.00  0.00     0.240 C 
HETATM   10  O1  UNL     1      -4.240   2.144  29.444  1.00  0.00    -0.269 OA
ATOM     11  H1  UNL     1      -2.060  -0.051  28.575  1.00  0.00     0.163 HD
BRANCH   9  12
HETATM   12  C2  UNL     1      -2.332   1.588  30.655  1.00  0.00     0.064 C 
HETATM   13  C1  UNL     1      -2.488   2.554  31.528  1.00  0.00     0.017 C 
ENDBRANCH   9  12
ENDBRANCH   1   8
BRANCH   7  14
HETATM   14  O3  UNL     1      -4.339   2.502  26.702  1.00  0.00    -0.391 OA
ATOM     15  H3  UNL     1      -3.823   3.148  27.169  1.00  0.00     0.210 HD
ENDBRANCH   7  14
BRANCH   6  16
HETATM   16  O2  UNL     1      -3.037   2.042  24.151  1.00  0.00    -0.391 OA
ATOM     17  H2  UNL     1      -3.379   2.900  24.373  1.00  0.00     0.210 HD
ENDBRANCH   6  16
BRANCH   5  18
HETATM   18  N2  UNL     1      -2.383  -0.213  23.363  1.00  0.00    -0.242 N 
ATOM     19  H2  UNL     1      -1.397  -0.006  23.524  1.00  0.00     0.197 HD
BRANCH  18  20
HETATM   20  N3  UNL     1      -2.770  -0.422  22.218  1.00  0.00    -0.248 NA
BRANCH  20  21
HETATM   21  N4  UNL     1      -3.089  -0.797  21.083  1.00  0.00    -0.261 N 
ATOM     22  H42 UNL     1      -3.946  -1.150  21.508  1.00  0.00     0.193 HD
ATOM     23  H41 UNL     1      -3.222  -1.050  20.104  1.00  0.00     0.193 HD
ENDBRANCH  20  21
ENDBRANCH  18  20
ENDBRANCH   5  18
TORSDOF 7
ENDMDL
MODEL 4
REMARK VINA RESULT: -6.819257938      3.282      5.216
REMARK  7 active torsions:
REMARK  status: ('A' for Active; 'I' for Inactive)
REMARK    1  A    between atoms: C2_2  and  C3_3 
REMARK       I    between atoms: C3_3  and  N1_5 
REMARK    2  A    between atoms: N1_5  and  C4_7 
REMARK    3  A    between atoms: C7_11  and  N2_12 
REMARK    4  A    between atoms: N2_12  and  N3_14 
REMARK    5  A    between atoms: N3_14  and  N4_15 
REMARK    6  A    between atoms: C8_18  and  O2_19 
REMARK    7  A    between atoms: C9_21  and  O3_22 
ROOT
HETATM    1  C4  UNL     1      -2.623  -0.010  24.624  1.00  0.00     0.118 C 
HETATM    2  C5  UNL     1      -3.344   1.288  24.476  1.00  0.00     0.067 C 
HETATM    3  C6  UNL     1      -3.940   1.699  25.796  1.00  0.00     0.200 C 
HETATM    4  F1  UNL     1      -2.981   1.761  26.779  1.00  0.00    -0.247 F 
HETATM    5  C7  UNL     1      -5.028   0.701  26.109  1.00  0.00     0.179 C 
HETATM    6  C8  UNL     1      -4.544  -0.716  26.094  1.00  0.00     0.176 C 
HETATM    7  C9  UNL     1      -3.125  -0.891  25.707  1.00  0.00     0.171 C 
ENDROOT
BRANCH   1   8
HETATM    8  N1  UNL     1      -1.198   0.202  24.791  1.00  0.00    -0.350 N 
HETATM    9  C3  UNL     1      -0.273   0.136  23.723  1.00  0.00     0.240 C 
HETATM   10  O1  UNL     1      -0.659  -0.115  22.560  1.00  0.00    -0.269 OA
ATOM     11  H1  UNL     1      -0.844   0.409  25.725  1.00  0.00     0.163 HD
BRANCH   9  12
HETATM   12  C2  UNL     1       1.144   0.357  23.955  1.00  0.00     0.064 C 
HETATM   13  C1  UNL     1       1.939  -0.601  24.366  1.00  0.00     0.017 C 
ENDBRANCH   9  12
ENDBRANCH   1   8
BRANCH   7  14
HETATM   14  O3  UNL     1      -2.928  -2.227  25.348  1.00  0.00    -0.391 OA
ATOM     15  H3  UNL     1      -2.361  -2.646  25.985  1.00  0.00     0.210 HD
ENDBRANCH   7  14
BRANCH   6  16
HETATM   16  O2  UNL     1      -4.709  -1.217  27.402  1.00  0.00    -0.391 OA
ATOM     17  H2  UNL     1      -4.745  -2.163  27.332  1.00  0.00     0.210 HD
ENDBRANCH   6  16
BRANCH   5  18
HETATM   18  N2  UNL     1      -5.623   1.086  27.375  1.00  0.00    -0.242 N 
ATOM     19  H2  UNL     1      -5.721   0.385  28.111  1.00  0.00     0.197 HD
BRANCH  18  20
HETATM   20  N3  UNL     1      -6.009   2.231  27.585  1.00  0.00    -0.248 NA
BRANCH  20  21
HETATM   21  N4  UNL     1      -6.554   3.334  27.715  1.00  0.00    -0.261 N 
ATOM     22  H42 UNL     1      -6.570   3.138  28.716  1.00  0.00     0.193 HD
ATOM     23  H41 UNL     1      -6.991   4.254  27.674  1.00  0.00     0.193 HD
ENDBRANCH  20  21
ENDBRANCH  18  20
ENDBRANCH   5  18
TORSDOF 7
ENDMDL
MODEL 5
REMARK VINA RESULT: -6.699165023      2.191      6.047
REMARK  7 active torsions:
REMARK  status: ('A' for Active; 'I' for Inactive)
REMARK    1  A    between atoms: C2_2  and  C3_3 
REMARK       I    between atoms: C3_3  and  N1_5 
REMARK    2  A    between atoms: N1_5  and  C4_7 
REMARK    3  A    between atoms: C7_11  and  N2_12 
REMARK    4  A    between atoms: N2_12  and  N3_14 
REMARK    5  A    between atoms: N3_14  and  N4_15 
REMARK    6  A    between atoms: C8_18  and  O2_19 
REMARK    7  A    between atoms: C9_21  and  O3_22 
ROOT
HETATM    1  C4  UNL     1      -4.252   0.091  26.609  1.00  0.00     0.118 C 
HETATM    2  C5  UNL     1      -5.520   0.388  27.337  1.00  0.00     0.067 C 
HETATM    3  C6  UNL     1      -5.500   1.805  27.847  1.00  0.00     0.200 C 
HETATM    4  F1  UNL     1      -5.280   2.699  26.826  1.00  0.00    -0.247 F 
HETATM    5  C7  UNL     1      -4.435   1.867  28.913  1.00  0.00     0.179 C 
HETATM    6  C8  UNL     1      -3.097   1.393  28.432  1.00  0.00     0.176 C 
HETATM    7  C9  UNL     1      -3.074   0.885  27.041  1.00  0.00     0.171 C 
ENDROOT
BRANCH   1   8
HETATM    8  N1  UNL     1      -4.430   0.226  25.176  1.00  0.00    -0.350 N 
HETATM    9  C3  UNL     1      -3.769  -0.592  24.231  1.00  0.00     0.240 C 
HETATM   10  O1  UNL     1      -2.982  -1.490  24.605  1.00  0.00    -0.269 OA
ATOM     11  H1  UNL     1      -5.065   0.947  24.832  1.00  0.00     0.163 HD
BRANCH   9  12
HETATM   12  C2  UNL     1      -3.989  -0.407  22.807  1.00  0.00     0.064 C 
HETATM   13  C1  UNL     1      -3.517   0.632  22.160  1.00  0.00     0.017 C 
ENDBRANCH   9  12
ENDBRANCH   1   8
BRANCH   7  14
HETATM   14  O3  UNL     1      -1.914   0.126  26.869  1.00  0.00    -0.391 OA
ATOM     15  H3  UNL     1      -1.163   0.624  27.169  1.00  0.00     0.210 HD
ENDBRANCH   7  14
BRANCH   6  16
HETATM   16  O2  UNL     1      -2.222   2.495  28.513  1.00  0.00    -0.391 OA
ATOM     17  H2  UNL     1      -2.666   3.163  29.020  1.00  0.00     0.210 HD
ENDBRANCH   6  16
BRANCH   5  18
HETATM   18  N2  UNL     1      -4.406   3.224  29.424  1.00  0.00    -0.242 N 
ATOM     19  H2  UNL     1      -4.846   3.969  28.882  1.00  0.00     0.197 HD
BRANCH  18  20
HETATM   20  N3  UNL     1      -3.867   3.500  30.491  1.00  0.00    -0.248 NA
BRANCH  20  21
HETATM   21  N4  UNL     1      -3.168   3.738  31.484  1.00  0.00    -0.261 N 
ATOM     22  H42 UNL     1      -3.473   4.706  31.390  1.00  0.00     0.193 HD
ATOM     23  H41 UNL     1      -2.558   3.788  32.300  1.00  0.00     0.193 HD
ENDBRANCH  20  21
ENDBRANCH  18  20
ENDBRANCH   5  18
TORSDOF 7
ENDMDL
