MODEL 1
REMARK VINA RESULT: -3.766975044      0.000      0.000
REMARK  2 active torsions:
REMARK  status: ('A' for Active; 'I' for Inactive)
REMARK    1  A    between atoms: O1_1  and  C1_3 
REMARK    2  A    between atoms: C4_7  and  O2_8 
ROOT
HETATM    1  C1  UNL     1       3.647  97.432  44.063  1.00  0.00     0.149 C 
HETATM    2  C2  UNL     1       4.445  96.201  44.521  1.00  0.00     0.057 C 
HETATM    3  C3  UNL     1       5.621  96.819  43.763  1.00  0.00     0.116 C 
HETATM    4 CL1  UNL     1       6.684  95.667  42.976  1.00  0.00    -0.122 Cl
HETATM    5  C4  UNL     1       4.557  97.439  42.846  1.00  0.00     0.165 C 
ENDROOT
BRANCH   1   6
HETATM    6  O1  UNL     1       2.344  97.060  43.832  1.00  0.00    -0.393 OA
ATOM      7  H1  UNL     1       1.802  97.376  44.544  1.00  0.00     0.210 HD
ENDBRANCH   1   6
BRANCH   5   8
HETATM    8  O2  UNL     1       4.200  96.504  41.891  1.00  0.00    -0.391 OA
ATOM      9  H2  UNL     1       3.599  96.844  41.238  1.00  0.00     0.210 HD
ENDBRANCH   5   8
TORSDOF 2
ENDMDL
MODEL 2
REMARK VINA RESULT: -3.633590522      6.966      7.351
REMARK  2 active torsions:
REMARK  status: ('A' for Active; 'I' for Inactive)
REMARK    1  A    between atoms: O1_1  and  C1_3 
REMARK    2  A    between atoms: C4_7  and  O2_8 
ROOT
HETATM    1  C1  UNL     1       3.467  90.113  45.681  1.00  0.00     0.149 C 
HETATM    2  C2  UNL     1       4.578  91.041  46.194  1.00  0.00     0.057 C 
HETATM    3  C3  UNL     1       5.374  90.582  44.971  1.00  0.00     0.116 C 
HETATM    4 CL1  UNL     1       7.102  90.425  45.227  1.00  0.00    -0.122 Cl
HETATM    5  C4  UNL     1       4.586  89.270  45.092  1.00  0.00     0.165 C 
ENDROOT
BRANCH   1   6
HETATM    6  O1  UNL     1       2.809  89.564  46.756  1.00  0.00    -0.393 OA
ATOM      7  H1  UNL     1       1.873  89.627  46.610  1.00  0.00     0.210 HD
ENDBRANCH   1   6
BRANCH   5   8
HETATM    8  O2  UNL     1       5.214  88.465  46.026  1.00  0.00    -0.391 OA
ATOM      9  H2  UNL     1       6.159  88.452  45.937  1.00  0.00     0.210 HD
ENDBRANCH   5   8
TORSDOF 2
ENDMDL
MODEL 3
REMARK VINA RESULT: -3.592364315      8.958      9.488
REMARK  2 active torsions:
REMARK  status: ('A' for Active; 'I' for Inactive)
REMARK    1  A    between atoms: O1_1  and  C1_3 
REMARK    2  A    between atoms: C4_7  and  O2_8 
ROOT
HETATM    1  C1  UNL     1       7.128  87.910  45.943  1.00  0.00     0.149 C 
HETATM    2  C2  UNL     1       6.689  86.904  44.868  1.00  0.00     0.057 C 
HETATM    3  C3  UNL     1       6.233  88.127  44.068  1.00  0.00     0.116 C 
HETATM    4 CL1  UNL     1       4.783  87.888  43.111  1.00  0.00    -0.122 Cl
HETATM    5  C4  UNL     1       5.998  88.790  45.433  1.00  0.00     0.165 C 
ENDROOT
BRANCH   1   6
HETATM    6  O1  UNL     1       6.934  87.351  47.184  1.00  0.00    -0.393 OA
ATOM      7  H1  UNL     1       7.747  86.954  47.474  1.00  0.00     0.210 HD
ENDBRANCH   1   6
BRANCH   5   8
HETATM    8  O2  UNL     1       4.754  88.408  45.900  1.00  0.00    -0.391 OA
ATOM      9  H2  UNL     1       4.667  87.468  46.013  1.00  0.00     0.210 HD
ENDBRANCH   5   8
TORSDOF 2
ENDMDL
MODEL 4
REMARK VINA RESULT: -3.573147115      7.208      7.836
REMARK  2 active torsions:
REMARK  status: ('A' for Active; 'I' for Inactive)
REMARK    1  A    between atoms: O1_1  and  C1_3 
REMARK    2  A    between atoms: C4_7  and  O2_8 
ROOT
HETATM    1  C1  UNL     1       5.423  89.315  45.584  1.00  0.00     0.149 C 
HETATM    2  C2  UNL     1       4.773  89.190  44.198  1.00  0.00     0.057 C 
HETATM    3  C3  UNL     1       4.206  90.587  44.461  1.00  0.00     0.116 C 
HETATM    4 CL1  UNL     1       2.600  90.870  43.814  1.00  0.00    -0.122 Cl
HETATM    5  C4  UNL     1       4.239  90.197  45.946  1.00  0.00     0.165 C 
ENDROOT
BRANCH   1   6
HETATM    6  O1  UNL     1       5.447  88.077  46.179  1.00  0.00    -0.393 OA
ATOM      7  H1  UNL     1       6.197  88.028  46.761  1.00  0.00     0.210 HD
ENDBRANCH   1   6
BRANCH   5   8
HETATM    8  O2  UNL     1       3.093  89.481  46.238  1.00  0.00    -0.391 OA
ATOM      9  H2  UNL     1       2.626  89.186  45.465  1.00  0.00     0.210 HD
ENDBRANCH   5   8
TORSDOF 2
ENDMDL
MODEL 5
REMARK VINA RESULT: -3.556520830      5.712      6.341
REMARK  2 active torsions:
REMARK  status: ('A' for Active; 'I' for Inactive)
REMARK    1  A    between atoms: O1_1  and  C1_3 
REMARK    2  A    between atoms: C4_7  and  O2_8 
ROOT
HETATM    1  C1  UNL     1       3.471  90.132  45.836  1.00  0.00     0.149 C 
HETATM    2  C2  UNL     1       2.854  91.259  44.994  1.00  0.00     0.057 C 
HETATM    3  C3  UNL     1       4.291  91.585  44.580  1.00  0.00     0.116 C 
HETATM    4 CL1  UNL     1       4.630  93.291  44.353  1.00  0.00    -0.122 Cl
HETATM    5  C4  UNL     1       4.692  91.028  45.954  1.00  0.00     0.165 C 
ENDROOT
BRANCH   1   6
HETATM    6  O1  UNL     1       2.732  89.977  46.985  1.00  0.00    -0.393 OA
ATOM      7  H1  UNL     1       1.835  89.768  46.750  1.00  0.00     0.210 HD
ENDBRANCH   1   6
BRANCH   5   8
HETATM    8  O2  UNL     1       4.546  92.032  46.894  1.00  0.00    -0.391 OA
ATOM      9  H2  UNL     1       4.990  92.837  46.657  1.00  0.00     0.210 HD
ENDBRANCH   5   8
TORSDOF 2
ENDMDL
