MODEL 1
REMARK VINA RESULT: -3.797492868      0.000      0.000
REMARK  1 active torsions:
REMARK  status: ('A' for Active; 'I' for Inactive)
REMARK    1  A    between atoms: N2_4  and  N3_5 
ROOT
HETATM    1  C1  UNL     1       4.643  93.004  45.448  1.00  0.00     0.313 C 
HETATM    2  N1  UNL     1       4.263  92.015  44.496  1.00  0.00     0.118 N 
HETATM    3  C2  UNL     1       4.989  90.773  44.630  1.00  0.00     0.387 C 
HETATM    4  N2  UNL     1       4.351  90.161  45.784  1.00  0.00    -0.207 NA
HETATM    5  C3  UNL     1       2.933  90.421  45.616  1.00  0.00     0.167 C 
HETATM    6  C4  UNL     1       2.883  91.578  44.626  1.00  0.00     0.334 C 
HETATM    7 CL1  UNL     1       2.408  90.987  42.997  1.00  0.00    -0.090 Cl
ENDROOT
BRANCH   4   8
HETATM    8  N3  UNL     1       4.620  88.775  45.794  1.00  0.00    -0.362 NA
ATOM      9  H32 UNL     1       3.771  88.233  45.956  1.00  0.00     0.171 HD
ATOM     10  H31 UNL     1       4.950  88.484  44.873  1.00  0.00     0.171 HD
ENDBRANCH   4   8
TORSDOF 1
ENDMDL
MODEL 2
REMARK VINA RESULT: -3.786057269      2.033      2.516
REMARK  1 active torsions:
REMARK  status: ('A' for Active; 'I' for Inactive)
REMARK    1  A    between atoms: N2_4  and  N3_5 
ROOT
HETATM    1  C1  UNL     1       4.027  91.325  42.965  1.00  0.00     0.313 C 
HETATM    2  N1  UNL     1       3.820  91.983  44.211  1.00  0.00     0.118 N 
HETATM    3  C2  UNL     1       2.810  91.362  45.034  1.00  0.00     0.387 C 
HETATM    4  N2  UNL     1       3.508  90.200  45.563  1.00  0.00    -0.207 NA
HETATM    5  C3  UNL     1       4.840  90.674  45.887  1.00  0.00     0.167 C 
HETATM    6  C4  UNL     1       4.983  91.961  45.084  1.00  0.00     0.334 C 
HETATM    7 CL1  UNL     1       4.808  93.391  46.157  1.00  0.00    -0.090 Cl
ENDROOT
BRANCH   4   8
HETATM    8  N3  UNL     1       2.837  89.728  46.711  1.00  0.00    -0.362 NA
ATOM      9  H32 UNL     1       1.912  89.367  46.479  1.00  0.00     0.171 HD
ATOM     10  H31 UNL     1       3.343  88.931  47.100  1.00  0.00     0.171 HD
ENDBRANCH   4   8
TORSDOF 1
ENDMDL
MODEL 3
REMARK VINA RESULT: -3.771929932      1.370      1.607
REMARK  1 active torsions:
REMARK  status: ('A' for Active; 'I' for Inactive)
REMARK    1  A    between atoms: N2_4  and  N3_5 
ROOT
HETATM    1  C1  UNL     1       6.087  91.075  44.328  1.00  0.00     0.313 C 
HETATM    2  N1  UNL     1       4.857  90.482  43.924  1.00  0.00     0.118 N 
HETATM    3  C2  UNL     1       4.319  89.549  44.886  1.00  0.00     0.387 C 
HETATM    4  N2  UNL     1       3.764  90.431  45.901  1.00  0.00    -0.207 NA
HETATM    5  C3  UNL     1       3.130  91.506  45.161  1.00  0.00     0.167 C 
HETATM    6  C4  UNL     1       3.768  91.434  43.780  1.00  0.00     0.334 C 
HETATM    7 CL1  UNL     1       2.630  90.693  42.603  1.00  0.00    -0.090 Cl
ENDROOT
BRANCH   4   8
HETATM    8  N3  UNL     1       2.826  89.722  46.681  1.00  0.00    -0.362 NA
ATOM      9  H32 UNL     1       3.265  89.305  47.502  1.00  0.00     0.171 HD
ATOM     10  H31 UNL     1       2.130  90.369  47.052  1.00  0.00     0.171 HD
ENDBRANCH   4   8
TORSDOF 1
ENDMDL
MODEL 4
REMARK VINA RESULT: -3.698037906      6.255      6.979
REMARK  1 active torsions:
REMARK  status: ('A' for Active; 'I' for Inactive)
REMARK    1  A    between atoms: N2_4  and  N3_5 
ROOT
HETATM    1  C1  UNL     1       7.921  95.999  41.152  1.00  0.00     0.313 C 
HETATM    2  N1  UNL     1       7.402  96.531  42.368  1.00  0.00     0.118 N 
HETATM    3  C2  UNL     1       6.295  97.439  42.179  1.00  0.00     0.387 C 
HETATM    4  N2  UNL     1       5.192  96.533  41.898  1.00  0.00    -0.207 NA
HETATM    5  C3  UNL     1       5.368  95.425  42.819  1.00  0.00     0.167 C 
HETATM    6  C4  UNL     1       6.827  95.525  43.246  1.00  0.00     0.334 C 
HETATM    7 CL1  UNL     1       6.948  96.207  44.904  1.00  0.00    -0.090 Cl
ENDROOT
BRANCH   4   8
HETATM    8  N3  UNL     1       3.967  97.197  42.121  1.00  0.00    -0.362 NA
ATOM      9  H32 UNL     1       3.182  96.662  41.749  1.00  0.00     0.171 HD
ATOM     10  H31 UNL     1       3.792  97.264  43.124  1.00  0.00     0.171 HD
ENDBRANCH   4   8
TORSDOF 1
ENDMDL
MODEL 5
REMARK VINA RESULT: -3.684186051      2.158      2.652
REMARK  1 active torsions:
REMARK  status: ('A' for Active; 'I' for Inactive)
REMARK    1  A    between atoms: N2_4  and  N3_5 
ROOT
HETATM    1  C1  UNL     1       3.877  91.244  42.963  1.00  0.00     0.313 C 
HETATM    2  N1  UNL     1       4.420  91.533  44.247  1.00  0.00     0.118 N 
HETATM    3  C2  UNL     1       3.454  91.452  45.317  1.00  0.00     0.387 C 
HETATM    4  N2  UNL     1       3.315  90.016  45.505  1.00  0.00    -0.207 NA
HETATM    5  C3  UNL     1       4.663  89.488  45.397  1.00  0.00     0.167 C 
HETATM    6  C4  UNL     1       5.436  90.587  44.679  1.00  0.00     0.334 C 
HETATM    7 CL1  UNL     1       6.470  91.486  45.841  1.00  0.00    -0.090 Cl
ENDROOT
BRANCH   4   8
HETATM    8  N3  UNL     1       2.763  89.756  46.777  1.00  0.00    -0.362 NA
ATOM      9  H32 UNL     1       1.745  89.716  46.738  1.00  0.00     0.171 HD
ATOM     10  H31 UNL     1       3.054  88.831  47.094  1.00  0.00     0.171 HD
ENDBRANCH   4   8
TORSDOF 1
ENDMDL
