MODEL 1
REMARK VINA RESULT: -3.482914442      0.000      0.000
REMARK  1 active torsions:
REMARK  status: ('A' for Active; 'I' for Inactive)
REMARK    1  A    between atoms: N2_6  and  N3_7 
ROOT
HETATM    1  C1  UNL     1       5.734  94.674  43.032  1.00  0.00     0.321 C 
HETATM    2  N1  UNL     1       5.604  96.104  43.298  1.00  0.00     0.095 N 
HETATM    3 CL1  UNL     1       6.584  97.129  42.334  1.00  0.00     0.140 Cl
HETATM    4  C2  UNL     1       5.652  96.454  44.708  1.00  0.00     0.300 A 
HETATM    5  C3  UNL     1       4.185  96.755  44.709  1.00  0.00     0.179 A 
HETATM    6  N2  UNL     1       4.242  96.422  43.324  1.00  0.00    -0.040 NA
ENDROOT
BRANCH   6   7
HETATM    7  N3  UNL     1       3.810  97.359  42.414  1.00  0.00    -0.339 NA
ATOM      8  H32 UNL     1       4.111  97.262  41.444  1.00  0.00     0.172 HD
ATOM      9  H31 UNL     1       2.809  97.380  42.218  1.00  0.00     0.172 HD
ENDBRANCH   6   7
TORSDOF 1
ENDMDL
MODEL 2
REMARK VINA RESULT: -3.478864669      6.569      6.893
REMARK  1 active torsions:
REMARK  status: ('A' for Active; 'I' for Inactive)
REMARK    1  A    between atoms: N2_6  and  N3_7 
ROOT
HETATM    1  C1  UNL     1       5.718  91.341  46.036  1.00  0.00     0.321 C 
HETATM    2  N1  UNL     1       4.795  90.343  45.503  1.00  0.00     0.095 N 
HETATM    3 CL1  UNL     1       5.278  88.709  45.697  1.00  0.00     0.140 Cl
HETATM    4  C2  UNL     1       4.323  90.627  44.158  1.00  0.00     0.300 A 
HETATM    5  C3  UNL     1       2.966  90.981  44.682  1.00  0.00     0.179 A 
HETATM    6  N2  UNL     1       3.509  90.650  45.958  1.00  0.00    -0.040 NA
ENDROOT
BRANCH   6   7
HETATM    7  N3  UNL     1       2.871  89.685  46.703  1.00  0.00    -0.339 NA
ATOM      8  H32 UNL     1       1.854  89.630  46.648  1.00  0.00     0.172 HD
ATOM      9  H31 UNL     1       3.049  88.714  46.444  1.00  0.00     0.172 HD
ENDBRANCH   6   7
TORSDOF 1
ENDMDL
MODEL 3
REMARK VINA RESULT: -3.469208143      7.839      8.168
REMARK  1 active torsions:
REMARK  status: ('A' for Active; 'I' for Inactive)
REMARK    1  A    between atoms: N2_6  and  N3_7 
ROOT
HETATM    1  C1  UNL     1       5.381  86.908  43.876  1.00  0.00     0.321 C 
HETATM    2  N1  UNL     1       5.381  88.318  44.257  1.00  0.00     0.095 N 
HETATM    3 CL1  UNL     1       4.438  89.353  43.266  1.00  0.00     0.140 Cl
HETATM    4  C2  UNL     1       6.702  88.861  44.528  1.00  0.00     0.300 A 
HETATM    5  C3  UNL     1       6.409  88.905  45.996  1.00  0.00     0.179 A 
HETATM    6  N2  UNL     1       5.127  88.401  45.629  1.00  0.00    -0.040 NA
ENDROOT
BRANCH   6   7
HETATM    7  N3  UNL     1       4.016  89.118  46.009  1.00  0.00    -0.339 NA
ATOM      8  H32 UNL     1       3.525  88.831  46.856  1.00  0.00     0.172 HD
ATOM      9  H31 UNL     1       4.170  90.086  46.291  1.00  0.00     0.172 HD
ENDBRANCH   6   7
TORSDOF 1
ENDMDL
MODEL 4
REMARK VINA RESULT: -3.399970805      5.817      6.728
REMARK  1 active torsions:
REMARK  status: ('A' for Active; 'I' for Inactive)
REMARK    1  A    between atoms: N2_6  and  N3_7 
ROOT
HETATM    1  C1  UNL     1       5.867  92.729  47.355  1.00  0.00     0.321 C 
HETATM    2  N1  UNL     1       7.188  92.398  46.828  1.00  0.00     0.095 N 
HETATM    3 CL1  UNL     1       8.257  93.723  46.624  1.00  0.00     0.140 Cl
HETATM    4  C2  UNL     1       7.163  91.522  45.669  1.00  0.00     0.300 A 
HETATM    5  C3  UNL     1       7.676  90.380  46.490  1.00  0.00     0.179 A 
HETATM    6  N2  UNL     1       7.695  91.321  47.561  1.00  0.00    -0.040 NA
ENDROOT
BRANCH   6   7
HETATM    7  N3  UNL     1       8.885  91.529  48.220  1.00  0.00    -0.339 NA
ATOM      8  H32 UNL     1       9.010  91.093  49.134  1.00  0.00     0.172 HD
ATOM      9  H31 UNL     1       9.721  91.132  47.791  1.00  0.00     0.172 HD
ENDBRANCH   6   7
TORSDOF 1
ENDMDL
MODEL 5
REMARK VINA RESULT: -3.346110161      6.227      6.837
REMARK  1 active torsions:
REMARK  status: ('A' for Active; 'I' for Inactive)
REMARK    1  A    between atoms: N2_6  and  N3_7 
ROOT
HETATM    1  C1  UNL     1       3.692  89.835  43.145  1.00  0.00     0.321 C 
HETATM    2  N1  UNL     1       3.934  90.473  44.435  1.00  0.00     0.095 N 
HETATM    3 CL1  UNL     1       2.910  91.797  44.810  1.00  0.00     0.140 Cl
HETATM    4  C2  UNL     1       5.333  90.760  44.704  1.00  0.00     0.300 A 
HETATM    5  C3  UNL     1       5.389  89.660  45.719  1.00  0.00     0.179 A 
HETATM    6  N2  UNL     1       4.009  89.474  45.411  1.00  0.00    -0.040 NA
ENDROOT
BRANCH   6   7
HETATM    7  N3  UNL     1       3.100  89.547  46.440  1.00  0.00    -0.339 NA
ATOM      8  H32 UNL     1       3.420  89.907  47.339  1.00  0.00     0.172 HD
ATOM      9  H31 UNL     1       2.328  90.204  46.324  1.00  0.00     0.172 HD
ENDBRANCH   6   7
TORSDOF 1
ENDMDL
