MODEL 1
REMARK VINA RESULT: -9.543429155      0.000      0.000
REMARK  15 active torsions:
REMARK  status: ('A' for Active; 'I' for Inactive)
REMARK    1  A    between atoms: N1_1  and  C1_4 
REMARK    2  A    between atoms: C2_7  and  C3_8 
REMARK    3  A    between atoms: C6_11  and  S1_12 
REMARK    4  A    between atoms: S1_12  and  N3_13 
REMARK    5  A    between atoms: C10_21  and  C11_22 
REMARK    6  A    between atoms: C11_22  and  C12_23 
REMARK    7  A    between atoms: C12_23  and  C13_24 
REMARK    8  A    between atoms: C14_25  and  C15_26 
REMARK    9  A    between atoms: C15_26  and  C16_27 
REMARK   10  A    between atoms: C16_27  and  N4_28 
REMARK   11  A    between atoms: N4_28  and  C17_30 
REMARK   12  A    between atoms: C17_30  and  C18_31 
REMARK   13  A    between atoms: C19_36  and  N7_37 
REMARK   14  A    between atoms: C20_42  and  N9_43 
REMARK   15  A    between atoms: N9_43  and  N10_45 
ROOT
HETATM    1  C13 UNL     1      20.019  42.444  96.589  1.00  0.00     0.046 A 
HETATM    2  C14 UNL     1      19.857  41.025  96.551  1.00  0.00     0.118 A 
HETATM    3  N6  UNL     1      20.458  40.351  95.586  1.00  0.00    -0.183 N 
ATOM      4  H6  UNL     1      20.341  39.338  95.560  1.00  0.00     0.185 HD
HETATM    5  C19 UNL     1      21.213  40.930  94.637  1.00  0.00     0.678 A 
HETATM    6  N8  UNL     1      21.373  42.257  94.659  1.00  0.00    -0.175 N 
ATOM      7  H8  UNL     1      21.945  42.704  93.943  1.00  0.00     0.186 HD
HETATM    8  C20 UNL     1      20.783  43.031  95.627  1.00  0.00     0.150 A 
ENDROOT
BRANCH   1   9
HETATM    9  C12 UNL     1      19.345  43.170  97.623  1.00  0.00     0.020 C 
BRANCH   9  10
HETATM   10  C11 UNL     1      19.778  43.821  98.643  1.00  0.00     0.031 C 
BRANCH  10  11
HETATM   11  C10 UNL     1      19.122  43.746  99.966  1.00  0.00     0.051 A 
HETATM   12  C9  UNL     1      19.158  42.557 100.692  1.00  0.00     0.061 A 
HETATM   13  C2  UNL     1      18.576  42.410 101.927  1.00  0.00     0.061 A 
HETATM   14  N2  UNL     1      17.948  43.500 102.423  1.00  0.00    -0.191 N 
HETATM   15  C1  UNL     1      17.891  44.648 101.767  1.00  0.00     0.676 A 
ATOM     16  H2  UNL     1      17.500  43.435 103.337  1.00  0.00     0.184 HD
HETATM   17  N14 UNL     1      18.478  44.750 100.551  1.00  0.00    -0.192 N 
ATOM     18  H14 UNL     1      18.423  45.643 100.060  1.00  0.00     0.184 HD
BRANCH  13  19
HETATM   19  C3  UNL     1      18.606  41.174 102.692  1.00  0.00    -0.009 A 
HETATM   20  C4  UNL     1      17.404  40.623 103.112  1.00  0.00     0.015 A 
HETATM   21  C5  UNL     1      17.339  39.456 103.837  1.00  0.00     0.026 A 
HETATM   22  C6  UNL     1      18.501  38.784 104.175  1.00  0.00     0.079 A 
HETATM   23  C7  UNL     1      19.698  39.310 103.773  1.00  0.00     0.026 A 
HETATM   24  C8  UNL     1      19.741  40.491 103.041  1.00  0.00     0.015 A 
BRANCH  22  25
HETATM   25  S1  UNL     1      18.482  37.298 105.091  1.00  0.00     0.256 S 
HETATM   26  O1  UNL     1      17.238  37.283 105.943  1.00  0.00    -0.201 OA
HETATM   27  O2  UNL     1      19.649  37.220 106.036  1.00  0.00    -0.201 OA
BRANCH  25  28
HETATM   28  N3  UNL     1      18.414  35.957 104.028  1.00  0.00    -0.324 N 
ATOM     29  H32 UNL     1      17.622  35.745 103.421  1.00  0.00     0.169 HD
ATOM     30  H31 UNL     1      19.275  35.414 104.096  1.00  0.00     0.169 HD
ENDBRANCH  25  28
ENDBRANCH  22  25
ENDBRANCH  13  19
BRANCH  15  31
HETATM   31  N1  UNL     1      17.282  45.684 102.262  1.00  0.00    -0.234 N 
ATOM     32  H12 UNL     1      16.556  46.141 101.712  1.00  0.00     0.174 HD
ATOM     33  H11 UNL     1      17.514  46.046 103.188  1.00  0.00     0.174 HD
ENDBRANCH  15  31
ENDBRANCH  10  11
ENDBRANCH   9  10
ENDBRANCH   1   9
BRANCH   2  34
HETATM   34  C15 UNL     1      19.062  40.433  97.563  1.00  0.00    -0.024 C 
BRANCH  34  35
HETATM   35  C16 UNL     1      18.375  39.917  98.439  1.00  0.00     0.013 C 
BRANCH  35  36
HETATM   36  N4  UNL     1      17.611  39.312  99.449  1.00  0.00    -0.342 N 
ATOM     37  H4  UNL     1      17.270  39.855 100.242  1.00  0.00     0.170 HD
BRANCH  36  38
HETATM   38  C17 UNL     1      17.320  37.904  99.335  1.00  0.00     0.228 C 
BRANCH  38  39
HETATM   39  C18 UNL     1      18.503  37.153  99.838  1.00  0.00     0.249 C 
HETATM   40  N5  UNL     1      19.422  36.492  98.981  1.00  0.00    -0.061 NA
HETATM   41  O3  UNL     1      18.668  37.123 101.087  1.00  0.00    -0.275 OA
ENDBRANCH  38  39
ENDBRANCH  36  38
ENDBRANCH  35  36
ENDBRANCH  34  35
ENDBRANCH   2  34
BRANCH   8  42
HETATM   42  N9  UNL     1      20.993  44.425  95.514  1.00  0.00    -0.264 N 
ATOM     43  H9  UNL     1      20.247  45.041  95.191  1.00  0.00     0.190 HD
BRANCH  42  44
HETATM   44  N10 UNL     1      22.271  44.946  95.861  1.00  0.00    -0.175 N 
HETATM   45  C21 UNL     1      23.015  44.539  96.902  1.00  0.00     0.238 A 
HETATM   46  N11 UNL     1      24.169  45.233  96.947  1.00  0.00    -0.279 N 
HETATM   47  N12 UNL     1      24.110  46.068  95.913  1.00  0.00    -0.006 NA
ATOM     48  H11 UNL     1      24.923  45.139  97.626  1.00  0.00     0.184 HD
HETATM   49  N13 UNL     1      22.958  45.895  95.250  1.00  0.00     0.015 NA
ENDBRANCH  42  44
ENDBRANCH   8  42
BRANCH   5  50
HETATM   50  N7  UNL     1      21.768  40.208  93.729  1.00  0.00    -0.234 N 
ATOM     51  H72 UNL     1      22.216  39.321  93.959  1.00  0.00     0.174 HD
ATOM     52  H71 UNL     1      21.763  40.520  92.757  1.00  0.00     0.174 HD
ENDBRANCH   5  50
TORSDOF 15
ENDMDL
MODEL 2
REMARK VINA RESULT: -9.527900442      4.766      9.721
REMARK  15 active torsions:
REMARK  status: ('A' for Active; 'I' for Inactive)
REMARK    1  A    between atoms: N1_1  and  C1_4 
REMARK    2  A    between atoms: C2_7  and  C3_8 
REMARK    3  A    between atoms: C6_11  and  S1_12 
REMARK    4  A    between atoms: S1_12  and  N3_13 
REMARK    5  A    between atoms: C10_21  and  C11_22 
REMARK    6  A    between atoms: C11_22  and  C12_23 
REMARK    7  A    between atoms: C12_23  and  C13_24 
REMARK    8  A    between atoms: C14_25  and  C15_26 
REMARK    9  A    between atoms: C15_26  and  C16_27 
REMARK   10  A    between atoms: C16_27  and  N4_28 
REMARK   11  A    between atoms: N4_28  and  C17_30 
REMARK   12  A    between atoms: C17_30  and  C18_31 
REMARK   13  A    between atoms: C19_36  and  N7_37 
REMARK   14  A    between atoms: C20_42  and  N9_43 
REMARK   15  A    between atoms: N9_43  and  N10_45 
ROOT
HETATM    1  C13 UNL     1      18.539  42.811 100.153  1.00  0.00     0.046 A 
HETATM    2  C14 UNL     1      19.429  43.920 100.016  1.00  0.00     0.118 A 
HETATM    3  N6  UNL     1      19.549  44.757 101.031  1.00  0.00    -0.183 N 
ATOM      4  H6  UNL     1      20.185  45.548 100.932  1.00  0.00     0.185 HD
HETATM    5  C19 UNL     1      18.877  44.620 102.188  1.00  0.00     0.678 A 
HETATM    6  N8  UNL     1      18.040  43.588 102.330  1.00  0.00    -0.175 N 
ATOM      7  H8  UNL     1      17.527  43.477 103.204  1.00  0.00     0.186 HD
HETATM    8  C20 UNL     1      17.857  42.673 101.323  1.00  0.00     0.150 A 
ENDROOT
BRANCH   1   9
HETATM    9  C12 UNL     1      18.395  41.922  99.039  1.00  0.00     0.020 C 
BRANCH   9  10
HETATM   10  C11 UNL     1      18.458  40.643  98.942  1.00  0.00     0.031 C 
BRANCH  10  11
HETATM   11  C10 UNL     1      18.684  39.956  97.653  1.00  0.00     0.051 A 
HETATM   12  C9  UNL     1      19.705  40.387  96.808  1.00  0.00     0.061 A 
HETATM   13  C2  UNL     1      19.979  39.799  95.597  1.00  0.00     0.061 A 
HETATM   14  N2  UNL     1      19.193  38.755  95.250  1.00  0.00    -0.191 N 
HETATM   15  C1  UNL     1      18.214  38.314  96.023  1.00  0.00     0.676 A 
ATOM     16  H2  UNL     1      19.361  38.291  94.358  1.00  0.00     0.184 HD
HETATM   17  N14 UNL     1      17.977  38.922  97.209  1.00  0.00    -0.192 N 
ATOM     18  H14 UNL     1      17.218  38.569  97.792  1.00  0.00     0.184 HD
BRANCH  13  19
HETATM   19  C3  UNL     1      21.041  40.242  94.706  1.00  0.00    -0.009 A 
HETATM   20  C4  UNL     1      20.990  39.862  93.373  1.00  0.00     0.015 A 
HETATM   21  C5  UNL     1      21.949  40.238  92.461  1.00  0.00     0.026 A 
HETATM   22  C6  UNL     1      23.016  41.024  92.861  1.00  0.00     0.079 A 
HETATM   23  C7  UNL     1      23.086  41.409  94.171  1.00  0.00     0.026 A 
HETATM   24  C8  UNL     1      22.107  41.018  95.077  1.00  0.00     0.015 A 
BRANCH  22  25
HETATM   25  S1  UNL     1      24.262  41.535  91.749  1.00  0.00     0.256 S 
HETATM   26  O1  UNL     1      25.303  40.447  91.673  1.00  0.00    -0.201 OA
HETATM   27  O2  UNL     1      24.966  42.768  92.242  1.00  0.00    -0.201 OA
BRANCH  25  28
HETATM   28  N3  UNL     1      23.598  41.746  90.184  1.00  0.00    -0.324 N 
ATOM     29  H32 UNL     1      22.598  41.783  89.986  1.00  0.00     0.169 HD
ATOM     30  H31 UNL     1      24.346  41.827  89.496  1.00  0.00     0.169 HD
ENDBRANCH  25  28
ENDBRANCH  22  25
ENDBRANCH  13  19
BRANCH  15  31
HETATM   31  N1  UNL     1      17.471  37.308  95.671  1.00  0.00    -0.234 N 
ATOM     32  H12 UNL     1      17.904  36.515  95.199  1.00  0.00     0.174 HD
ATOM     33  H11 UNL     1      16.468  37.295  95.857  1.00  0.00     0.174 HD
ENDBRANCH  15  31
ENDBRANCH  10  11
ENDBRANCH   9  10
ENDBRANCH   1   9
BRANCH   2  34
HETATM   34  C15 UNL     1      20.132  44.043  98.792  1.00  0.00    -0.024 C 
BRANCH  34  35
HETATM   35  C16 UNL     1      20.737  44.148  97.731  1.00  0.00     0.013 C 
BRANCH  35  36
HETATM   36  N4  UNL     1      21.409  44.281  96.505  1.00  0.00    -0.342 N 
ATOM     37  H4  UNL     1      20.898  44.254  95.623  1.00  0.00     0.170 HD
BRANCH  36  38
HETATM   38  C17 UNL     1      22.841  44.458  96.527  1.00  0.00     0.228 C 
BRANCH  38  39
HETATM   39  C18 UNL     1      23.129  45.879  96.188  1.00  0.00     0.249 C 
HETATM   40  N5  UNL     1      23.944  46.263  95.091  1.00  0.00    -0.061 NA
HETATM   41  O3  UNL     1      22.608  46.756  96.928  1.00  0.00    -0.275 OA
ENDBRANCH  38  39
ENDBRANCH  36  38
ENDBRANCH  35  36
ENDBRANCH  34  35
ENDBRANCH   2  34
BRANCH   8  42
HETATM   42  N9  UNL     1      16.912  41.654 101.582  1.00  0.00    -0.264 N 
ATOM     43  H9  UNL     1      16.092  41.538 100.986  1.00  0.00     0.190 HD
BRANCH  42  44
HETATM   44  N10 UNL     1      17.133  40.794 102.694  1.00  0.00    -0.175 N 
HETATM   45  C21 UNL     1      16.192  40.044 103.290  1.00  0.00     0.238 A 
HETATM   46  N11 UNL     1      16.732  39.347 104.309  1.00  0.00    -0.279 N 
HETATM   47  N12 UNL     1      18.018  39.688 104.318  1.00  0.00    -0.006 NA
ATOM     48  H11 UNL     1      16.257  38.697 104.936  1.00  0.00     0.184 HD
HETATM   49  N13 UNL     1      18.264  40.567 103.338  1.00  0.00     0.015 NA
ENDBRANCH  42  44
ENDBRANCH   8  42
BRANCH   5  50
HETATM   50  N7  UNL     1      19.047  45.475 103.133  1.00  0.00    -0.234 N 
ATOM     51  H72 UNL     1      19.978  45.701 103.481  1.00  0.00     0.174 HD
ATOM     52  H71 UNL     1      18.240  45.942 103.548  1.00  0.00     0.174 HD
ENDBRANCH   5  50
TORSDOF 15
ENDMDL
MODEL 3
REMARK VINA RESULT: -9.522685304      4.832      9.654
REMARK  15 active torsions:
REMARK  status: ('A' for Active; 'I' for Inactive)
REMARK    1  A    between atoms: N1_1  and  C1_4 
REMARK    2  A    between atoms: C2_7  and  C3_8 
REMARK    3  A    between atoms: C6_11  and  S1_12 
REMARK    4  A    between atoms: S1_12  and  N3_13 
REMARK    5  A    between atoms: C10_21  and  C11_22 
REMARK    6  A    between atoms: C11_22  and  C12_23 
REMARK    7  A    between atoms: C12_23  and  C13_24 
REMARK    8  A    between atoms: C14_25  and  C15_26 
REMARK    9  A    between atoms: C15_26  and  C16_27 
REMARK   10  A    between atoms: C16_27  and  N4_28 
REMARK   11  A    between atoms: N4_28  and  C17_30 
REMARK   12  A    between atoms: C17_30  and  C18_31 
REMARK   13  A    between atoms: C19_36  and  N7_37 
REMARK   14  A    between atoms: C20_42  and  N9_43 
REMARK   15  A    between atoms: N9_43  and  N10_45 
ROOT
HETATM    1  C13 UNL     1      18.541  42.883 100.229  1.00  0.00     0.046 A 
HETATM    2  C14 UNL     1      19.441  43.982 100.087  1.00  0.00     0.118 A 
HETATM    3  N6  UNL     1      19.559  44.831 101.093  1.00  0.00    -0.183 N 
ATOM      4  H6  UNL     1      20.202  45.615 100.990  1.00  0.00     0.185 HD
HETATM    5  C19 UNL     1      18.875  44.714 102.245  1.00  0.00     0.678 A 
HETATM    6  N8  UNL     1      18.028  43.690 102.392  1.00  0.00    -0.175 N 
ATOM      7  H8  UNL     1      17.506  43.594 103.263  1.00  0.00     0.186 HD
HETATM    8  C20 UNL     1      17.847  42.765 101.394  1.00  0.00     0.150 A 
ENDROOT
BRANCH   1   9
HETATM    9  C12 UNL     1      18.400  41.982  99.125  1.00  0.00     0.020 C 
BRANCH   9  10
HETATM   10  C11 UNL     1      18.377  40.699  99.055  1.00  0.00     0.031 C 
BRANCH  10  11
HETATM   11  C10 UNL     1      18.613  39.970  97.791  1.00  0.00     0.051 A 
HETATM   12  C9  UNL     1      19.616  40.396  96.922  1.00  0.00     0.061 A 
HETATM   13  C2  UNL     1      19.898  39.770  95.732  1.00  0.00     0.061 A 
HETATM   14  N2  UNL     1      19.137  38.693  95.431  1.00  0.00    -0.191 N 
HETATM   15  C1  UNL     1      18.176  38.255  96.228  1.00  0.00     0.676 A 
ATOM     16  H2  UNL     1      19.312  38.199  94.556  1.00  0.00     0.184 HD
HETATM   17  N14 UNL     1      17.931  38.901  97.393  1.00  0.00    -0.192 N 
ATOM     18  H14 UNL     1      17.186  38.550  97.994  1.00  0.00     0.184 HD
BRANCH  13  19
HETATM   19  C3  UNL     1      20.940  40.207  94.817  1.00  0.00    -0.009 A 
HETATM   20  C4  UNL     1      21.957  41.014  95.304  1.00  0.00     0.015 A 
HETATM   21  C5  UNL     1      22.984  41.470  94.510  1.00  0.00     0.026 A 
HETATM   22  C6  UNL     1      23.028  41.126  93.169  1.00  0.00     0.079 A 
HETATM   23  C7  UNL     1      22.035  40.331  92.667  1.00  0.00     0.026 A 
HETATM   24  C8  UNL     1      21.007  39.882  93.488  1.00  0.00     0.015 A 
BRANCH  22  25
HETATM   25  S1  UNL     1      24.307  41.672  92.113  1.00  0.00     0.256 S 
HETATM   26  O1  UNL     1      23.731  41.865  90.733  1.00  0.00    -0.201 OA
HETATM   27  O2  UNL     1      25.390  40.637  91.983  1.00  0.00    -0.201 OA
BRANCH  25  28
HETATM   28  N3  UNL     1      24.909  43.181  92.654  1.00  0.00    -0.324 N 
ATOM     29  H32 UNL     1      24.744  43.563  93.586  1.00  0.00     0.169 HD
ATOM     30  H31 UNL     1      25.448  43.627  91.913  1.00  0.00     0.169 HD
ENDBRANCH  25  28
ENDBRANCH  22  25
ENDBRANCH  13  19
BRANCH  15  31
HETATM   31  N1  UNL     1      17.459  37.217  95.920  1.00  0.00    -0.234 N 
ATOM     32  H12 UNL     1      17.121  37.115  94.963  1.00  0.00     0.174 HD
ATOM     33  H11 UNL     1      17.227  36.504  96.612  1.00  0.00     0.174 HD
ENDBRANCH  15  31
ENDBRANCH  10  11
ENDBRANCH   9  10
ENDBRANCH   1   9
BRANCH   2  34
HETATM   34  C15 UNL     1      20.156  44.085  98.869  1.00  0.00    -0.024 C 
BRANCH  34  35
HETATM   35  C16 UNL     1      20.780  44.174  97.816  1.00  0.00     0.013 C 
BRANCH  35  36
HETATM   36  N4  UNL     1      21.515  44.283  96.625  1.00  0.00    -0.342 N 
ATOM     37  H4  UNL     1      21.046  44.286  95.719  1.00  0.00     0.170 HD
BRANCH  36  38
HETATM   38  C17 UNL     1      22.951  44.389  96.716  1.00  0.00     0.228 C 
BRANCH  38  39
HETATM   39  C18 UNL     1      23.365  45.603  95.960  1.00  0.00     0.249 C 
HETATM   40  N5  UNL     1      24.275  45.562  94.870  1.00  0.00    -0.061 NA
HETATM   41  O3  UNL     1      22.867  46.700  96.329  1.00  0.00    -0.275 OA
ENDBRANCH  38  39
ENDBRANCH  36  38
ENDBRANCH  35  36
ENDBRANCH  34  35
ENDBRANCH   2  34
BRANCH   8  42
HETATM   42  N9  UNL     1      16.891  41.756 101.657  1.00  0.00    -0.264 N 
ATOM     43  H9  UNL     1      16.048  41.675 101.089  1.00  0.00     0.190 HD
BRANCH  42  44
HETATM   44  N10 UNL     1      17.135  40.858 102.734  1.00  0.00    -0.175 N 
HETATM   45  C21 UNL     1      16.202  40.103 103.336  1.00  0.00     0.238 A 
HETATM   46  N11 UNL     1      16.764  39.365 104.313  1.00  0.00    -0.279 N 
HETATM   47  N12 UNL     1      18.055  39.686 104.291  1.00  0.00    -0.006 NA
ATOM     48  H11 UNL     1      16.301  38.702 104.935  1.00  0.00     0.184 HD
HETATM   49  N13 UNL     1      18.283  40.593 103.331  1.00  0.00     0.015 NA
ENDBRANCH  42  44
ENDBRANCH   8  42
BRANCH   5  50
HETATM   50  N7  UNL     1      19.043  45.579 103.181  1.00  0.00    -0.234 N 
ATOM     51  H72 UNL     1      18.918  46.576 103.008  1.00  0.00     0.174 HD
ATOM     52  H71 UNL     1      19.306  45.270 104.118  1.00  0.00     0.174 HD
ENDBRANCH   5  50
TORSDOF 15
ENDMDL
MODEL 4
REMARK VINA RESULT: -9.522083960      4.810      9.571
REMARK  15 active torsions:
REMARK  status: ('A' for Active; 'I' for Inactive)
REMARK    1  A    between atoms: N1_1  and  C1_4 
REMARK    2  A    between atoms: C2_7  and  C3_8 
REMARK    3  A    between atoms: C6_11  and  S1_12 
REMARK    4  A    between atoms: S1_12  and  N3_13 
REMARK    5  A    between atoms: C10_21  and  C11_22 
REMARK    6  A    between atoms: C11_22  and  C12_23 
REMARK    7  A    between atoms: C12_23  and  C13_24 
REMARK    8  A    between atoms: C14_25  and  C15_26 
REMARK    9  A    between atoms: C15_26  and  C16_27 
REMARK   10  A    between atoms: C16_27  and  N4_28 
REMARK   11  A    between atoms: N4_28  and  C17_30 
REMARK   12  A    between atoms: C17_30  and  C18_31 
REMARK   13  A    between atoms: C19_36  and  N7_37 
REMARK   14  A    between atoms: C20_42  and  N9_43 
REMARK   15  A    between atoms: N9_43  and  N10_45 
ROOT
HETATM    1  C13 UNL     1      18.283  42.676 100.765  1.00  0.00     0.046 A 
HETATM    2  C14 UNL     1      18.779  43.970 100.420  1.00  0.00     0.118 A 
HETATM    3  N6  UNL     1      18.427  44.998 101.173  1.00  0.00    -0.183 N 
ATOM      4  H6  UNL     1      18.782  45.922 100.925  1.00  0.00     0.185 HD
HETATM    5  C19 UNL     1      17.626  44.890 102.247  1.00  0.00     0.678 A 
HETATM    6  N8  UNL     1      17.153  43.685 102.581  1.00  0.00    -0.175 N 
ATOM      7  H8  UNL     1      16.545  43.594 103.395  1.00  0.00     0.186 HD
HETATM    8  C20 UNL     1      17.470  42.566 101.851  1.00  0.00     0.150 A 
ENDROOT
BRANCH   1   9
HETATM    9  C12 UNL     1      18.648  41.571  99.930  1.00  0.00     0.020 C 
BRANCH   9  10
HETATM   10  C11 UNL     1      17.980  40.567  99.487  1.00  0.00     0.031 C 
BRANCH  10  11
HETATM   11  C10 UNL     1      18.370  39.834  98.263  1.00  0.00     0.051 A 
HETATM   12  C9  UNL     1      19.377  40.340  97.444  1.00  0.00     0.061 A 
HETATM   13  C2  UNL     1      19.797  39.717  96.294  1.00  0.00     0.061 A 
HETATM   14  N2  UNL     1      19.172  38.559  95.982  1.00  0.00    -0.191 N 
HETATM   15  C1  UNL     1      18.212  38.043  96.733  1.00  0.00     0.676 A 
ATOM     16  H2  UNL     1      19.452  38.064  95.136  1.00  0.00     0.184 HD
HETATM   17  N14 UNL     1      17.828  38.690  97.859  1.00  0.00    -0.192 N 
ATOM     18  H14 UNL     1      17.086  38.279  98.426  1.00  0.00     0.184 HD
BRANCH  13  19
HETATM   19  C3  UNL     1      20.845  40.237  95.430  1.00  0.00    -0.009 A 
HETATM   20  C4  UNL     1      21.797  41.085  95.976  1.00  0.00     0.015 A 
HETATM   21  C5  UNL     1      22.824  41.619  95.233  1.00  0.00     0.026 A 
HETATM   22  C6  UNL     1      22.936  41.317  93.887  1.00  0.00     0.079 A 
HETATM   23  C7  UNL     1      22.007  40.483  93.327  1.00  0.00     0.026 A 
HETATM   24  C8  UNL     1      20.977  39.954  94.096  1.00  0.00     0.015 A 
BRANCH  22  25
HETATM   25  S1  UNL     1      24.219  41.962  92.893  1.00  0.00     0.256 S 
HETATM   26  O1  UNL     1      23.775  41.908  91.454  1.00  0.00    -0.201 OA
HETATM   27  O2  UNL     1      25.463  41.123  92.991  1.00  0.00    -0.201 OA
BRANCH  25  28
HETATM   28  N3  UNL     1      24.505  43.601  93.300  1.00  0.00    -0.324 N 
ATOM     29  H32 UNL     1      24.056  44.393  92.840  1.00  0.00     0.169 HD
ATOM     30  H31 UNL     1      25.182  43.658  94.060  1.00  0.00     0.169 HD
ENDBRANCH  25  28
ENDBRANCH  22  25
ENDBRANCH  13  19
BRANCH  15  31
HETATM   31  N1  UNL     1      17.626  36.929  96.416  1.00  0.00    -0.234 N 
ATOM     32  H12 UNL     1      17.640  36.622  95.443  1.00  0.00     0.174 HD
ATOM     33  H11 UNL     1      17.156  36.355  97.116  1.00  0.00     0.174 HD
ENDBRANCH  15  31
ENDBRANCH  10  11
ENDBRANCH   9  10
ENDBRANCH   1   9
BRANCH   2  34
HETATM   34  C15 UNL     1      19.626  44.062  99.289  1.00  0.00    -0.024 C 
BRANCH  34  35
HETATM   35  C16 UNL     1      20.363  44.140  98.311  1.00  0.00     0.013 C 
BRANCH  35  36
HETATM   36  N4  UNL     1      21.223  44.245  97.207  1.00  0.00    -0.342 N 
ATOM     37  H4  UNL     1      20.953  43.875  96.296  1.00  0.00     0.170 HD
BRANCH  36  38
HETATM   38  C17 UNL     1      22.500  44.892  97.394  1.00  0.00     0.228 C 
BRANCH  38  39
HETATM   39  C18 UNL     1      23.002  45.304  96.055  1.00  0.00     0.249 C 
HETATM   40  N5  UNL     1      24.279  45.892  95.854  1.00  0.00    -0.061 NA
HETATM   41  O3  UNL     1      22.234  45.107  95.075  1.00  0.00    -0.275 OA
ENDBRANCH  38  39
ENDBRANCH  36  38
ENDBRANCH  35  36
ENDBRANCH  34  35
ENDBRANCH   2  34
BRANCH   8  42
HETATM   42  N9  UNL     1      16.870  41.360 102.282  1.00  0.00    -0.264 N 
ATOM     43  H9  UNL     1      17.435  40.608 102.676  1.00  0.00     0.190 HD
BRANCH  42  44
HETATM   44  N10 UNL     1      15.460  41.223 102.153  1.00  0.00    -0.175 N 
HETATM   45  C21 UNL     1      14.809  40.061 101.982  1.00  0.00     0.238 A 
HETATM   46  N11 UNL     1      13.483  40.280 101.898  1.00  0.00    -0.279 N 
HETATM   47  N12 UNL     1      13.341  41.597 102.022  1.00  0.00    -0.006 NA
ATOM     48  H11 UNL     1      12.746  39.587 101.768  1.00  0.00     0.184 HD
HETATM   49  N13 UNL     1      14.542  42.173 102.177  1.00  0.00     0.015 NA
ENDBRANCH  42  44
ENDBRANCH   8  42
BRANCH   5  50
HETATM   50  N7  UNL     1      17.327  45.936 102.932  1.00  0.00    -0.234 N 
ATOM     51  H72 UNL     1      16.543  46.533 102.671  1.00  0.00     0.174 HD
ATOM     52  H71 UNL     1      17.880  46.180 103.755  1.00  0.00     0.174 HD
ENDBRANCH   5  50
TORSDOF 15
ENDMDL
MODEL 5
REMARK VINA RESULT: -9.519069224      4.001      8.197
REMARK  15 active torsions:
REMARK  status: ('A' for Active; 'I' for Inactive)
REMARK    1  A    between atoms: N1_1  and  C1_4 
REMARK    2  A    between atoms: C2_7  and  C3_8 
REMARK    3  A    between atoms: C6_11  and  S1_12 
REMARK    4  A    between atoms: S1_12  and  N3_13 
REMARK    5  A    between atoms: C10_21  and  C11_22 
REMARK    6  A    between atoms: C11_22  and  C12_23 
REMARK    7  A    between atoms: C12_23  and  C13_24 
REMARK    8  A    between atoms: C14_25  and  C15_26 
REMARK    9  A    between atoms: C15_26  and  C16_27 
REMARK   10  A    between atoms: C16_27  and  N4_28 
REMARK   11  A    between atoms: N4_28  and  C17_30 
REMARK   12  A    between atoms: C17_30  and  C18_31 
REMARK   13  A    between atoms: C19_36  and  N7_37 
REMARK   14  A    between atoms: C20_42  and  N9_43 
REMARK   15  A    between atoms: N9_43  and  N10_45 
ROOT
HETATM    1  C13 UNL     1      18.954  42.043 100.669  1.00  0.00     0.046 A 
HETATM    2  C14 UNL     1      19.267  42.057 102.062  1.00  0.00     0.118 A 
HETATM    3  N6  UNL     1      19.263  43.218 102.695  1.00  0.00    -0.183 N 
ATOM      4  H6  UNL     1      19.486  43.227 103.690  1.00  0.00     0.185 HD
HETATM    5  C19 UNL     1      18.979  44.388 102.094  1.00  0.00     0.678 A 
HETATM    6  N8  UNL     1      18.686  44.389 100.790  1.00  0.00    -0.175 N 
ATOM      7  H8  UNL     1      18.470  45.272 100.328  1.00  0.00     0.186 HD
HETATM    8  C20 UNL     1      18.669  43.227 100.060  1.00  0.00     0.150 A 
ENDROOT
BRANCH   1   9
HETATM    9  C12 UNL     1      18.986  40.785  99.985  1.00  0.00     0.020 C 
BRANCH   9  10
HETATM   10  C11 UNL     1      18.115  40.171  99.267  1.00  0.00     0.031 C 
BRANCH  10  11
HETATM   11  C10 UNL     1      18.437  39.611  97.938  1.00  0.00     0.051 A 
HETATM   12  C9  UNL     1      19.490  40.145  97.197  1.00  0.00     0.061 A 
HETATM   13  C2  UNL     1      19.852  39.677  95.958  1.00  0.00     0.061 A 
HETATM   14  N2  UNL     1      19.122  38.647  95.473  1.00  0.00    -0.191 N 
HETATM   15  C1  UNL     1      18.116  38.110  96.144  1.00  0.00     0.676 A 
ATOM     16  H2  UNL     1      19.356  38.270  94.555  1.00  0.00     0.184 HD
HETATM   17  N14 UNL     1      17.791  38.601  97.363  1.00  0.00    -0.192 N 
ATOM     18  H14 UNL     1      17.012  38.175  97.866  1.00  0.00     0.184 HD
BRANCH  13  19
HETATM   19  C3  UNL     1      20.947  40.228  95.175  1.00  0.00    -0.009 A 
HETATM   20  C4  UNL     1      21.866  41.052  95.806  1.00  0.00     0.015 A 
HETATM   21  C5  UNL     1      22.933  41.614  95.143  1.00  0.00     0.026 A 
HETATM   22  C6  UNL     1      23.120  41.363  93.794  1.00  0.00     0.079 A 
HETATM   23  C7  UNL     1      22.225  40.554  93.151  1.00  0.00     0.026 A 
HETATM   24  C8  UNL     1      21.154  39.997  93.840  1.00  0.00     0.015 A 
BRANCH  22  25
HETATM   25  S1  UNL     1      24.457  42.045  92.900  1.00  0.00     0.256 S 
HETATM   26  O1  UNL     1      24.284  43.542  92.860  1.00  0.00    -0.201 OA
HETATM   27  O2  UNL     1      24.458  41.575  91.472  1.00  0.00    -0.201 OA
BRANCH  25  28
HETATM   28  N3  UNL     1      25.931  41.701  93.700  1.00  0.00    -0.324 N 
ATOM     29  H32 UNL     1      26.014  41.089  94.512  1.00  0.00     0.169 HD
ATOM     30  H31 UNL     1      26.698  42.195  93.245  1.00  0.00     0.169 HD
ENDBRANCH  25  28
ENDBRANCH  22  25
ENDBRANCH  13  19
BRANCH  15  31
HETATM   31  N1  UNL     1      17.429  37.120  95.660  1.00  0.00    -0.234 N 
ATOM     32  H12 UNL     1      16.721  37.309  94.950  1.00  0.00     0.174 HD
ATOM     33  H11 UNL     1      17.582  36.161  95.972  1.00  0.00     0.174 HD
ENDBRANCH  15  31
ENDBRANCH  10  11
ENDBRANCH   9  10
ENDBRANCH   1   9
BRANCH   2  34
HETATM   34  C15 UNL     1      19.556  40.815 102.677  1.00  0.00    -0.024 C 
BRANCH  34  35
HETATM   35  C16 UNL     1      19.810  39.741 103.213  1.00  0.00     0.013 C 
BRANCH  35  36
HETATM   36  N4  UNL     1      20.101  38.524 103.850  1.00  0.00    -0.342 N 
ATOM     37  H4  UNL     1      20.407  37.713 103.313  1.00  0.00     0.170 HD
BRANCH  36  38
HETATM   38  C17 UNL     1      19.956  38.452 105.284  1.00  0.00     0.228 C 
BRANCH  38  39
HETATM   39  C18 UNL     1      18.521  38.195 105.583  1.00  0.00     0.249 C 
HETATM   40  N5  UNL     1      17.729  37.275 104.846  1.00  0.00    -0.061 NA
HETATM   41  O3  UNL     1      18.017  38.838 106.542  1.00  0.00    -0.275 OA
ENDBRANCH  38  39
ENDBRANCH  36  38
ENDBRANCH  35  36
ENDBRANCH  34  35
ENDBRANCH   2  34
BRANCH   8  42
HETATM   42  N9  UNL     1      18.388  43.370  98.682  1.00  0.00    -0.264 N 
ATOM     43  H9  UNL     1      17.458  43.167  98.315  1.00  0.00     0.190 HD
BRANCH  42  44
HETATM   44  N10 UNL     1      19.434  43.803  97.819  1.00  0.00    -0.175 N 
HETATM   45  C21 UNL     1      19.392  43.772  96.478  1.00  0.00     0.238 A 
HETATM   46  N11 UNL     1      20.541  44.254  95.967  1.00  0.00    -0.279 N 
HETATM   47  N12 UNL     1      21.281  44.578  97.025  1.00  0.00    -0.006 NA
ATOM     48  H11 UNL     1      20.791  44.351  94.983  1.00  0.00     0.184 HD
HETATM   49  N13 UNL     1      20.610  44.305  98.152  1.00  0.00     0.015 NA
ENDBRANCH  42  44
ENDBRANCH   8  42
BRANCH   5  50
HETATM   50  N7  UNL     1      18.994  45.478 102.775  1.00  0.00    -0.234 N 
ATOM     51  H72 UNL     1      18.373  45.611 103.573  1.00  0.00     0.174 HD
ATOM     52  H71 UNL     1      19.636  46.229 102.520  1.00  0.00     0.174 HD
ENDBRANCH   5  50
TORSDOF 15
ENDMDL
