MODEL 1
REMARK VINA RESULT: -5.458755114      0.000      0.000
REMARK  3 active torsions:
REMARK  status: ('A' for Active; 'I' for Inactive)
REMARK    1  A    between atoms: N1_2  and  C3_4 
REMARK    2  A    between atoms: N1_2  and  C6_8 
REMARK    3  A    between atoms: C3_4  and  C4_5 
ROOT
HETATM    1  C6  UNL     1      28.285   7.628  48.634  1.00  0.00     0.217 C 
HETATM    2  C7  UNL     1      27.701   7.709  50.010  1.00  0.00     0.062 C 
HETATM    3  C8  UNL     1      26.460   6.885  49.975  1.00  0.00     0.234 C 
HETATM    4  N3  UNL     1      26.320   6.293  48.692  1.00  0.00    -0.073 N 
ATOM      5  H31 UNL     1      25.463   6.581  48.221  1.00  0.00     0.277 HD
ATOM      6  H32 UNL     1      26.123   5.294  48.743  1.00  0.00     0.277 HD
HETATM    7  C9  UNL     1      27.506   6.586  47.917  1.00  0.00     0.265 C 
ENDROOT
BRANCH   1   8
HETATM    8  N1  UNL     1      28.357   8.899  47.956  1.00  0.00    -0.066 N 
HETATM    9  C1  UNL     1      27.365   9.763  48.576  1.00  0.00     0.272 C 
HETATM   10  C2  UNL     1      27.847   8.644  46.595  1.00  0.00     0.272 C 
BRANCH   8  11
HETATM   11  C3  UNL     1      29.656   9.466  47.887  1.00  0.00     0.265 C 
BRANCH  11  12
HETATM   12  C4  UNL     1      29.727  10.898  48.265  1.00  0.00     0.015 C 
HETATM   13  C5  UNL     1      30.769  11.439  48.854  1.00  0.00     0.097 C 
HETATM   14  N2  UNL     1      31.904  10.631  49.159  1.00  0.00    -0.115 NA
ENDBRANCH  11  12
ENDBRANCH   8  11
ENDBRANCH   1   8
TORSDOF 3
ENDMDL
MODEL 2
REMARK VINA RESULT: -4.544610048      1.012      2.061
REMARK  3 active torsions:
REMARK  status: ('A' for Active; 'I' for Inactive)
REMARK    1  A    between atoms: N1_2  and  C3_4 
REMARK    2  A    between atoms: N1_2  and  C6_8 
REMARK    3  A    between atoms: C3_4  and  C4_5 
ROOT
HETATM    1  C6  UNL     1      27.114   8.208  47.902  1.00  0.00     0.217 C 
HETATM    2  C7  UNL     1      27.680   8.179  46.516  1.00  0.00     0.062 C 
HETATM    3  C8  UNL     1      27.998   6.751  46.236  1.00  0.00     0.234 C 
HETATM    4  N3  UNL     1      27.604   5.951  47.341  1.00  0.00    -0.073 N 
ATOM      5  H31 UNL     1      28.387   5.453  47.762  1.00  0.00     0.277 HD
ATOM      6  H32 UNL     1      27.056   5.138  47.059  1.00  0.00     0.277 HD
HETATM    7  C9  UNL     1      26.904   6.790  48.290  1.00  0.00     0.265 C 
ENDROOT
BRANCH   1   8
HETATM    8  N1  UNL     1      27.898   8.978  48.836  1.00  0.00    -0.066 N 
HETATM    9  C1  UNL     1      27.893   8.246  50.093  1.00  0.00     0.272 C 
HETATM   10  C2  UNL     1      27.106  10.195  49.099  1.00  0.00     0.272 C 
BRANCH   8  11
HETATM   11  C3  UNL     1      29.193   9.333  48.378  1.00  0.00     0.265 C 
BRANCH  11  12
HETATM   12  C4  UNL     1      29.467  10.790  48.367  1.00  0.00     0.015 C 
HETATM   13  C5  UNL     1      30.615  11.312  48.734  1.00  0.00     0.097 C 
HETATM   14  N2  UNL     1      31.671  10.458  49.171  1.00  0.00    -0.115 NA
ENDBRANCH  11  12
ENDBRANCH   8  11
ENDBRANCH   1   8
TORSDOF 3
ENDMDL
MODEL 3
REMARK VINA RESULT: -4.383896931      0.861      4.521
REMARK  3 active torsions:
REMARK  status: ('A' for Active; 'I' for Inactive)
REMARK    1  A    between atoms: N1_2  and  C3_4 
REMARK    2  A    between atoms: N1_2  and  C6_8 
REMARK    3  A    between atoms: C3_4  and  C4_5 
ROOT
HETATM    1  C6  UNL     1      29.387   9.837  47.683  1.00  0.00     0.217 C 
HETATM    2  C7  UNL     1      29.629  11.125  48.407  1.00  0.00     0.062 C 
HETATM    3  C8  UNL     1      30.884  10.927  49.184  1.00  0.00     0.234 C 
HETATM    4  N3  UNL     1      31.410   9.636  48.916  1.00  0.00    -0.073 N 
ATOM      5  H31 UNL     1      31.470   9.056  49.753  1.00  0.00     0.277 HD
ATOM      6  H32 UNL     1      32.403   9.657  48.688  1.00  0.00     0.277 HD
HETATM    7  C9  UNL     1      30.615   9.023  47.873  1.00  0.00     0.265 C 
ENDROOT
BRANCH   1   8
HETATM    8  N1  UNL     1      28.162   9.177  48.062  1.00  0.00    -0.066 N 
HETATM    9  C1  UNL     1      27.389   8.995  46.843  1.00  0.00     0.272 C 
HETATM   10  C2  UNL     1      27.409  10.173  48.848  1.00  0.00     0.272 C 
BRANCH   8  11
HETATM   11  C3  UNL     1      28.333   7.990  48.821  1.00  0.00     0.265 C 
BRANCH  11  12
HETATM   12  C4  UNL     1      27.618   6.806  48.287  1.00  0.00     0.015 C 
HETATM   13  C5  UNL     1      26.533   6.310  48.835  1.00  0.00     0.097 C 
HETATM   14  N2  UNL     1      25.991   6.920  50.006  1.00  0.00    -0.115 NA
ENDBRANCH  11  12
ENDBRANCH   8  11
ENDBRANCH   1   8
TORSDOF 3
ENDMDL
MODEL 4
REMARK VINA RESULT: -3.860027249      1.359      4.445
REMARK  3 active torsions:
REMARK  status: ('A' for Active; 'I' for Inactive)
REMARK    1  A    between atoms: N1_2  and  C3_4 
REMARK    2  A    between atoms: N1_2  and  C6_8 
REMARK    3  A    between atoms: C3_4  and  C4_5 
ROOT
HETATM    1  C6  UNL     1      29.114   9.957  47.809  1.00  0.00     0.217 C 
HETATM    2  C7  UNL     1      29.594  11.230  48.434  1.00  0.00     0.062 C 
HETATM    3  C8  UNL     1      30.912  10.910  49.049  1.00  0.00     0.234 C 
HETATM    4  N3  UNL     1      31.248   9.558  48.775  1.00  0.00    -0.073 N 
ATOM      5  H31 UNL     1      31.356   9.002  49.623  1.00  0.00     0.277 HD
ATOM      6  H32 UNL     1      32.198   9.455  48.419  1.00  0.00     0.277 HD
HETATM    7  C9  UNL     1      30.256   9.010  47.875  1.00  0.00     0.265 C 
ENDROOT
BRANCH   1   8
HETATM    8  N1  UNL     1      27.884   9.458  48.374  1.00  0.00    -0.066 N 
HETATM    9  C1  UNL     1      27.088  10.619  48.741  1.00  0.00     0.272 C 
HETATM   10  C2  UNL     1      28.269   8.836  49.656  1.00  0.00     0.272 C 
BRANCH   8  11
HETATM   11  C3  UNL     1      27.195   8.516  47.567  1.00  0.00     0.265 C 
BRANCH  11  12
HETATM   12  C4  UNL     1      27.060   7.168  48.168  1.00  0.00     0.015 C 
HETATM   13  C5  UNL     1      27.380   6.061  47.538  1.00  0.00     0.097 C 
HETATM   14  N2  UNL     1      27.885   6.128  46.206  1.00  0.00    -0.115 NA
ENDBRANCH  11  12
ENDBRANCH   8  11
ENDBRANCH   1   8
TORSDOF 3
ENDMDL
MODEL 5
REMARK VINA RESULT: -3.856697808      1.154      1.766
REMARK  3 active torsions:
REMARK  status: ('A' for Active; 'I' for Inactive)
REMARK    1  A    between atoms: N1_2  and  C3_4 
REMARK    2  A    between atoms: N1_2  and  C6_8 
REMARK    3  A    between atoms: C3_4  and  C4_5 
ROOT
HETATM    1  C6  UNL     1      27.409   8.388  47.867  1.00  0.00     0.217 C 
HETATM    2  C7  UNL     1      27.336   6.897  47.752  1.00  0.00     0.062 C 
HETATM    3  C8  UNL     1      26.526   6.438  48.914  1.00  0.00     0.234 C 
HETATM    4  N3  UNL     1      26.083   7.563  49.658  1.00  0.00    -0.073 N 
ATOM      5  H31 UNL     1      26.426   7.557  50.618  1.00  0.00     0.277 HD
ATOM      6  H32 UNL     1      25.085   7.526  49.866  1.00  0.00     0.277 HD
HETATM    7  C9  UNL     1      26.457   8.764  48.943  1.00  0.00     0.265 C 
ENDROOT
BRANCH   1   8
HETATM    8  N1  UNL     1      28.748   8.894  48.042  1.00  0.00    -0.066 N 
HETATM    9  C1  UNL     1      29.335   8.999  46.716  1.00  0.00     0.272 C 
HETATM   10  C2  UNL     1      29.492   7.807  48.707  1.00  0.00     0.272 C 
BRANCH   8  11
HETATM   11  C3  UNL     1      28.840  10.083  48.811  1.00  0.00     0.265 C 
BRANCH  11  12
HETATM   12  C4  UNL     1      29.597  11.182  48.163  1.00  0.00     0.015 C 
HETATM   13  C5  UNL     1      30.771  11.595  48.582  1.00  0.00     0.097 C 
HETATM   14  N2  UNL     1      31.374  10.974  49.715  1.00  0.00    -0.115 NA
ENDBRANCH  11  12
ENDBRANCH   8  11
ENDBRANCH   1   8
TORSDOF 3
ENDMDL
