MODEL 1
REMARK VINA RESULT: -4.607549296      0.000      0.000
REMARK  3 active torsions:
REMARK  status: ('A' for Active; 'I' for Inactive)
REMARK    1  A    between atoms: N1_2  and  C3_4 
REMARK    2  A    between atoms: C8_9  and  N2_10 
REMARK    3  A    between atoms: N2_10  and  N3_12 
ROOT
HETATM    1  C3  UNL     1      27.798   8.337  47.792  1.00  0.00     0.246 C 
HETATM    2  C4  UNL     1      26.475   8.990  47.751  1.00  0.00     0.038 C 
HETATM    3  C5  UNL     1      26.372  10.371  48.260  1.00  0.00     0.002 C 
HETATM    4  C6  UNL     1      27.603  11.114  48.553  1.00  0.00     0.002 C 
HETATM    5  C7  UNL     1      28.897  10.432  48.280  1.00  0.00     0.029 C 
HETATM    6  C8  UNL     1      28.799   8.992  48.710  1.00  0.00     0.134 C 
ENDROOT
BRANCH   6   7
HETATM    7  N2  UNL     1      30.094   8.383  48.502  1.00  0.00    -0.316 N 
ATOM      8  H2  UNL     1      30.148   7.371  48.392  1.00  0.00     0.182 HD
BRANCH   7   9
HETATM    9  N3  UNL     1      31.269   9.128  48.448  1.00  0.00    -0.253 N 
HETATM   10  N4  UNL     1      31.470  10.165  49.113  1.00  0.00    -0.331 N 
ATOM     11  H42 UNL     1      30.716  10.471  49.729  1.00  0.00     0.178 HD
ATOM     12  H41 UNL     1      32.330  10.711  49.073  1.00  0.00     0.178 HD
ATOM     13  H3  UNL     1      32.012   8.807  47.827  1.00  0.00     0.207 HD
ENDBRANCH   7   9
ENDBRANCH   6   7
BRANCH   1  14
HETATM   14  N1  UNL     1      27.778   6.936  48.126  1.00  0.00     0.086 N 
HETATM   15  C1  UNL     1      27.615   6.092  46.952  1.00  0.00     0.310 C 
HETATM   16  C2  UNL     1      26.726   6.566  49.034  1.00  0.00     0.310 C 
ENDBRANCH   1  14
TORSDOF 3
ENDMDL
MODEL 2
REMARK VINA RESULT: -4.607178108      1.644      2.593
REMARK  3 active torsions:
REMARK  status: ('A' for Active; 'I' for Inactive)
REMARK    1  A    between atoms: N1_2  and  C3_4 
REMARK    2  A    between atoms: C8_9  and  N2_10 
REMARK    3  A    between atoms: N2_10  and  N3_12 
ROOT
HETATM    1  C3  UNL     1      27.907   7.540  48.714  1.00  0.00     0.246 C 
HETATM    2  C4  UNL     1      27.557   6.598  47.633  1.00  0.00     0.038 C 
HETATM    3  C5  UNL     1      27.799   7.025  46.242  1.00  0.00     0.002 C 
HETATM    4  C6  UNL     1      28.586   8.240  45.998  1.00  0.00     0.002 C 
HETATM    5  C7  UNL     1      29.129   8.954  47.185  1.00  0.00     0.029 C 
HETATM    6  C8  UNL     1      28.089   8.970  48.273  1.00  0.00     0.134 C 
ENDROOT
BRANCH   6   7
HETATM    7  N2  UNL     1      28.621   9.737  49.378  1.00  0.00    -0.316 N 
ATOM      8  H2  UNL     1      28.295   9.529  50.322  1.00  0.00     0.182 HD
BRANCH   7   9
HETATM    9  N3  UNL     1      29.561  10.749  49.200  1.00  0.00    -0.253 N 
HETATM   10  N4  UNL     1      30.745  10.677  49.587  1.00  0.00    -0.331 N 
ATOM     11  H42 UNL     1      31.025   9.817  50.060  1.00  0.00     0.178 HD
ATOM     12  H41 UNL     1      31.434  11.417  49.456  1.00  0.00     0.178 HD
ATOM     13  H3  UNL     1      29.264  11.601  48.724  1.00  0.00     0.207 HD
ENDBRANCH   7   9
ENDBRANCH   6   7
BRANCH   1  14
HETATM   14  N1  UNL     1      26.993   7.558  49.828  1.00  0.00     0.086 N 
HETATM   15  C1  UNL     1      27.637   7.172  51.074  1.00  0.00     0.310 C 
HETATM   16  C2  UNL     1      25.864   6.681  49.673  1.00  0.00     0.310 C 
ENDBRANCH   1  14
TORSDOF 3
ENDMDL
MODEL 3
REMARK VINA RESULT: -4.149632190      2.166      4.645
REMARK  3 active torsions:
REMARK  status: ('A' for Active; 'I' for Inactive)
REMARK    1  A    between atoms: N1_2  and  C3_4 
REMARK    2  A    between atoms: C8_9  and  N2_10 
REMARK    3  A    between atoms: N2_10  and  N3_12 
ROOT
HETATM    1  C3  UNL     1      26.999   8.454  48.143  1.00  0.00     0.246 C 
HETATM    2  C4  UNL     1      27.645   8.585  46.823  1.00  0.00     0.038 C 
HETATM    3  C5  UNL     1      28.157   7.359  46.182  1.00  0.00     0.002 C 
HETATM    4  C6  UNL     1      27.797   6.055  46.752  1.00  0.00     0.002 C 
HETATM    5  C7  UNL     1      26.895   6.051  47.935  1.00  0.00     0.029 C 
HETATM    6  C8  UNL     1      27.293   7.165  48.867  1.00  0.00     0.134 C 
ENDROOT
BRANCH   6   7
HETATM    7  N2  UNL     1      26.448   7.082  50.037  1.00  0.00    -0.316 N 
ATOM      8  H2  UNL     1      26.752   7.539  50.896  1.00  0.00     0.182 HD
BRANCH   7   9
HETATM    9  N3  UNL     1      25.233   6.400  50.034  1.00  0.00    -0.253 N 
HETATM   10  N4  UNL     1      24.645   6.016  51.065  1.00  0.00    -0.331 N 
ATOM     11  H42 UNL     1      25.095   6.222  51.957  1.00  0.00     0.178 HD
ATOM     12  H41 UNL     1      23.755   5.517  51.063  1.00  0.00     0.178 HD
ATOM     13  H3  UNL     1      24.796   6.203  49.133  1.00  0.00     0.207 HD
ENDBRANCH   7   9
ENDBRANCH   6   7
BRANCH   1  14
HETATM   14  N1  UNL     1      27.275   9.525  49.067  1.00  0.00     0.086 N 
HETATM   15  C1  UNL     1      26.317  10.613  48.951  1.00  0.00     0.310 C 
HETATM   16  C2  UNL     1      28.575  10.118  48.903  1.00  0.00     0.310 C 
ENDBRANCH   1  14
TORSDOF 3
ENDMDL
MODEL 4
REMARK VINA RESULT: -3.745497284      1.420      3.334
REMARK  3 active torsions:
REMARK  status: ('A' for Active; 'I' for Inactive)
REMARK    1  A    between atoms: N1_2  and  C3_4 
REMARK    2  A    between atoms: C8_9  and  N2_10 
REMARK    3  A    between atoms: N2_10  and  N3_12 
ROOT
HETATM    1  C3  UNL     1      27.632   8.581  48.947  1.00  0.00     0.246 C 
HETATM    2  C4  UNL     1      26.736   7.676  49.695  1.00  0.00     0.038 C 
HETATM    3  C5  UNL     1      26.347   6.406  49.052  1.00  0.00     0.002 C 
HETATM    4  C6  UNL     1      27.042   5.986  47.830  1.00  0.00     0.002 C 
HETATM    5  C7  UNL     1      28.136   6.861  47.328  1.00  0.00     0.029 C 
HETATM    6  C8  UNL     1      27.722   8.302  47.468  1.00  0.00     0.134 C 
ENDROOT
BRANCH   6   7
HETATM    7  N2  UNL     1      28.773   9.118  46.902  1.00  0.00    -0.316 N 
ATOM      8  H2  UNL     1      28.519   9.971  46.406  1.00  0.00     0.182 HD
BRANCH   7   9
HETATM    9  N3  UNL     1      30.121   8.779  47.008  1.00  0.00    -0.253 N 
HETATM   10  N4  UNL     1      30.793   8.913  48.051  1.00  0.00    -0.331 N 
ATOM     11  H42 UNL     1      30.311   9.294  48.865  1.00  0.00     0.178 HD
ATOM     12  H41 UNL     1      31.779   8.665  48.129  1.00  0.00     0.178 HD
ATOM     13  H3  UNL     1      30.586   8.399  46.184  1.00  0.00     0.207 HD
ENDBRANCH   7   9
ENDBRANCH   6   7
BRANCH   1  14
HETATM   14  N1  UNL     1      27.343   9.985  49.092  1.00  0.00     0.086 N 
HETATM   15  C1  UNL     1      26.224  10.404  48.262  1.00  0.00     0.310 C 
HETATM   16  C2  UNL     1      28.441  10.847  48.748  1.00  0.00     0.310 C 
ENDBRANCH   1  14
TORSDOF 3
ENDMDL
MODEL 5
REMARK VINA RESULT: -3.591895527      1.570      3.468
REMARK  3 active torsions:
REMARK  status: ('A' for Active; 'I' for Inactive)
REMARK    1  A    between atoms: N1_2  and  C3_4 
REMARK    2  A    between atoms: C8_9  and  N2_10 
REMARK    3  A    between atoms: N2_10  and  N3_12 
ROOT
HETATM    1  C3  UNL     1      27.580   8.672  48.468  1.00  0.00     0.246 C 
HETATM    2  C4  UNL     1      26.808   8.045  49.559  1.00  0.00     0.038 C 
HETATM    3  C5  UNL     1      26.308   6.673  49.349  1.00  0.00     0.002 C 
HETATM    4  C6  UNL     1      26.791   5.910  48.192  1.00  0.00     0.002 C 
HETATM    5  C7  UNL     1      27.798   6.563  47.312  1.00  0.00     0.029 C 
HETATM    6  C8  UNL     1      27.427   8.010  47.123  1.00  0.00     0.134 C 
ENDROOT
BRANCH   6   7
HETATM    7  N2  UNL     1      28.380   8.591  46.204  1.00  0.00    -0.316 N 
ATOM      8  H2  UNL     1      28.032   9.058  45.366  1.00  0.00     0.182 HD
BRANCH   7   9
HETATM    9  N3  UNL     1      29.755   8.536  46.421  1.00  0.00    -0.253 N 
HETATM   10  N4  UNL     1      30.312   8.928  47.465  1.00  0.00    -0.331 N 
ATOM     11  H42 UNL     1      29.710   9.308  48.196  1.00  0.00     0.178 HD
ATOM     12  H41 UNL     1      31.319   8.888  47.625  1.00  0.00     0.178 HD
ATOM     13  H3  UNL     1      30.342   8.152  45.680  1.00  0.00     0.207 HD
ENDBRANCH   7   9
ENDBRANCH   6   7
BRANCH   1  14
HETATM   14  N1  UNL     1      27.331  10.078  48.274  1.00  0.00     0.086 N 
HETATM   15  C1  UNL     1      28.383  10.906  48.842  1.00  0.00     0.310 C 
HETATM   16  C2  UNL     1      26.100  10.540  48.857  1.00  0.00     0.310 C 
ENDBRANCH   1  14
TORSDOF 3
ENDMDL
