MODEL 1
REMARK VINA RESULT: -4.831239583      0.000      0.000
REMARK  4 active torsions:
REMARK  status: ('A' for Active; 'I' for Inactive)
REMARK    1  A    between atoms: C3_3  and  N1_4 
REMARK    2  A    between atoms: N1_4  and  C4_5 
REMARK    3  A    between atoms: C4_5  and  C5_6 
REMARK    4  A    between atoms: C9_10  and  N2_11 
ROOT
HETATM    1  C1  UNL     1      30.903  11.127  49.181  1.00  0.00     0.013 C 
HETATM    2  C2  UNL     1      30.508  10.184  48.521  1.00  0.00    -0.089 C 
HETATM    3  C3  UNL     1      30.045   9.032  47.738  1.00  0.00     0.330 C 
ENDROOT
BRANCH   3   4
HETATM    4  N1  UNL     1      28.644   8.828  48.023  1.00  0.00    -0.055 N 
HETATM    5  C7  UNL     1      28.041   8.256  46.845  1.00  0.00     0.240 C 
HETATM    6  C8  UNL     1      27.449   6.940  47.201  1.00  0.00     0.062 C 
HETATM    7  C9  UNL     1      27.634   6.768  48.668  1.00  0.00     0.211 C 
HETATM    8  C10 UNL     1      28.553   7.860  49.084  1.00  0.00     0.271 C 
BRANCH   4   9
HETATM    9  C4  UNL     1      27.929   9.991  48.386  1.00  0.00     0.238 C 
BRANCH   9  10
HETATM   10  C5  UNL     1      26.612  10.198  47.719  1.00  0.00     0.023 C 
HETATM   11  C6  UNL     1      25.493  10.192  48.738  1.00  0.00     0.007 C 
ENDBRANCH   9  10
ENDBRANCH   4   9
BRANCH   7  12
HETATM   12  N2  UNL     1      26.362   6.818  49.399  1.00  0.00    -0.073 N 
ATOM     13  H23 UNL     1      25.661   6.219  48.962  1.00  0.00     0.274 HD
ATOM     14  H22 UNL     1      26.437   6.348  50.302  1.00  0.00     0.274 HD
ATOM     15  H21 UNL     1      26.015   7.771  49.508  1.00  0.00     0.274 HD
ENDBRANCH   7  12
ENDBRANCH   3   4
TORSDOF 4
ENDMDL
MODEL 2
REMARK VINA RESULT: -4.818169283      1.520      3.880
REMARK  4 active torsions:
REMARK  status: ('A' for Active; 'I' for Inactive)
REMARK    1  A    between atoms: C3_3  and  N1_4 
REMARK    2  A    between atoms: N1_4  and  C4_5 
REMARK    3  A    between atoms: C4_5  and  C5_6 
REMARK    4  A    between atoms: C9_10  and  N2_11 
ROOT
HETATM    1  C1  UNL     1      27.731   6.043  46.525  1.00  0.00     0.013 C 
HETATM    2  C2  UNL     1      27.638   7.237  46.742  1.00  0.00    -0.089 C 
HETATM    3  C3  UNL     1      27.501   8.673  47.011  1.00  0.00     0.330 C 
ENDROOT
BRANCH   3   4
HETATM    4  N1  UNL     1      28.230   8.977  48.220  1.00  0.00    -0.055 N 
HETATM    5  C7  UNL     1      29.407   8.144  48.235  1.00  0.00     0.240 C 
HETATM    6  C8  UNL     1      30.610   9.016  48.283  1.00  0.00     0.062 C 
HETATM    7  C9  UNL     1      30.120  10.418  48.387  1.00  0.00     0.211 C 
HETATM    8  C10 UNL     1      28.656  10.349  48.137  1.00  0.00     0.271 C 
BRANCH   4   9
HETATM    9  C4  UNL     1      27.513   8.779  49.421  1.00  0.00     0.238 C 
BRANCH   9  10
HETATM   10  C5  UNL     1      27.528   7.401  49.986  1.00  0.00     0.023 C 
HETATM   11  C6  UNL     1      26.167   6.754  49.847  1.00  0.00     0.007 C 
ENDBRANCH   9  10
ENDBRANCH   4   9
BRANCH   7  12
HETATM   12  N2  UNL     1      30.422  11.018  49.693  1.00  0.00    -0.073 N 
ATOM     13  H23 UNL     1      31.423  11.180  49.802  1.00  0.00     0.274 HD
ATOM     14  H22 UNL     1      30.095  11.983  49.739  1.00  0.00     0.274 HD
ATOM     15  H21 UNL     1      30.053  10.466  50.467  1.00  0.00     0.274 HD
ENDBRANCH   7  12
ENDBRANCH   3   4
TORSDOF 4
ENDMDL
MODEL 3
REMARK VINA RESULT: -4.339604792      1.457      4.025
REMARK  4 active torsions:
REMARK  status: ('A' for Active; 'I' for Inactive)
REMARK    1  A    between atoms: C3_3  and  N1_4 
REMARK    2  A    between atoms: N1_4  and  C4_5 
REMARK    3  A    between atoms: C4_5  and  C5_6 
REMARK    4  A    between atoms: C9_10  and  N2_11 
ROOT
HETATM    1  C1  UNL     1      26.091   6.548  49.715  1.00  0.00     0.013 C 
HETATM    2  C2  UNL     1      26.269   7.706  49.387  1.00  0.00    -0.089 C 
HETATM    3  C3  UNL     1      26.491   9.109  49.014  1.00  0.00     0.330 C 
ENDROOT
BRANCH   3   4
HETATM    4  N1  UNL     1      27.673   9.173  48.187  1.00  0.00    -0.055 N 
HETATM    5  C7  UNL     1      28.025  10.564  48.044  1.00  0.00     0.240 C 
HETATM    6  C8  UNL     1      29.399  10.766  48.573  1.00  0.00     0.062 C 
HETATM    7  C9  UNL     1      29.911   9.424  48.964  1.00  0.00     0.211 C 
HETATM    8  C10 UNL     1      28.736   8.514  48.897  1.00  0.00     0.271 C 
BRANCH   4   9
HETATM    9  C4  UNL     1      27.539   8.599  46.903  1.00  0.00     0.238 C 
BRANCH   9  10
HETATM   10  C5  UNL     1      28.439   7.452  46.590  1.00  0.00     0.023 C 
HETATM   11  C6  UNL     1      27.664   6.152  46.599  1.00  0.00     0.007 C 
ENDBRANCH   9  10
ENDBRANCH   4   9
BRANCH   7  12
HETATM   12  N2  UNL     1      31.003   8.968  48.094  1.00  0.00    -0.073 N 
ATOM     13  H23 UNL     1      30.651   8.376  47.341  1.00  0.00     0.274 HD
ATOM     14  H22 UNL     1      31.374   9.737  47.536  1.00  0.00     0.274 HD
ATOM     15  H21 UNL     1      31.743   8.499  48.615  1.00  0.00     0.274 HD
ENDBRANCH   7  12
ENDBRANCH   3   4
TORSDOF 4
ENDMDL
MODEL 4
REMARK VINA RESULT: -4.279243804      1.168      2.490
REMARK  4 active torsions:
REMARK  status: ('A' for Active; 'I' for Inactive)
REMARK    1  A    between atoms: C3_3  and  N1_4 
REMARK    2  A    between atoms: N1_4  and  C4_5 
REMARK    3  A    between atoms: C4_5  and  C5_6 
REMARK    4  A    between atoms: C9_10  and  N2_11 
ROOT
HETATM    1  C1  UNL     1      30.479  10.851  48.506  1.00  0.00     0.013 C 
HETATM    2  C2  UNL     1      29.275  10.676  48.538  1.00  0.00    -0.089 C 
HETATM    3  C3  UNL     1      27.821  10.476  48.554  1.00  0.00     0.330 C 
ENDROOT
BRANCH   3   4
HETATM    4  N1  UNL     1      27.557   9.072  48.341  1.00  0.00    -0.055 N 
HETATM    5  C7  UNL     1      28.632   8.332  48.956  1.00  0.00     0.240 C 
HETATM    6  C8  UNL     1      28.061   7.428  49.988  1.00  0.00     0.062 C 
HETATM    7  C9  UNL     1      26.582   7.578  49.921  1.00  0.00     0.211 C 
HETATM    8  C10 UNL     1      26.340   8.748  49.037  1.00  0.00     0.271 C 
BRANCH   4   9
HETATM    9  C4  UNL     1      27.444   8.680  46.989  1.00  0.00     0.238 C 
BRANCH   9  10
HETATM   10  C5  UNL     1      28.383   7.620  46.523  1.00  0.00     0.023 C 
HETATM   11  C6  UNL     1      27.703   6.267  46.532  1.00  0.00     0.007 C 
ENDBRANCH   9  10
ENDBRANCH   4   9
BRANCH   7  12
HETATM   12  N2  UNL     1      25.922   6.367  49.415  1.00  0.00    -0.073 N 
ATOM     13  H23 UNL     1      26.383   6.020  48.574  1.00  0.00     0.274 HD
ATOM     14  H22 UNL     1      26.088   5.572  50.032  1.00  0.00     0.274 HD
ATOM     15  H21 UNL     1      24.924   6.508  49.256  1.00  0.00     0.274 HD
ENDBRANCH   7  12
ENDBRANCH   3   4
TORSDOF 4
ENDMDL
MODEL 5
REMARK VINA RESULT: -4.210775852      1.508      4.283
REMARK  4 active torsions:
REMARK  status: ('A' for Active; 'I' for Inactive)
REMARK    1  A    between atoms: C3_3  and  N1_4 
REMARK    2  A    between atoms: N1_4  and  C4_5 
REMARK    3  A    between atoms: C4_5  and  C5_6 
REMARK    4  A    between atoms: C9_10  and  N2_11 
ROOT
HETATM    1  C1  UNL     1      25.244   6.276  49.974  1.00  0.00     0.013 C 
HETATM    2  C2  UNL     1      26.338   6.810  49.964  1.00  0.00    -0.089 C 
HETATM    3  C3  UNL     1      27.668   7.432  49.945  1.00  0.00     0.330 C 
ENDROOT
BRANCH   3   4
HETATM    4  N1  UNL     1      27.747   8.290  48.786  1.00  0.00    -0.055 N 
HETATM    5  C7  UNL     1      27.136   9.548  49.136  1.00  0.00     0.240 C 
HETATM    6  C8  UNL     1      28.141  10.630  48.971  1.00  0.00     0.062 C 
HETATM    7  C9  UNL     1      29.369   9.996  48.419  1.00  0.00     0.211 C 
HETATM    8  C10 UNL     1      29.141   8.530  48.519  1.00  0.00     0.271 C 
BRANCH   4   9
HETATM    9  C4  UNL     1      27.126   7.786  47.622  1.00  0.00     0.238 C 
BRANCH   9  10
HETATM   10  C5  UNL     1      27.995   7.019  46.684  1.00  0.00     0.023 C 
HETATM   11  C6  UNL     1      27.681   5.540  46.757  1.00  0.00     0.007 C 
ENDBRANCH   9  10
ENDBRANCH   4   9
BRANCH   7  12
HETATM   12  N2  UNL     1      29.638  10.412  47.037  1.00  0.00    -0.073 N 
ATOM     13  H23 UNL     1      28.970  11.119  46.728  1.00  0.00     0.274 HD
ATOM     14  H22 UNL     1      30.495  10.962  46.978  1.00  0.00     0.274 HD
ATOM     15  H21 UNL     1      29.662   9.622  46.393  1.00  0.00     0.274 HD
ENDBRANCH   7  12
ENDBRANCH   3   4
TORSDOF 4
ENDMDL
