MODEL 1
REMARK VINA RESULT: -4.895469513      0.000      0.000
REMARK  3 active torsions:
REMARK  status: ('A' for Active; 'I' for Inactive)
REMARK    1  A    between atoms: C2_3  and  C3_4 
REMARK    2  A    between atoms: C3_4  and  C4_5 
REMARK    3  A    between atoms: C4_5  and  N2_6 
ROOT
HETATM    1  N2  UNL     1      34.165  -0.558  39.349  1.00  0.00    -0.362 N 
ATOM      2  H2  UNL     1      33.629  -0.265  40.166  1.00  0.00     0.162 HD
HETATM    3  C5  UNL     1      33.745  -1.584  38.693  1.00  0.00     0.181 A 
HETATM    4  N3  UNL     1      34.036  -2.383  37.588  1.00  0.00    -0.324 N 
ATOM      5  H3  UNL     1      34.790  -2.346  36.903  1.00  0.00     0.169 HD
HETATM    6  C6  UNL     1      33.039  -3.182  37.721  1.00  0.00     0.186 A 
HETATM    7  N4  UNL     1      32.640  -2.445  38.863  1.00  0.00    -0.324 N 
ATOM      8  H4  UNL     1      31.872  -2.510  39.531  1.00  0.00     0.169 HD
ENDROOT
BRANCH   1   9
HETATM    9  C4  UNL     1      35.331   0.198  39.012  1.00  0.00     0.126 C 
BRANCH   9  10
HETATM   10  C3  UNL     1      36.308   0.061  40.175  1.00  0.00     0.048 C 
BRANCH  10  11
HETATM   11  C2  UNL     1      37.183  -1.091  39.836  1.00  0.00    -0.011 C 
HETATM   12  C1  UNL     1      37.434  -1.439  38.594  1.00  0.00     0.096 C 
HETATM   13  N1  UNL     1      38.272  -2.542  38.311  1.00  0.00    -0.115 NA
ENDBRANCH  10  11
ENDBRANCH   9  10
ENDBRANCH   1   9
TORSDOF 3
ENDMDL
MODEL 2
REMARK VINA RESULT: -4.653678889      1.388      1.545
REMARK  3 active torsions:
REMARK  status: ('A' for Active; 'I' for Inactive)
REMARK    1  A    between atoms: C2_3  and  C3_4 
REMARK    2  A    between atoms: C3_4  and  C4_5 
REMARK    3  A    between atoms: C4_5  and  N2_6 
ROOT
HETATM    1  N2  UNL     1      34.450  -0.472  39.308  1.00  0.00    -0.362 N 
ATOM      2  H2  UNL     1      33.988  -0.176  40.167  1.00  0.00     0.162 HD
HETATM    3  C5  UNL     1      33.949  -1.475  38.673  1.00  0.00     0.181 A 
HETATM    4  N3  UNL     1      34.128  -2.266  37.539  1.00  0.00    -0.324 N 
ATOM      5  H3  UNL     1      34.828  -2.241  36.797  1.00  0.00     0.169 HD
HETATM    6  C6  UNL     1      33.120  -3.037  37.739  1.00  0.00     0.186 A 
HETATM    7  N4  UNL     1      32.834  -2.306  38.918  1.00  0.00    -0.324 N 
ATOM      8  H4  UNL     1      32.119  -2.358  39.643  1.00  0.00     0.169 HD
ENDROOT
BRANCH   1   9
HETATM    9  C4  UNL     1      35.609   0.255  38.890  1.00  0.00     0.126 C 
BRANCH   9  10
HETATM   10  C3  UNL     1      36.768  -0.736  38.843  1.00  0.00     0.048 C 
BRANCH  10  11
HETATM   11  C2  UNL     1      36.979  -1.179  40.246  1.00  0.00    -0.011 C 
HETATM   12  C1  UNL     1      36.771  -2.419  40.627  1.00  0.00     0.096 C 
HETATM   13  N1  UNL     1      36.983  -2.804  41.972  1.00  0.00    -0.115 NA
ENDBRANCH  10  11
ENDBRANCH   9  10
ENDBRANCH   1   9
TORSDOF 3
ENDMDL
MODEL 3
REMARK VINA RESULT: -4.416853758      1.447      2.469
REMARK  3 active torsions:
REMARK  status: ('A' for Active; 'I' for Inactive)
REMARK    1  A    between atoms: C2_3  and  C3_4 
REMARK    2  A    between atoms: C3_4  and  C4_5 
REMARK    3  A    between atoms: C4_5  and  N2_6 
ROOT
HETATM    1  N2  UNL     1      35.646  -2.644  37.990  1.00  0.00    -0.362 N 
ATOM      2  H2  UNL     1      35.845  -3.474  37.432  1.00  0.00     0.162 HD
HETATM    3  C5  UNL     1      34.432  -2.461  38.380  1.00  0.00     0.181 A 
HETATM    4  N3  UNL     1      33.625  -1.585  39.106  1.00  0.00    -0.324 N 
ATOM      5  H3  UNL     1      33.836  -0.716  39.596  1.00  0.00     0.169 HD
HETATM    6  C6  UNL     1      32.529  -2.237  38.953  1.00  0.00     0.186 A 
HETATM    7  N4  UNL     1      33.243  -3.199  38.196  1.00  0.00    -0.324 N 
ATOM      8  H4  UNL     1      32.999  -4.066  37.717  1.00  0.00     0.169 HD
ENDROOT
BRANCH   1   9
HETATM    9  C4  UNL     1      36.734  -1.764  38.286  1.00  0.00     0.126 C 
BRANCH   9  10
HETATM   10  C3  UNL     1      37.228  -2.112  39.686  1.00  0.00     0.048 C 
BRANCH  10  11
HETATM   11  C2  UNL     1      36.948  -0.916  40.523  1.00  0.00    -0.011 C 
HETATM   12  C1  UNL     1      36.408   0.174  40.028  1.00  0.00     0.096 C 
HETATM   13  N1  UNL     1      36.157   1.293  40.857  1.00  0.00    -0.115 NA
ENDBRANCH  10  11
ENDBRANCH   9  10
ENDBRANCH   1   9
TORSDOF 3
ENDMDL
MODEL 4
REMARK VINA RESULT: -4.317072022      1.964      4.212
REMARK  3 active torsions:
REMARK  status: ('A' for Active; 'I' for Inactive)
REMARK    1  A    between atoms: C2_3  and  C3_4 
REMARK    2  A    between atoms: C3_4  and  C4_5 
REMARK    3  A    between atoms: C4_5  and  N2_6 
ROOT
HETATM    1  N2  UNL     1      36.568  -0.252  39.814  1.00  0.00    -0.362 N 
ATOM      2  H2  UNL     1      37.339   0.413  39.765  1.00  0.00     0.162 HD
HETATM    3  C5  UNL     1      36.719  -1.291  40.562  1.00  0.00     0.181 A 
HETATM    4  N3  UNL     1      36.069  -2.448  40.989  1.00  0.00    -0.324 N 
ATOM      5  H3  UNL     1      35.146  -2.826  40.776  1.00  0.00     0.169 HD
HETATM    6  C6  UNL     1      37.018  -2.878  41.740  1.00  0.00     0.186 A 
HETATM    7  N4  UNL     1      37.778  -1.739  41.379  1.00  0.00    -0.324 N 
ATOM      8  H4  UNL     1      38.706  -1.387  41.614  1.00  0.00     0.169 HD
ENDROOT
BRANCH   1   9
HETATM    9  C4  UNL     1      35.395   0.031  39.046  1.00  0.00     0.126 C 
BRANCH   9  10
HETATM   10  C3  UNL     1      35.202  -1.129  38.074  1.00  0.00     0.048 C 
BRANCH  10  11
HETATM   11  C2  UNL     1      33.848  -1.672  38.355  1.00  0.00    -0.011 C 
HETATM   12  C1  UNL     1      33.410  -2.781  37.803  1.00  0.00     0.096 C 
HETATM   13  N1  UNL     1      32.114  -3.268  38.094  1.00  0.00    -0.115 NA
ENDBRANCH  10  11
ENDBRANCH   9  10
ENDBRANCH   1   9
TORSDOF 3
ENDMDL
MODEL 5
REMARK VINA RESULT: -3.794888840      0.668      1.042
REMARK  3 active torsions:
REMARK  status: ('A' for Active; 'I' for Inactive)
REMARK    1  A    between atoms: C2_3  and  C3_4 
REMARK    2  A    between atoms: C3_4  and  C4_5 
REMARK    3  A    between atoms: C4_5  and  N2_6 
ROOT
HETATM    1  N2  UNL     1      34.764  -0.683  38.225  1.00  0.00    -0.362 N 
ATOM      2  H2  UNL     1      35.387  -0.545  37.430  1.00  0.00     0.162 HD
HETATM    3  C5  UNL     1      33.938  -1.672  38.175  1.00  0.00     0.181 A 
HETATM    4  N3  UNL     1      32.930  -2.306  38.899  1.00  0.00    -0.324 N 
ATOM      5  H3  UNL     1      32.524  -2.109  39.814  1.00  0.00     0.169 HD
HETATM    6  C6  UNL     1      32.684  -3.222  38.033  1.00  0.00     0.186 A 
HETATM    7  N4  UNL     1      33.690  -2.666  37.205  1.00  0.00    -0.324 N 
ATOM      8  H4  UNL     1      34.076  -2.891  36.288  1.00  0.00     0.169 HD
ENDROOT
BRANCH   1   9
HETATM    9  C4  UNL     1      34.866   0.233  39.319  1.00  0.00     0.126 C 
BRANCH   9  10
HETATM   10  C3  UNL     1      36.193  -0.045  40.016  1.00  0.00     0.048 C 
BRANCH  10  11
HETATM   11  C2  UNL     1      37.058  -0.696  38.998  1.00  0.00    -0.011 C 
HETATM   12  C1  UNL     1      37.582  -1.886  39.182  1.00  0.00     0.096 C 
HETATM   13  N1  UNL     1      38.401  -2.474  38.189  1.00  0.00    -0.115 NA
ENDBRANCH  10  11
ENDBRANCH   9  10
ENDBRANCH   1   9
TORSDOF 3
ENDMDL
