MODEL 1
REMARK VINA RESULT: -7.464101643      0.000      0.000
REMARK  9 active torsions:
REMARK  status: ('A' for Active; 'I' for Inactive)
REMARK    1  A    between atoms: C1_2  and  C2_3 
REMARK    2  A    between atoms: C1_2  and  C5_15 
REMARK    3  A    between atoms: C2_3  and  O2_4 
REMARK    4  A    between atoms: C2_3  and  C3_6 
REMARK    5  A    between atoms: C3_6  and  O3_7 
REMARK    6  A    between atoms: C3_6  and  N1_9 
REMARK    7  A    between atoms: N1_9  and  C4_11 
REMARK    8  A    between atoms: C5_15  and  O4_16 
REMARK    9  A    between atoms: C5_15  and  N2_18 
ROOT
HETATM    1  O1  UNL     1      30.703  48.835  50.149  1.00  0.00    -0.290 OA
HETATM    2  C1  UNL     1      30.382  48.903  48.995  1.00  0.00     0.207 C 
ENDROOT
BRANCH   2   3
HETATM    3  C2  UNL     1      31.460  48.910  47.944  1.00  0.00     0.240 C 
BRANCH   3   4
HETATM    4  O2  UNL     1      32.010  47.611  47.876  1.00  0.00    -0.383 OA
ATOM      5  H2  UNL     1      32.940  47.676  48.060  1.00  0.00     0.210 HD
ENDBRANCH   3   4
BRANCH   3   6
HETATM    6  C3  UNL     1      32.534  49.855  48.368  1.00  0.00     0.253 C 
BRANCH   6   7
HETATM    7  O3  UNL     1      33.311  49.211  49.366  1.00  0.00    -0.374 OA
ATOM      8  H3  UNL     1      33.746  48.468  48.963  1.00  0.00     0.212 HD
ENDBRANCH   6   7
BRANCH   6   9
HETATM    9  N1  UNL     1      33.408  50.314  47.351  1.00  0.00    -0.348 N 
ATOM     10  H1  UNL     1      33.877  49.649  46.737  1.00  0.00     0.160 HD
BRANCH   9  11
HETATM   11  C4  UNL     1      33.622  51.692  47.196  1.00  0.00     0.264 C 
HETATM   12 CL1  UNL     1      33.265  52.534  48.766  1.00  0.00    -0.061 Cl
HETATM   13 CL2  UNL     1      32.626  52.453  45.965  1.00  0.00    -0.061 Cl
HETATM   14 CL3  UNL     1      35.347  52.047  46.826  1.00  0.00    -0.061 Cl
ENDBRANCH   9  11
ENDBRANCH   6   9
ENDBRANCH   3   6
ENDBRANCH   2   3
BRANCH   2  15
HETATM   15  C5  UNL     1      28.992  48.977  48.591  1.00  0.00     0.297 C 
BRANCH  15  16
HETATM   16  O4  UNL     1      28.227  49.604  49.576  1.00  0.00    -0.369 OA
ATOM     17  H4  UNL     1      28.776  50.157  50.122  1.00  0.00     0.212 HD
ENDBRANCH  15  16
BRANCH  15  18
HETATM   18  N2  UNL     1      28.398  47.689  48.226  1.00  0.00    -0.308 N 
HETATM   19  C6  UNL     1      27.971  47.156  47.006  1.00  0.00     0.046 A 
HETATM   20  C7  UNL     1      27.771  47.254  45.613  1.00  0.00     0.030 A 
HETATM   21  C11 UNL     1      27.615  45.997  47.597  1.00  0.00     0.028 A 
HETATM   22  C8  UNL     1      27.237  46.223  44.873  1.00  0.00     0.002 A 
HETATM   23  C9  UNL     1      26.892  45.062  45.532  1.00  0.00     0.001 A 
HETATM   24  C10 UNL     1      27.063  44.907  46.886  1.00  0.00     0.014 A 
HETATM   25  C12 UNL     1      28.037  46.514  48.916  1.00  0.00     0.221 A 
HETATM   26 CL4  UNL     1      29.399  45.572  49.592  1.00  0.00    -0.072 Cl
HETATM   27 CL5  UNL     1      26.659  46.639  50.057  1.00  0.00    -0.072 Cl
ENDBRANCH  15  18
ENDBRANCH   2  15
TORSDOF 9
ENDMDL
MODEL 2
REMARK VINA RESULT: -7.400294037      1.534      2.329
REMARK  9 active torsions:
REMARK  status: ('A' for Active; 'I' for Inactive)
REMARK    1  A    between atoms: C1_2  and  C2_3 
REMARK    2  A    between atoms: C1_2  and  C5_15 
REMARK    3  A    between atoms: C2_3  and  O2_4 
REMARK    4  A    between atoms: C2_3  and  C3_6 
REMARK    5  A    between atoms: C3_6  and  O3_7 
REMARK    6  A    between atoms: C3_6  and  N1_9 
REMARK    7  A    between atoms: N1_9  and  C4_11 
REMARK    8  A    between atoms: C5_15  and  O4_16 
REMARK    9  A    between atoms: C5_15  and  N2_18 
ROOT
HETATM    1  O1  UNL     1      30.598  48.844  50.192  1.00  0.00    -0.290 OA
HETATM    2  C1  UNL     1      30.420  48.197  49.198  1.00  0.00     0.207 C 
ENDROOT
BRANCH   2   3
HETATM    3  C2  UNL     1      31.356  48.387  48.034  1.00  0.00     0.240 C 
BRANCH   3   4
HETATM    4  O2  UNL     1      32.089  47.192  47.865  1.00  0.00    -0.383 OA
ATOM      5  H2  UNL     1      31.793  46.777  47.063  1.00  0.00     0.210 HD
ENDBRANCH   3   4
BRANCH   3   6
HETATM    6  C3  UNL     1      32.312  49.484  48.364  1.00  0.00     0.253 C 
BRANCH   6   7
HETATM    7  O3  UNL     1      33.208  48.998  49.351  1.00  0.00    -0.374 OA
ATOM      8  H3  UNL     1      33.118  48.052  49.387  1.00  0.00     0.212 HD
ENDBRANCH   6   7
BRANCH   6   9
HETATM    9  N1  UNL     1      33.074  50.003  47.288  1.00  0.00    -0.348 N 
ATOM     10  H1  UNL     1      33.464  49.376  46.585  1.00  0.00     0.160 HD
BRANCH   9  11
HETATM   11  C4  UNL     1      33.287  51.387  47.198  1.00  0.00     0.264 C 
HETATM   12 CL1  UNL     1      34.931  51.694  46.488  1.00  0.00    -0.061 Cl
HETATM   13 CL2  UNL     1      33.221  52.238  48.734  1.00  0.00    -0.061 Cl
HETATM   14 CL3  UNL     1      32.111  52.157  46.075  1.00  0.00    -0.061 Cl
ENDBRANCH   9  11
ENDBRANCH   6   9
ENDBRANCH   3   6
ENDBRANCH   2   3
BRANCH   2  15
HETATM   15  C5  UNL     1      29.335  47.241  49.092  1.00  0.00     0.297 C 
BRANCH  15  16
HETATM   16  O4  UNL     1      29.816  45.937  49.230  1.00  0.00    -0.369 OA
ATOM     17  H4  UNL     1      30.734  45.893  48.987  1.00  0.00     0.212 HD
ENDBRANCH  15  16
BRANCH  15  18
HETATM   18  N2  UNL     1      28.537  47.364  47.871  1.00  0.00    -0.308 N 
HETATM   19  C6  UNL     1      28.274  46.480  46.819  1.00  0.00     0.046 A 
HETATM   20  C7  UNL     1      28.427  45.231  46.182  1.00  0.00     0.030 A 
HETATM   21  C11 UNL     1      27.484  47.388  46.208  1.00  0.00     0.028 A 
HETATM   22  C8  UNL     1      27.808  44.933  44.989  1.00  0.00     0.002 A 
HETATM   23  C9  UNL     1      27.013  45.900  44.412  1.00  0.00     0.001 A 
HETATM   24  C10 UNL     1      26.824  47.135  44.985  1.00  0.00     0.014 A 
HETATM   25  C12 UNL     1      27.739  48.367  47.286  1.00  0.00     0.221 A 
HETATM   26 CL4  UNL     1      26.242  48.774  48.176  1.00  0.00    -0.072 Cl
HETATM   27 CL5  UNL     1      28.590  49.824  46.678  1.00  0.00    -0.072 Cl
ENDBRANCH  15  18
ENDBRANCH   2  15
TORSDOF 9
ENDMDL
MODEL 3
REMARK VINA RESULT: -7.371681213      0.264      1.070
REMARK  9 active torsions:
REMARK  status: ('A' for Active; 'I' for Inactive)
REMARK    1  A    between atoms: C1_2  and  C2_3 
REMARK    2  A    between atoms: C1_2  and  C5_15 
REMARK    3  A    between atoms: C2_3  and  O2_4 
REMARK    4  A    between atoms: C2_3  and  C3_6 
REMARK    5  A    between atoms: C3_6  and  O3_7 
REMARK    6  A    between atoms: C3_6  and  N1_9 
REMARK    7  A    between atoms: N1_9  and  C4_11 
REMARK    8  A    between atoms: C5_15  and  O4_16 
REMARK    9  A    between atoms: C5_15  and  N2_18 
ROOT
HETATM    1  O1  UNL     1      30.788  48.876  50.079  1.00  0.00    -0.290 OA
HETATM    2  C1  UNL     1      30.446  49.003  48.936  1.00  0.00     0.207 C 
ENDROOT
BRANCH   2   3
HETATM    3  C2  UNL     1      31.505  49.079  47.869  1.00  0.00     0.240 C 
BRANCH   3   4
HETATM    4  O2  UNL     1      32.052  47.787  47.706  1.00  0.00    -0.383 OA
ATOM      5  H2  UNL     1      32.996  47.874  47.638  1.00  0.00     0.210 HD
ENDBRANCH   3   4
BRANCH   3   6
HETATM    6  C3  UNL     1      32.589  49.993  48.334  1.00  0.00     0.253 C 
BRANCH   6   7
HETATM    7  O3  UNL     1      33.338  49.311  49.327  1.00  0.00    -0.374 OA
ATOM      8  H3  UNL     1      33.633  49.953  49.962  1.00  0.00     0.212 HD
ENDBRANCH   6   7
BRANCH   6   9
HETATM    9  N1  UNL     1      33.486  50.464  47.344  1.00  0.00    -0.348 N 
ATOM     10  H1  UNL     1      33.788  49.849  46.589  1.00  0.00     0.160 HD
BRANCH   9  11
HETATM   11  C4  UNL     1      33.955  51.785  47.410  1.00  0.00     0.264 C 
HETATM   12 CL1  UNL     1      35.731  51.809  47.032  1.00  0.00    -0.061 Cl
HETATM   13 CL2  UNL     1      33.751  52.556  48.976  1.00  0.00    -0.061 Cl
HETATM   14 CL3  UNL     1      33.170  52.820  46.165  1.00  0.00    -0.061 Cl
ENDBRANCH   9  11
ENDBRANCH   6   9
ENDBRANCH   3   6
ENDBRANCH   2   3
BRANCH   2  15
HETATM   15  C5  UNL     1      29.048  49.084  48.560  1.00  0.00     0.297 C 
BRANCH  15  16
HETATM   16  O4  UNL     1      28.304  49.698  49.570  1.00  0.00    -0.369 OA
ATOM     17  H4  UNL     1      27.426  49.895  49.264  1.00  0.00     0.212 HD
ENDBRANCH  15  16
BRANCH  15  18
HETATM   18  N2  UNL     1      28.446  47.803  48.187  1.00  0.00    -0.308 N 
HETATM   19  C6  UNL     1      27.996  47.289  46.967  1.00  0.00     0.046 A 
HETATM   20  C7  UNL     1      27.770  47.407  45.580  1.00  0.00     0.030 A 
HETATM   21  C11 UNL     1      27.649  46.121  47.548  1.00  0.00     0.028 A 
HETATM   22  C8  UNL     1      27.220  46.388  44.835  1.00  0.00     0.002 A 
HETATM   23  C9  UNL     1      26.886  45.218  45.483  1.00  0.00     0.001 A 
HETATM   24  C10 UNL     1      27.083  45.043  46.831  1.00  0.00     0.014 A 
HETATM   25  C12 UNL     1      28.097  46.619  48.866  1.00  0.00     0.221 A 
HETATM   26 CL4  UNL     1      29.470  45.665  49.502  1.00  0.00    -0.072 Cl
HETATM   27 CL5  UNL     1      26.740  46.728  50.035  1.00  0.00    -0.072 Cl
ENDBRANCH  15  18
ENDBRANCH   2  15
TORSDOF 9
ENDMDL
MODEL 4
REMARK VINA RESULT: -7.369699356      1.538      2.065
REMARK  9 active torsions:
REMARK  status: ('A' for Active; 'I' for Inactive)
REMARK    1  A    between atoms: C1_2  and  C2_3 
REMARK    2  A    between atoms: C1_2  and  C5_15 
REMARK    3  A    between atoms: C2_3  and  O2_4 
REMARK    4  A    between atoms: C2_3  and  C3_6 
REMARK    5  A    between atoms: C3_6  and  O3_7 
REMARK    6  A    between atoms: C3_6  and  N1_9 
REMARK    7  A    between atoms: N1_9  and  C4_11 
REMARK    8  A    between atoms: C5_15  and  O4_16 
REMARK    9  A    between atoms: C5_15  and  N2_18 
ROOT
HETATM    1  O1  UNL     1      30.613  48.869  50.236  1.00  0.00    -0.290 OA
HETATM    2  C1  UNL     1      30.446  48.229  49.236  1.00  0.00     0.207 C 
ENDROOT
BRANCH   2   3
HETATM    3  C2  UNL     1      31.376  48.449  48.072  1.00  0.00     0.240 C 
BRANCH   3   4
HETATM    4  O2  UNL     1      32.138  47.274  47.894  1.00  0.00    -0.383 OA
ATOM      5  H2  UNL     1      33.037  47.468  48.130  1.00  0.00     0.210 HD
ENDBRANCH   3   4
BRANCH   3   6
HETATM    6  C3  UNL     1      32.306  49.567  48.410  1.00  0.00     0.253 C 
BRANCH   6   7
HETATM    7  O3  UNL     1      33.241  49.082  49.361  1.00  0.00    -0.374 OA
ATOM      8  H3  UNL     1      33.564  49.826  49.857  1.00  0.00     0.212 HD
ENDBRANCH   6   7
BRANCH   6   9
HETATM    9  N1  UNL     1      33.024  50.138  47.330  1.00  0.00    -0.348 N 
ATOM     10  H1  UNL     1      33.544  49.542  46.685  1.00  0.00     0.160 HD
BRANCH   9  11
HETATM   11  C4  UNL     1      33.015  51.530  47.155  1.00  0.00     0.264 C 
HETATM   12 CL1  UNL     1      32.798  52.335  48.769  1.00  0.00    -0.061 Cl
HETATM   13 CL2  UNL     1      31.739  52.127  46.105  1.00  0.00    -0.061 Cl
HETATM   14 CL3  UNL     1      34.592  52.117  46.517  1.00  0.00    -0.061 Cl
ENDBRANCH   9  11
ENDBRANCH   6   9
ENDBRANCH   3   6
ENDBRANCH   2   3
BRANCH   2  15
HETATM   15  C5  UNL     1      29.380  47.253  49.120  1.00  0.00     0.297 C 
BRANCH  15  16
HETATM   16  O4  UNL     1      29.888  45.957  49.229  1.00  0.00    -0.369 OA
ATOM     17  H4  UNL     1      30.269  45.820  50.088  1.00  0.00     0.212 HD
ENDBRANCH  15  16
BRANCH  15  18
HETATM   18  N2  UNL     1      28.567  47.384  47.909  1.00  0.00    -0.308 N 
HETATM   19  C6  UNL     1      28.292  46.507  46.856  1.00  0.00     0.046 A 
HETATM   20  C7  UNL     1      28.437  45.261  46.210  1.00  0.00     0.030 A 
HETATM   21  C11 UNL     1      27.496  47.418  46.259  1.00  0.00     0.028 A 
HETATM   22  C8  UNL     1      27.804  44.971  45.023  1.00  0.00     0.002 A 
HETATM   23  C9  UNL     1      27.003  45.941  44.460  1.00  0.00     0.001 A 
HETATM   24  C10 UNL     1      26.822  47.173  45.042  1.00  0.00     0.014 A 
HETATM   25  C12 UNL     1      27.763  48.391  47.340  1.00  0.00     0.221 A 
HETATM   26 CL4  UNL     1      26.277  48.794  48.249  1.00  0.00    -0.072 Cl
HETATM   27 CL5  UNL     1      28.609  49.851  46.730  1.00  0.00    -0.072 Cl
ENDBRANCH  15  18
ENDBRANCH   2  15
TORSDOF 9
ENDMDL
MODEL 5
REMARK VINA RESULT: -7.351865703      0.319      1.071
REMARK  9 active torsions:
REMARK  status: ('A' for Active; 'I' for Inactive)
REMARK    1  A    between atoms: C1_2  and  C2_3 
REMARK    2  A    between atoms: C1_2  and  C5_15 
REMARK    3  A    between atoms: C2_3  and  O2_4 
REMARK    4  A    between atoms: C2_3  and  C3_6 
REMARK    5  A    between atoms: C3_6  and  O3_7 
REMARK    6  A    between atoms: C3_6  and  N1_9 
REMARK    7  A    between atoms: N1_9  and  C4_11 
REMARK    8  A    between atoms: C5_15  and  O4_16 
REMARK    9  A    between atoms: C5_15  and  N2_18 
ROOT
HETATM    1  O1  UNL     1      30.814  48.907  50.008  1.00  0.00    -0.290 OA
HETATM    2  C1  UNL     1      30.477  49.000  48.861  1.00  0.00     0.207 C 
ENDROOT
BRANCH   2   3
HETATM    3  C2  UNL     1      31.540  49.053  47.796  1.00  0.00     0.240 C 
BRANCH   3   4
HETATM    4  O2  UNL     1      32.050  47.748  47.623  1.00  0.00    -0.383 OA
ATOM      5  H2  UNL     1      32.000  47.533  46.699  1.00  0.00     0.210 HD
ENDBRANCH   3   4
BRANCH   3   6
HETATM    6  C3  UNL     1      32.648  49.933  48.271  1.00  0.00     0.253 C 
BRANCH   6   7
HETATM    7  O3  UNL     1      33.384  49.215  49.250  1.00  0.00    -0.374 OA
ATOM      8  H3  UNL     1      33.340  49.705  50.064  1.00  0.00     0.212 HD
ENDBRANCH   6   7
BRANCH   6   9
HETATM    9  N1  UNL     1      33.553  50.397  47.285  1.00  0.00    -0.348 N 
ATOM     10  H1  UNL     1      33.821  49.793  46.508  1.00  0.00     0.160 HD
BRANCH   9  11
HETATM   11  C4  UNL     1      34.079  51.694  47.386  1.00  0.00     0.264 C 
HETATM   12 CL1  UNL     1      33.190  52.790  46.244  1.00  0.00    -0.061 Cl
HETATM   13 CL2  UNL     1      35.788  51.822  46.999  1.00  0.00    -0.061 Cl
HETATM   14 CL3  UNL     1      33.820  52.376  49.030  1.00  0.00    -0.061 Cl
ENDBRANCH   9  11
ENDBRANCH   6   9
ENDBRANCH   3   6
ENDBRANCH   2   3
BRANCH   2  15
HETATM   15  C5  UNL     1      29.080  49.061  48.477  1.00  0.00     0.297 C 
BRANCH  15  16
HETATM   16  O4  UNL     1      28.320  49.657  49.485  1.00  0.00    -0.369 OA
ATOM     17  H4  UNL     1      27.908  50.451  49.166  1.00  0.00     0.212 HD
ENDBRANCH  15  16
BRANCH  15  18
HETATM   18  N2  UNL     1      28.500  47.772  48.094  1.00  0.00    -0.308 N 
HETATM   19  C6  UNL     1      28.013  47.277  46.881  1.00  0.00     0.046 A 
HETATM   20  C7  UNL     1      27.722  47.426  45.508  1.00  0.00     0.030 A 
HETATM   21  C11 UNL     1      27.727  46.084  47.442  1.00  0.00     0.028 A 
HETATM   22  C8  UNL     1      27.171  46.411  44.759  1.00  0.00     0.002 A 
HETATM   23  C9  UNL     1      26.901  45.214  45.387  1.00  0.00     0.001 A 
HETATM   24  C10 UNL     1      27.162  45.008  46.720  1.00  0.00     0.014 A 
HETATM   25  C12 UNL     1      28.217  46.559  48.753  1.00  0.00     0.221 A 
HETATM   26 CL4  UNL     1      29.644  45.631  49.302  1.00  0.00    -0.072 Cl
HETATM   27 CL5  UNL     1      26.911  46.594  49.982  1.00  0.00    -0.072 Cl
ENDBRANCH  15  18
ENDBRANCH   2  15
TORSDOF 9
ENDMDL
