MODEL 1
REMARK VINA RESULT: -4.172629819      0.000      0.000
REMARK  3 active torsions:
REMARK  status: ('A' for Active; 'I' for Inactive)
REMARK    1  A    between atoms: C3_3  and  C4_4 
REMARK    2  A    between atoms: C5_5  and  C6_6 
REMARK    3  A    between atoms: C7_7  and  N1_8 
ROOT
HETATM    1  C1  UNL     1      26.660  10.717  60.399  1.00  0.00     0.113 C 
HETATM    2  C2  UNL     1      25.659  11.723  59.975  1.00  0.00    -0.097 C 
HETATM    3  C3  UNL     1      24.850  12.554  59.637  1.00  0.00    -0.015 C 
ENDROOT
BRANCH   3   4
HETATM    4  C4  UNL     1      23.919  13.544  59.245  1.00  0.00    -0.010 C 
HETATM    5  C5  UNL     1      23.128  14.395  58.908  1.00  0.00    -0.063 C 
BRANCH   5   6
HETATM    6  C6  UNL     1      22.197  15.406  58.492  1.00  0.00     0.082 C 
HETATM    7  C7  UNL     1      22.550  16.657  58.242  1.00  0.00     0.091 C 
BRANCH   7   8
HETATM    8  N1  UNL     1      23.905  17.048  58.381  1.00  0.00    -0.403 N 
HETATM    9  C8  UNL     1      24.693  17.234  57.184  1.00  0.00     0.145 C 
ATOM     10  H1  UNL     1      24.314  17.194  59.304  1.00  0.00     0.158 HD
ENDBRANCH   7   8
ENDBRANCH   5   6
ENDBRANCH   3   4
TORSDOF 3
ENDMDL
MODEL 2
REMARK VINA RESULT: -3.806709614      1.234      1.493
REMARK  3 active torsions:
REMARK  status: ('A' for Active; 'I' for Inactive)
REMARK    1  A    between atoms: C3_3  and  C4_4 
REMARK    2  A    between atoms: C5_5  and  C6_6 
REMARK    3  A    between atoms: C7_7  and  N1_8 
ROOT
HETATM    1  C1  UNL     1      25.474  10.546  60.174  1.00  0.00     0.113 C 
HETATM    2  C2  UNL     1      25.012  11.884  59.740  1.00  0.00    -0.097 C 
HETATM    3  C3  UNL     1      24.644  12.974  59.373  1.00  0.00    -0.015 C 
ENDROOT
BRANCH   3   4
HETATM    4  C4  UNL     1      24.218  14.246  58.921  1.00  0.00    -0.010 C 
HETATM    5  C5  UNL     1      23.860  15.334  58.535  1.00  0.00    -0.063 C 
BRANCH   5   6
HETATM    6  C6  UNL     1      23.449  16.627  58.064  1.00  0.00     0.082 C 
HETATM    7  C7  UNL     1      24.264  17.467  57.446  1.00  0.00     0.091 C 
BRANCH   7   8
HETATM    8  N1  UNL     1      25.615  17.100  57.223  1.00  0.00    -0.403 N 
HETATM    9  C8  UNL     1      26.149  17.225  55.885  1.00  0.00     0.145 C 
ATOM     10  H1  UNL     1      26.196  16.757  57.987  1.00  0.00     0.158 HD
ENDBRANCH   7   8
ENDBRANCH   5   6
ENDBRANCH   3   4
TORSDOF 3
ENDMDL
MODEL 3
REMARK VINA RESULT: -3.767221279      3.370      5.391
REMARK  3 active torsions:
REMARK  status: ('A' for Active; 'I' for Inactive)
REMARK    1  A    between atoms: C3_3  and  C4_4 
REMARK    2  A    between atoms: C5_5  and  C6_6 
REMARK    3  A    between atoms: C7_7  and  N1_8 
ROOT
HETATM    1  C1  UNL     1      24.525  17.431  57.311  1.00  0.00     0.113 C 
HETATM    2  C2  UNL     1      23.891  16.228  57.900  1.00  0.00    -0.097 C 
HETATM    3  C3  UNL     1      23.371  15.244  58.367  1.00  0.00    -0.015 C 
ENDROOT
BRANCH   3   4
HETATM    4  C4  UNL     1      22.762  14.080  58.893  1.00  0.00    -0.010 C 
HETATM    5  C5  UNL     1      22.238  13.085  59.337  1.00  0.00    -0.063 C 
BRANCH   5   6
HETATM    6  C6  UNL     1      21.618  11.894  59.848  1.00  0.00     0.082 C 
HETATM    7  C7  UNL     1      20.687  11.222  59.191  1.00  0.00     0.091 C 
BRANCH   7   8
HETATM    8  N1  UNL     1      20.261  11.673  57.916  1.00  0.00    -0.403 N 
HETATM    9  C8  UNL     1      19.575  10.740  57.051  1.00  0.00     0.145 C 
ATOM     10  H1  UNL     1      20.434  12.632  57.617  1.00  0.00     0.158 HD
ENDBRANCH   7   8
ENDBRANCH   5   6
ENDBRANCH   3   4
TORSDOF 3
ENDMDL
MODEL 4
REMARK VINA RESULT: -3.739361763      2.436      2.757
REMARK  3 active torsions:
REMARK  status: ('A' for Active; 'I' for Inactive)
REMARK    1  A    between atoms: C3_3  and  C4_4 
REMARK    2  A    between atoms: C5_5  and  C6_6 
REMARK    3  A    between atoms: C7_7  and  N1_8 
ROOT
HETATM    1  C1  UNL     1      23.107   9.729  55.875  1.00  0.00     0.113 C 
HETATM    2  C2  UNL     1      23.006  10.999  56.629  1.00  0.00    -0.097 C 
HETATM    3  C3  UNL     1      22.909  12.036  57.241  1.00  0.00    -0.015 C 
ENDROOT
BRANCH   3   4
HETATM    4  C4  UNL     1      22.773  13.248  57.959  1.00  0.00    -0.010 C 
HETATM    5  C5  UNL     1      22.662  14.284  58.573  1.00  0.00    -0.063 C 
BRANCH   5   6
HETATM    6  C6  UNL     1      22.541  15.523  59.288  1.00  0.00     0.082 C 
HETATM    7  C7  UNL     1      22.889  16.693  58.777  1.00  0.00     0.091 C 
BRANCH   7   8
HETATM    8  N1  UNL     1      23.410  16.758  57.459  1.00  0.00    -0.403 N 
HETATM    9  C8  UNL     1      24.799  17.120  57.287  1.00  0.00     0.145 C 
ATOM     10  H1  UNL     1      22.819  16.555  56.654  1.00  0.00     0.158 HD
ENDBRANCH   7   8
ENDBRANCH   5   6
ENDBRANCH   3   4
TORSDOF 3
ENDMDL
MODEL 5
REMARK VINA RESULT: -3.731165038      2.363      2.886
REMARK  3 active torsions:
REMARK  status: ('A' for Active; 'I' for Inactive)
REMARK    1  A    between atoms: C3_3  and  C4_4 
REMARK    2  A    between atoms: C5_5  and  C6_6 
REMARK    3  A    between atoms: C7_7  and  N1_8 
ROOT
HETATM    1  C1  UNL     1      20.994  10.735  60.549  1.00  0.00     0.113 C 
HETATM    2  C2  UNL     1      21.768  11.888  60.034  1.00  0.00    -0.097 C 
HETATM    3  C3  UNL     1      22.388  12.830  59.603  1.00  0.00    -0.015 C 
ENDROOT
BRANCH   3   4
HETATM    4  C4  UNL     1      23.096  13.941  59.086  1.00  0.00    -0.010 C 
HETATM    5  C5  UNL     1      23.705  14.887  58.642  1.00  0.00    -0.063 C 
BRANCH   5   6
HETATM    6  C6  UNL     1      24.424  16.003  58.096  1.00  0.00     0.082 C 
HETATM    7  C7  UNL     1      23.832  17.095  57.641  1.00  0.00     0.091 C 
BRANCH   7   8
HETATM    8  N1  UNL     1      22.418  17.198  57.681  1.00  0.00    -0.403 N 
HETATM    9  C8  UNL     1      21.792  18.323  57.023  1.00  0.00     0.145 C 
ATOM     10  H1  UNL     1      21.857  16.497  58.163  1.00  0.00     0.158 HD
ENDBRANCH   7   8
ENDBRANCH   5   6
ENDBRANCH   3   4
TORSDOF 3
ENDMDL
