MODEL 1
REMARK VINA RESULT: -3.772413317      0.000      0.000
REMARK  1 active torsions:
REMARK  status: ('A' for Active; 'I' for Inactive)
REMARK    1  A    between atoms: C2_2  and  N1_4 
ROOT
HETATM    1  N1  UNL     1      23.300  14.032  58.349  1.00  0.00     0.042 N 
HETATM    2  O1  UNL     1      23.750  13.480  57.187  1.00  0.00    -0.059 OA
HETATM    3  C4  UNL     1      21.928  13.696  58.668  1.00  0.00     0.321 C 
HETATM    4  C5  UNL     1      22.427  12.594  59.586  1.00  0.00     0.074 C 
HETATM    5  C6  UNL     1      23.777  13.316  59.521  1.00  0.00     0.321 C 
ENDROOT
BRANCH   1   6
HETATM    6  C2  UNL     1      23.554  15.422  58.337  1.00  0.00     0.162 C 
HETATM    7  C1  UNL     1      24.565  15.887  57.647  1.00  0.00     0.055 C 
HETATM    8  C3  UNL     1      22.682  16.330  59.098  1.00  0.00     0.085 C 
ENDBRANCH   1   6
TORSDOF 1
ENDMDL
MODEL 2
REMARK VINA RESULT: -3.766506529      1.269      1.776
REMARK  1 active torsions:
REMARK  status: ('A' for Active; 'I' for Inactive)
REMARK    1  A    between atoms: C2_2  and  N1_4 
ROOT
HETATM    1  N1  UNL     1      23.398  14.010  58.837  1.00  0.00     0.042 N 
HETATM    2  O1  UNL     1      24.491  13.869  59.639  1.00  0.00    -0.059 OA
HETATM    3  C4  UNL     1      23.321  13.033  57.770  1.00  0.00     0.321 C 
HETATM    4  C5  UNL     1      22.376  12.201  58.620  1.00  0.00     0.074 C 
HETATM    5  C6  UNL     1      22.191  13.476  59.449  1.00  0.00     0.321 C 
ENDROOT
BRANCH   1   6
HETATM    6  C2  UNL     1      23.314  15.347  58.387  1.00  0.00     0.162 C 
HETATM    7  C1  UNL     1      22.170  15.979  58.453  1.00  0.00     0.055 C 
HETATM    8  C3  UNL     1      24.512  16.013  57.853  1.00  0.00     0.085 C 
ENDBRANCH   1   6
TORSDOF 1
ENDMDL
MODEL 3
REMARK VINA RESULT: -3.715792122      1.110      1.212
REMARK  1 active torsions:
REMARK  status: ('A' for Active; 'I' for Inactive)
REMARK    1  A    between atoms: C2_2  and  N1_4 
ROOT
HETATM    1  N1  UNL     1      23.618  14.101  58.271  1.00  0.00     0.042 N 
HETATM    2  O1  UNL     1      24.560  14.402  57.333  1.00  0.00    -0.059 OA
HETATM    3  C4  UNL     1      22.779  12.973  57.922  1.00  0.00     0.321 C 
HETATM    4  C5  UNL     1      23.662  12.074  58.770  1.00  0.00     0.074 C 
HETATM    5  C6  UNL     1      24.175  13.374  59.400  1.00  0.00     0.321 C 
ENDROOT
BRANCH   1   6
HETATM    6  C2  UNL     1      22.890  15.268  58.596  1.00  0.00     0.162 C 
HETATM    7  C1  UNL     1      23.488  16.432  58.562  1.00  0.00     0.055 C 
HETATM    8  C3  UNL     1      21.470  15.163  58.968  1.00  0.00     0.085 C 
ENDBRANCH   1   6
TORSDOF 1
ENDMDL
MODEL 4
REMARK VINA RESULT: -3.715597723      1.513      2.888
REMARK  1 active torsions:
REMARK  status: ('A' for Active; 'I' for Inactive)
REMARK    1  A    between atoms: C2_2  and  N1_4 
ROOT
HETATM    1  N1  UNL     1      23.505  14.218  58.807  1.00  0.00     0.042 N 
HETATM    2  O1  UNL     1      24.353  13.797  59.787  1.00  0.00    -0.059 OA
HETATM    3  C4  UNL     1      22.609  15.279  59.219  1.00  0.00     0.321 C 
HETATM    4  C5  UNL     1      23.552  16.295  58.600  1.00  0.00     0.074 C 
HETATM    5  C6  UNL     1      24.157  15.101  57.854  1.00  0.00     0.321 C 
ENDROOT
BRANCH   1   6
HETATM    6  C2  UNL     1      22.841  13.102  58.250  1.00  0.00     0.162 C 
HETATM    7  C1  UNL     1      23.450  12.374  57.347  1.00  0.00     0.055 C 
HETATM    8  C3  UNL     1      21.477  12.769  58.689  1.00  0.00     0.085 C 
ENDBRANCH   1   6
TORSDOF 1
ENDMDL
MODEL 5
REMARK VINA RESULT: -3.713419631      1.093      1.531
REMARK  1 active torsions:
REMARK  status: ('A' for Active; 'I' for Inactive)
REMARK    1  A    between atoms: C2_2  and  N1_4 
ROOT
HETATM    1  N1  UNL     1      23.522  14.015  58.253  1.00  0.00     0.042 N 
HETATM    2  O1  UNL     1      24.503  14.307  57.353  1.00  0.00    -0.059 OA
HETATM    3  C4  UNL     1      22.694  12.887  57.878  1.00  0.00     0.321 C 
HETATM    4  C5  UNL     1      23.538  11.991  58.766  1.00  0.00     0.074 C 
HETATM    5  C6  UNL     1      24.030  13.292  59.409  1.00  0.00     0.321 C 
ENDROOT
BRANCH   1   6
HETATM    6  C2  UNL     1      22.786  15.186  58.541  1.00  0.00     0.162 C 
HETATM    7  C1  UNL     1      21.542  15.085  58.937  1.00  0.00     0.055 C 
HETATM    8  C3  UNL     1      23.424  16.504  58.395  1.00  0.00     0.085 C 
ENDBRANCH   1   6
TORSDOF 1
ENDMDL
