MODEL 1
REMARK VINA RESULT: -5.634921778      0.000      0.000
REMARK  2 active torsions:
REMARK  status: ('A' for Active; 'I' for Inactive)
REMARK    1  A    between atoms: N1_1  and  N2_4 
REMARK       I    between atoms: N3_6  and  C1_8 
REMARK    2  A    between atoms: C1_8  and  C2_10 
ROOT
HETATM    1  N2  UNL     1      22.446  18.170  57.158  1.00  0.00    -0.247 N 
ATOM      2  H2  UNL     1      22.608  18.855  57.895  1.00  0.00     0.207 HD
HETATM    3  N3  UNL     1      23.465  17.477  57.185  1.00  0.00    -0.256 N 
ATOM      4  H3  UNL     1      24.204  17.598  56.493  1.00  0.00     0.191 HD
HETATM    5  C1  UNL     1      23.572  16.508  58.212  1.00  0.00     0.241 C 
HETATM    6  O1  UNL     1      23.091  16.772  59.335  1.00  0.00    -0.271 OA
ENDROOT
BRANCH   1   7
HETATM    7  N1  UNL     1      21.322  18.485  56.715  1.00  0.00    -0.331 N 
ATOM      8  H12 UNL     1      20.755  17.709  57.056  1.00  0.00     0.178 HD
ATOM      9  H11 UNL     1      20.680  19.093  56.205  1.00  0.00     0.178 HD
ENDBRANCH   1   7
BRANCH   5  10
HETATM   10  C2  UNL     1      24.230  15.194  58.011  1.00  0.00     0.080 A 
HETATM   11  C3  UNL     1      24.266  14.208  59.124  1.00  0.00     0.015 A 
HETATM   12  C4  UNL     1      23.245  14.030  58.063  1.00  0.00     0.015 A 
ENDBRANCH   5  10
TORSDOF 2
ENDMDL
MODEL 2
REMARK VINA RESULT: -5.520322105      2.507      2.844
REMARK  2 active torsions:
REMARK  status: ('A' for Active; 'I' for Inactive)
REMARK    1  A    between atoms: N1_1  and  N2_4 
REMARK       I    between atoms: N3_6  and  C1_8 
REMARK    2  A    between atoms: C1_8  and  C2_10 
ROOT
HETATM    1  N2  UNL     1      26.140  17.306  56.597  1.00  0.00    -0.247 N 
ATOM      2  H2  UNL     1      25.987  18.315  56.607  1.00  0.00     0.207 HD
HETATM    3  N3  UNL     1      25.743  16.947  57.707  1.00  0.00    -0.256 N 
ATOM      4  H3  UNL     1      26.398  16.734  58.458  1.00  0.00     0.191 HD
HETATM    5  C1  UNL     1      24.343  16.842  57.901  1.00  0.00     0.241 C 
HETATM    6  O1  UNL     1      23.598  17.659  57.318  1.00  0.00    -0.271 OA
ENDROOT
BRANCH   1   7
HETATM    7  N1  UNL     1      26.629  17.102  55.466  1.00  0.00    -0.331 N 
ATOM      8  H12 UNL     1      25.862  16.607  55.011  1.00  0.00     0.178 HD
ATOM      9  H11 UNL     1      27.371  17.165  54.768  1.00  0.00     0.178 HD
ENDBRANCH   1   7
BRANCH   5  10
HETATM   10  C2  UNL     1      23.728  15.805  58.763  1.00  0.00     0.080 A 
HETATM   11  C3  UNL     1      22.368  15.292  58.446  1.00  0.00     0.015 A 
HETATM   12  C4  UNL     1      23.537  14.476  58.039  1.00  0.00     0.015 A 
ENDBRANCH   5  10
TORSDOF 2
ENDMDL
MODEL 3
REMARK VINA RESULT: -5.425453641      0.671      1.025
REMARK  2 active torsions:
REMARK  status: ('A' for Active; 'I' for Inactive)
REMARK    1  A    between atoms: N1_1  and  N2_4 
REMARK       I    between atoms: N3_6  and  C1_8 
REMARK    2  A    between atoms: C1_8  and  C2_10 
ROOT
HETATM    1  N2  UNL     1      22.439  17.983  57.272  1.00  0.00    -0.247 N 
ATOM      2  H2  UNL     1      22.857  18.697  57.868  1.00  0.00     0.207 HD
HETATM    3  N3  UNL     1      23.141  16.992  57.479  1.00  0.00    -0.256 N 
ATOM      4  H3  UNL     1      23.854  16.702  56.810  1.00  0.00     0.191 HD
HETATM    5  C1  UNL     1      22.923  16.272  58.679  1.00  0.00     0.241 C 
HETATM    6  O1  UNL     1      22.602  16.908  59.706  1.00  0.00    -0.271 OA
ENDROOT
BRANCH   1   7
HETATM    7  N1  UNL     1      21.490  18.585  56.726  1.00  0.00    -0.331 N 
ATOM      8  H12 UNL     1      20.866  18.724  57.521  1.00  0.00     0.178 HD
ATOM      9  H11 UNL     1      21.015  19.004  55.926  1.00  0.00     0.178 HD
ENDBRANCH   1   7
BRANCH   5  10
HETATM   10  C2  UNL     1      23.059  14.798  58.767  1.00  0.00     0.080 A 
HETATM   11  C3  UNL     1      23.895  14.074  57.772  1.00  0.00     0.015 A 
HETATM   12  C4  UNL     1      24.480  14.359  59.104  1.00  0.00     0.015 A 
ENDBRANCH   5  10
TORSDOF 2
ENDMDL
MODEL 4
REMARK VINA RESULT: -5.318533794      2.419      2.835
REMARK  2 active torsions:
REMARK  status: ('A' for Active; 'I' for Inactive)
REMARK    1  A    between atoms: N1_1  and  N2_4 
REMARK       I    between atoms: N3_6  and  C1_8 
REMARK    2  A    between atoms: C1_8  and  C2_10 
ROOT
HETATM    1  N2  UNL     1      25.977  17.133  56.929  1.00  0.00    -0.247 N 
ATOM      2  H2  UNL     1      26.052  18.082  57.295  1.00  0.00     0.207 HD
HETATM    3  N3  UNL     1      25.282  16.558  57.769  1.00  0.00    -0.256 N 
ATOM      4  H3  UNL     1      25.698  15.935  58.461  1.00  0.00     0.191 HD
HETATM    5  C1  UNL     1      23.886  16.795  57.739  1.00  0.00     0.241 C 
HETATM    6  O1  UNL     1      23.481  17.933  57.417  1.00  0.00    -0.271 OA
ENDROOT
BRANCH   1   7
HETATM    7  N1  UNL     1      26.640  17.180  55.872  1.00  0.00    -0.331 N 
ATOM      8  H12 UNL     1      26.323  16.329  55.407  1.00  0.00     0.178 HD
ATOM      9  H11 UNL     1      27.315  17.607  55.237  1.00  0.00     0.178 HD
ENDBRANCH   1   7
BRANCH   5  10
HETATM   10  C2  UNL     1      22.887  15.751  58.073  1.00  0.00     0.080 A 
HETATM   11  C3  UNL     1      23.192  14.748  59.128  1.00  0.00     0.015 A 
HETATM   12  C4  UNL     1      22.331  15.901  59.485  1.00  0.00     0.015 A 
ENDBRANCH   5  10
TORSDOF 2
ENDMDL
MODEL 5
REMARK VINA RESULT: -5.136559175      2.149      2.514
REMARK  2 active torsions:
REMARK  status: ('A' for Active; 'I' for Inactive)
REMARK    1  A    between atoms: N1_1  and  N2_4 
REMARK       I    between atoms: N3_6  and  C1_8 
REMARK    2  A    between atoms: C1_8  and  C2_10 
ROOT
HETATM    1  N2  UNL     1      25.163  17.492  57.264  1.00  0.00    -0.247 N 
ATOM      2  H2  UNL     1      24.848  18.456  57.159  1.00  0.00     0.207 HD
HETATM    3  N3  UNL     1      24.664  17.145  58.336  1.00  0.00    -0.256 N 
ATOM      4  H3  UNL     1      25.223  17.101  59.188  1.00  0.00     0.191 HD
HETATM    5  C1  UNL     1      23.288  16.810  58.341  1.00  0.00     0.241 C 
HETATM    6  O1  UNL     1      22.517  17.442  57.587  1.00  0.00    -0.271 OA
ENDROOT
BRANCH   1   7
HETATM    7  N1  UNL     1      25.847  17.300  56.236  1.00  0.00    -0.331 N 
ATOM      8  H12 UNL     1      25.982  16.290  56.280  1.00  0.00     0.178 HD
ATOM      9  H11 UNL     1      26.332  17.608  55.393  1.00  0.00     0.178 HD
ENDBRANCH   1   7
BRANCH   5  10
HETATM   10  C2  UNL     1      22.725  15.742  59.202  1.00  0.00     0.080 A 
HETATM   11  C3  UNL     1      21.414  15.130  58.858  1.00  0.00     0.015 A 
HETATM   12  C4  UNL     1      22.648  14.395  58.492  1.00  0.00     0.015 A 
ENDBRANCH   5  10
TORSDOF 2
ENDMDL
