MODEL 1
REMARK VINA RESULT: -4.982269748      0.000      0.000
REMARK  2 active torsions:
REMARK  status: ('A' for Active; 'I' for Inactive)
REMARK    1  A    between atoms: C2_2  and  C3_3 
REMARK    2  A    between atoms: C6_6  and  C7_7 
ROOT
HETATM    1  C3  UNL     1      21.944  12.922  58.399  1.00  0.00     0.017 A 
HETATM    2  C4  UNL     1      22.732  13.489  59.499  1.00  0.00    -0.000 A 
HETATM    3  C5  UNL     1      23.965  14.260  59.143  1.00  0.00     0.020 A 
HETATM    4  C6  UNL     1      23.146  15.142  58.228  1.00  0.00     0.080 A 
HETATM    5  C8  UNL     1      21.917  14.388  58.679  1.00  0.00     0.011 A 
ENDROOT
BRANCH   4   6
HETATM    6  C7  UNL     1      23.183  16.565  58.537  1.00  0.00     0.235 C 
HETATM    7  N1  UNL     1      23.776  17.475  57.632  1.00  0.00    -0.062 NA
HETATM    8  O1  UNL     1      22.699  17.015  59.598  1.00  0.00    -0.276 OA
ENDBRANCH   4   6
BRANCH   1   9
HETATM    9  C2  UNL     1      20.799  12.059  58.764  1.00  0.00    -0.031 C 
HETATM   10  C1  UNL     1      20.250  11.188  57.949  1.00  0.00     0.007 C 
ENDBRANCH   1   9
TORSDOF 2
ENDMDL
MODEL 2
REMARK VINA RESULT: -4.773165607      1.480      1.902
REMARK  2 active torsions:
REMARK  status: ('A' for Active; 'I' for Inactive)
REMARK    1  A    between atoms: C2_2  and  C3_3 
REMARK    2  A    between atoms: C6_6  and  C7_7 
ROOT
HETATM    1  C3  UNL     1      22.773  13.910  59.396  1.00  0.00     0.017 A 
HETATM    2  C4  UNL     1      21.890  15.059  59.172  1.00  0.00    -0.000 A 
HETATM    3  C5  UNL     1      22.412  16.415  59.532  1.00  0.00     0.020 A 
HETATM    4  C6  UNL     1      23.625  16.176  58.661  1.00  0.00     0.080 A 
HETATM    5  C8  UNL     1      23.019  14.851  58.263  1.00  0.00     0.011 A 
ENDROOT
BRANCH   4   6
HETATM    6  C7  UNL     1      23.825  17.145  57.592  1.00  0.00     0.235 C 
HETATM    7  N1  UNL     1      25.057  17.201  56.903  1.00  0.00    -0.062 NA
HETATM    8  O1  UNL     1      22.923  17.944  57.260  1.00  0.00    -0.276 OA
ENDBRANCH   4   6
BRANCH   1   9
HETATM    9  C2  UNL     1      22.206  12.565  59.153  1.00  0.00    -0.031 C 
HETATM   10  C1  UNL     1      21.769  11.773  60.104  1.00  0.00     0.007 C 
ENDBRANCH   1   9
TORSDOF 2
ENDMDL
MODEL 3
REMARK VINA RESULT: -4.652316256      1.647      2.026
REMARK  2 active torsions:
REMARK  status: ('A' for Active; 'I' for Inactive)
REMARK    1  A    between atoms: C2_2  and  C3_3 
REMARK    2  A    between atoms: C6_6  and  C7_7 
ROOT
HETATM    1  C3  UNL     1      22.844  13.867  59.395  1.00  0.00     0.017 A 
HETATM    2  C4  UNL     1      21.964  15.009  59.124  1.00  0.00    -0.000 A 
HETATM    3  C5  UNL     1      22.466  16.372  59.488  1.00  0.00     0.020 A 
HETATM    4  C6  UNL     1      23.712  16.129  58.667  1.00  0.00     0.080 A 
HETATM    5  C8  UNL     1      23.128  14.796  58.262  1.00  0.00     0.011 A 
ENDROOT
BRANCH   4   6
HETATM    6  C7  UNL     1      23.949  17.086  57.595  1.00  0.00     0.235 C 
HETATM    7  N1  UNL     1      22.954  18.028  57.248  1.00  0.00    -0.062 NA
HETATM    8  O1  UNL     1      25.025  17.100  56.960  1.00  0.00    -0.276 OA
ENDBRANCH   4   6
BRANCH   1   9
HETATM    9  C2  UNL     1      22.292  12.516  59.147  1.00  0.00    -0.031 C 
HETATM   10  C1  UNL     1      21.823  11.733  60.090  1.00  0.00     0.007 C 
ENDBRANCH   1   9
TORSDOF 2
ENDMDL
MODEL 4
REMARK VINA RESULT: -4.618890225      1.793      2.265
REMARK  2 active torsions:
REMARK  status: ('A' for Active; 'I' for Inactive)
REMARK    1  A    between atoms: C2_2  and  C3_3 
REMARK    2  A    between atoms: C6_6  and  C7_7 
ROOT
HETATM    1  C3  UNL     1      23.494  13.887  59.466  1.00  0.00     0.017 A 
HETATM    2  C4  UNL     1      22.573  14.300  58.402  1.00  0.00    -0.000 A 
HETATM    3  C5  UNL     1      21.981  15.673  58.491  1.00  0.00     0.020 A 
HETATM    4  C6  UNL     1      23.370  16.261  58.598  1.00  0.00     0.080 A 
HETATM    5  C8  UNL     1      23.923  14.866  58.423  1.00  0.00     0.011 A 
ENDROOT
BRANCH   4   6
HETATM    6  C7  UNL     1      23.717  17.230  57.567  1.00  0.00     0.235 C 
HETATM    7  N1  UNL     1      24.983  17.182  56.941  1.00  0.00    -0.062 NA
HETATM    8  O1  UNL     1      22.915  18.121  57.214  1.00  0.00    -0.276 OA
ENDBRANCH   4   6
BRANCH   1   9
HETATM    9  C2  UNL     1      23.977  12.489  59.437  1.00  0.00    -0.031 C 
HETATM   10  C1  UNL     1      23.200  11.443  59.594  1.00  0.00     0.007 C 
ENDBRANCH   1   9
TORSDOF 2
ENDMDL
MODEL 5
REMARK VINA RESULT: -4.611033092      1.666      2.143
REMARK  2 active torsions:
REMARK  status: ('A' for Active; 'I' for Inactive)
REMARK    1  A    between atoms: C2_2  and  C3_3 
REMARK    2  A    between atoms: C6_6  and  C7_7 
ROOT
HETATM    1  C3  UNL     1      23.471  13.270  59.443  1.00  0.00     0.017 A 
HETATM    2  C4  UNL     1      22.123  13.826  59.280  1.00  0.00    -0.000 A 
HETATM    3  C5  UNL     1      21.871  15.202  59.815  1.00  0.00     0.020 A 
HETATM    4  C6  UNL     1      23.039  15.725  59.010  1.00  0.00     0.080 A 
HETATM    5  C8  UNL     1      23.203  14.338  58.435  1.00  0.00     0.011 A 
ENDROOT
BRANCH   4   6
HETATM    6  C7  UNL     1      22.718  16.786  58.064  1.00  0.00     0.235 C 
HETATM    7  N1  UNL     1      23.725  17.670  57.616  1.00  0.00    -0.062 NA
HETATM    8  O1  UNL     1      21.557  16.941  57.629  1.00  0.00    -0.276 OA
ENDBRANCH   4   6
BRANCH   1   9
HETATM    9  C2  UNL     1      23.677  11.866  59.023  1.00  0.00    -0.031 C 
HETATM   10  C1  UNL     1      24.241  10.953  59.777  1.00  0.00     0.007 C 
ENDBRANCH   1   9
TORSDOF 2
ENDMDL
