MODEL 1
REMARK VINA RESULT: -5.428529801      0.000      0.000
REMARK  2 active torsions:
REMARK  status: ('A' for Active; 'I' for Inactive)
REMARK    1  A    between atoms: C2_2  and  C3_10 
REMARK    2  A    between atoms: N1_3  and  N2_5 
ROOT
HETATM    1  C1  UNL     1      24.567  15.916  58.459  1.00  0.00     0.065 C 
HETATM    2  C2  UNL     1      23.110  16.126  58.123  1.00  0.00     0.005 C 
HETATM    3  N1  UNL     1      22.822  17.258  57.631  1.00  0.00    -0.295 N 
ATOM      4  H1  UNL     1      23.606  17.900  57.516  1.00  0.00     0.187 HD
ENDROOT
BRANCH   3   5
HETATM    5  N2  UNL     1      21.602  17.738  57.230  1.00  0.00    -0.249 N 
HETATM    6  N3  UNL     1      21.483  18.916  56.791  1.00  0.00    -0.331 N 
ATOM      7  H32 UNL     1      22.314  19.504  56.739  1.00  0.00     0.178 HD
ATOM      8  H31 UNL     1      20.575  19.273  56.493  1.00  0.00     0.178 HD
ATOM      9  H2  UNL     1      20.781  17.136  57.288  1.00  0.00     0.207 HD
ENDBRANCH   3   5
BRANCH   2  10
HETATM   10  C3  UNL     1      22.214  15.009  58.403  1.00  0.00     0.032 C 
HETATM   11  C4  UNL     1      22.916  13.659  58.186  1.00  0.00     0.010 C 
HETATM   12  C5  UNL     1      22.007  13.140  59.308  1.00  0.00     0.001 C 
HETATM   13  C6  UNL     1      22.057  14.581  59.845  1.00  0.00     0.010 C 
ENDBRANCH   2  10
TORSDOF 2
ENDMDL
MODEL 2
REMARK VINA RESULT: -5.274659388      1.712      2.635
REMARK  2 active torsions:
REMARK  status: ('A' for Active; 'I' for Inactive)
REMARK    1  A    between atoms: C2_2  and  C3_10 
REMARK    2  A    between atoms: N1_3  and  N2_5 
ROOT
HETATM    1  C1  UNL     1      21.838  16.894  58.027  1.00  0.00     0.065 C 
HETATM    2  C2  UNL     1      23.293  16.517  58.172  1.00  0.00     0.005 C 
HETATM    3  N1  UNL     1      24.119  17.319  57.640  1.00  0.00    -0.295 N 
ATOM      4  H1  UNL     1      23.708  18.129  57.175  1.00  0.00     0.187 HD
ENDROOT
BRANCH   3   5
HETATM    5  N2  UNL     1      25.487  17.248  57.605  1.00  0.00    -0.249 N 
HETATM    6  N3  UNL     1      26.105  17.211  56.504  1.00  0.00    -0.331 N 
ATOM      7  H32 UNL     1      25.564  17.235  55.640  1.00  0.00     0.178 HD
ATOM      8  H31 UNL     1      27.123  17.159  56.478  1.00  0.00     0.178 HD
ATOM      9  H2  UNL     1      26.013  17.226  58.479  1.00  0.00     0.207 HD
ENDBRANCH   3   5
BRANCH   2  10
HETATM   10  C3  UNL     1      23.574  15.285  58.901  1.00  0.00     0.032 C 
HETATM   11  C4  UNL     1      22.311  14.740  59.588  1.00  0.00     0.010 C 
HETATM   12  C5  UNL     1      22.924  13.353  59.350  1.00  0.00     0.001 C 
HETATM   13  C6  UNL     1      23.581  13.993  58.115  1.00  0.00     0.010 C 
ENDBRANCH   2  10
TORSDOF 2
ENDMDL
MODEL 3
REMARK VINA RESULT: -5.158926869      1.862      2.460
REMARK  2 active torsions:
REMARK  status: ('A' for Active; 'I' for Inactive)
REMARK    1  A    between atoms: C2_2  and  C3_10 
REMARK    2  A    between atoms: N1_3  and  N2_5 
ROOT
HETATM    1  C1  UNL     1      24.259  13.658  57.710  1.00  0.00     0.065 C 
HETATM    2  C2  UNL     1      24.220  15.087  58.193  1.00  0.00     0.005 C 
HETATM    3  N1  UNL     1      25.125  15.844  57.730  1.00  0.00    -0.295 N 
ATOM      4  H1  UNL     1      25.778  15.403  57.082  1.00  0.00     0.187 HD
ENDROOT
BRANCH   3   5
HETATM    5  N2  UNL     1      25.346  17.174  57.978  1.00  0.00    -0.249 N 
HETATM    6  N3  UNL     1      24.622  18.061  57.447  1.00  0.00    -0.331 N 
ATOM      7  H32 UNL     1      23.867  17.768  56.827  1.00  0.00     0.178 HD
ATOM      8  H31 UNL     1      24.786  19.050  57.632  1.00  0.00     0.178 HD
ATOM      9  H2  UNL     1      26.105  17.450  58.601  1.00  0.00     0.207 HD
ENDBRANCH   3   5
BRANCH   2  10
HETATM   10  C3  UNL     1      23.152  15.425  59.129  1.00  0.00     0.032 C 
HETATM   11  C4  UNL     1      21.884  15.882  58.390  1.00  0.00     0.010 C 
HETATM   12  C5  UNL     1      21.118  15.261  59.567  1.00  0.00     0.001 C 
HETATM   13  C6  UNL     1      22.308  14.291  59.667  1.00  0.00     0.010 C 
ENDBRANCH   2  10
TORSDOF 2
ENDMDL
MODEL 4
REMARK VINA RESULT: -5.084918719      1.356      2.212
REMARK  2 active torsions:
REMARK  status: ('A' for Active; 'I' for Inactive)
REMARK    1  A    between atoms: C2_2  and  C3_10 
REMARK    2  A    between atoms: N1_3  and  N2_5 
ROOT
HETATM    1  C1  UNL     1      21.593  15.330  59.460  1.00  0.00     0.065 C 
HETATM    2  C2  UNL     1      22.650  15.748  58.466  1.00  0.00     0.005 C 
HETATM    3  N1  UNL     1      22.635  16.972  58.137  1.00  0.00    -0.295 N 
ATOM      4  H1  UNL     1      21.911  17.537  58.579  1.00  0.00     0.187 HD
ENDROOT
BRANCH   3   5
HETATM    5  N2  UNL     1      23.458  17.640  57.268  1.00  0.00    -0.249 N 
HETATM    6  N3  UNL     1      24.580  18.078  57.647  1.00  0.00    -0.331 N 
ATOM      7  H32 UNL     1      24.863  17.924  58.615  1.00  0.00     0.178 HD
ATOM      8  H31 UNL     1      25.193  18.575  57.000  1.00  0.00     0.178 HD
ATOM      9  H2  UNL     1      23.161  17.785  56.303  1.00  0.00     0.207 HD
ENDBRANCH   3   5
BRANCH   2  10
HETATM   10  C3  UNL     1      23.558  14.701  58.008  1.00  0.00     0.032 C 
HETATM   11  C4  UNL     1      24.463  14.206  59.148  1.00  0.00     0.010 C 
HETATM   12  C5  UNL     1      24.419  12.848  58.433  1.00  0.00     0.001 C 
HETATM   13  C6  UNL     1      23.025  13.287  57.952  1.00  0.00     0.010 C 
ENDBRANCH   2  10
TORSDOF 2
ENDMDL
MODEL 5
REMARK VINA RESULT: -4.804837911      1.790      2.042
REMARK  2 active torsions:
REMARK  status: ('A' for Active; 'I' for Inactive)
REMARK    1  A    between atoms: C2_2  and  C3_10 
REMARK    2  A    between atoms: N1_3  and  N2_5 
ROOT
HETATM    1  C1  UNL     1      25.146  13.507  58.089  1.00  0.00     0.065 C 
HETATM    2  C2  UNL     1      24.197  14.676  58.202  1.00  0.00     0.005 C 
HETATM    3  N1  UNL     1      24.741  15.822  58.199  1.00  0.00    -0.295 N 
ATOM      4  H1  UNL     1      25.758  15.825  58.120  1.00  0.00     0.187 HD
ENDROOT
BRANCH   3   5
HETATM    5  N2  UNL     1      24.150  17.055  58.286  1.00  0.00    -0.249 N 
HETATM    6  N3  UNL     1      24.609  18.039  57.640  1.00  0.00    -0.331 N 
ATOM      7  H32 UNL     1      25.429  17.897  57.052  1.00  0.00     0.178 HD
ATOM      8  H31 UNL     1      24.169  18.957  57.705  1.00  0.00     0.178 HD
ATOM      9  H2  UNL     1      23.330  17.180  58.879  1.00  0.00     0.207 HD
ENDBRANCH   3   5
BRANCH   2  10
HETATM   10  C3  UNL     1      22.778  14.351  58.300  1.00  0.00     0.032 C 
HETATM   11  C4  UNL     1      22.514  12.880  57.941  1.00  0.00     0.010 C 
HETATM   12  C5  UNL     1      21.360  12.964  58.950  1.00  0.00     0.001 C 
HETATM   13  C6  UNL     1      22.230  14.011  59.668  1.00  0.00     0.010 C 
ENDBRANCH   2  10
TORSDOF 2
ENDMDL
