MODEL 1
REMARK VINA RESULT: -4.155866495      0.000      0.000
REMARK  1 active torsions:
REMARK  status: ('A' for Active; 'I' for Inactive)
REMARK    1  A    between atoms: C2_2  and  C3_3 
ROOT
HETATM    1  C3  UNL     1      93.864  79.124 -15.197  1.00  0.00     0.238 A 
HETATM    2  C4  UNL     1      94.155  77.648 -14.923  1.00  0.00     0.275 A 
HETATM    3  N1  UNL     1      94.134  78.208 -16.238  1.00  0.00    -0.056 N 
HETATM    4  C5  UNL     1      93.001  77.814 -17.047  1.00  0.00     0.238 C 
HETATM    5  C6  UNL     1      93.554  77.034 -18.222  1.00  0.00     0.030 C 
HETATM    6  C7  UNL     1      94.992  77.445 -18.289  1.00  0.00     0.030 C 
HETATM    7  C8  UNL     1      95.283  78.265 -17.068  1.00  0.00     0.238 C 
ENDROOT
BRANCH   1   8
HETATM    8  C2  UNL     1      94.881  80.012 -14.616  1.00  0.00    -0.002 C 
HETATM    9  C1  UNL     1      94.941  81.270 -15.048  1.00  0.00     0.009 C 
ENDBRANCH   1   8
TORSDOF 1
ENDMDL
MODEL 2
REMARK VINA RESULT: -4.089709089      1.433      3.804
REMARK  1 active torsions:
REMARK  status: ('A' for Active; 'I' for Inactive)
REMARK    1  A    between atoms: C2_2  and  C3_3 
ROOT
HETATM    1  C3  UNL     1      94.266  79.125 -18.165  1.00  0.00     0.238 A 
HETATM    2  C4  UNL     1      95.240  78.209 -17.423  1.00  0.00     0.275 A 
HETATM    3  N1  UNL     1      94.221  78.964 -16.762  1.00  0.00    -0.056 N 
HETATM    4  C5  UNL     1      94.703  80.079 -15.978  1.00  0.00     0.238 C 
HETATM    5  C6  UNL     1      94.346  79.787 -14.536  1.00  0.00     0.030 C 
HETATM    6  C7  UNL     1      93.250  78.770 -14.630  1.00  0.00     0.030 C 
HETATM    7  C8  UNL     1      93.144  78.356 -16.066  1.00  0.00     0.238 C 
ENDROOT
BRANCH   1   8
HETATM    8  C2  UNL     1      93.399  78.385 -19.093  1.00  0.00    -0.002 C 
HETATM    9  C1  UNL     1      92.434  79.052 -19.722  1.00  0.00     0.009 C 
ENDBRANCH   1   8
TORSDOF 1
ENDMDL
MODEL 3
REMARK VINA RESULT: -3.917901838      1.461      1.780
REMARK  1 active torsions:
REMARK  status: ('A' for Active; 'I' for Inactive)
REMARK    1  A    between atoms: C2_2  and  C3_3 
ROOT
HETATM    1  C3  UNL     1      92.946  78.513 -15.024  1.00  0.00     0.238 A 
HETATM    2  C4  UNL     1      94.122  77.569 -15.279  1.00  0.00     0.275 A 
HETATM    3  N1  UNL     1      93.676  78.535 -16.234  1.00  0.00    -0.056 N 
HETATM    4  C5  UNL     1      93.007  77.981 -17.390  1.00  0.00     0.238 C 
HETATM    5  C6  UNL     1      93.861  78.322 -18.593  1.00  0.00     0.030 C 
HETATM    6  C7  UNL     1      94.706  79.468 -18.130  1.00  0.00     0.030 C 
HETATM    7  C8  UNL     1      94.479  79.626 -16.657  1.00  0.00     0.238 C 
ENDROOT
BRANCH   1   8
HETATM    8  C2  UNL     1      93.200  79.435 -13.908  1.00  0.00    -0.002 C 
HETATM    9  C1  UNL     1      92.241  79.605 -13.000  1.00  0.00     0.009 C 
ENDBRANCH   1   8
TORSDOF 1
ENDMDL
MODEL 4
REMARK VINA RESULT: -3.913845445      1.394      4.140
REMARK  1 active torsions:
REMARK  status: ('A' for Active; 'I' for Inactive)
REMARK    1  A    between atoms: C2_2  and  C3_3 
ROOT
HETATM    1  C3  UNL     1      93.128  77.637 -18.419  1.00  0.00     0.238 A 
HETATM    2  C4  UNL     1      94.296  76.934 -17.725  1.00  0.00     0.275 A 
HETATM    3  N1  UNL     1      93.533  77.974 -17.108  1.00  0.00    -0.056 N 
HETATM    4  C5  UNL     1      94.229  79.232 -16.961  1.00  0.00     0.238 C 
HETATM    5  C6  UNL     1      94.350  79.493 -15.474  1.00  0.00     0.030 C 
HETATM    6  C7  UNL     1      93.290  78.630 -14.864  1.00  0.00     0.030 C 
HETATM    7  C8  UNL     1      92.737  77.761 -15.953  1.00  0.00     0.238 C 
ENDROOT
BRANCH   1   8
HETATM    8  C2  UNL     1      92.018  76.720 -18.715  1.00  0.00    -0.002 C 
HETATM    9  C1  UNL     1      91.215  77.011 -19.735  1.00  0.00     0.009 C 
ENDBRANCH   1   8
TORSDOF 1
ENDMDL
MODEL 5
REMARK VINA RESULT: -3.903397316      0.976      3.690
REMARK  1 active torsions:
REMARK  status: ('A' for Active; 'I' for Inactive)
REMARK    1  A    between atoms: C2_2  and  C3_3 
ROOT
HETATM    1  C3  UNL     1      94.175  77.049 -17.678  1.00  0.00     0.238 A 
HETATM    2  C4  UNL     1      92.826  77.665 -17.303  1.00  0.00     0.275 A 
HETATM    3  N1  UNL     1      94.073  78.156 -16.805  1.00  0.00    -0.056 N 
HETATM    4  C5  UNL     1      94.315  77.886 -15.405  1.00  0.00     0.238 C 
HETATM    5  C6  UNL     1      94.388  79.228 -14.708  1.00  0.00     0.030 C 
HETATM    6  C7  UNL     1      94.679  80.198 -15.812  1.00  0.00     0.030 C 
HETATM    7  C8  UNL     1      94.565  79.452 -17.106  1.00  0.00     0.238 C 
ENDROOT
BRANCH   1   8
HETATM    8  C2  UNL     1      94.468  77.173 -19.113  1.00  0.00    -0.002 C 
HETATM    9  C1  UNL     1      95.739  77.116 -19.503  1.00  0.00     0.009 C 
ENDBRANCH   1   8
TORSDOF 1
ENDMDL
