MODEL 1
REMARK VINA RESULT: -3.889327503      0.000      0.000
REMARK  3 active torsions:
REMARK  status: ('A' for Active; 'I' for Inactive)
REMARK    1  A    between atoms: C3_3  and  C4_4 
REMARK    2  A    between atoms: C4_4  and  N1_6 
REMARK    3  A    between atoms: N1_6  and  C6_9 
ROOT
HETATM    1  C1  UNL     1      91.516  79.835 -20.840  1.00  0.00     0.112 C 
HETATM    2  C2  UNL     1      92.212  79.072 -19.793  1.00  0.00    -0.109 C 
HETATM    3  C3  UNL     1      92.767  78.427 -18.931  1.00  0.00    -0.074 C 
ENDROOT
BRANCH   3   4
HETATM    4  C4  UNL     1      93.419  77.629 -17.885  1.00  0.00     0.260 C 
HETATM    5  C5  UNL     1      93.930  76.315 -18.415  1.00  0.00     0.054 C 
BRANCH   4   6
HETATM    6  N1  UNL     1      92.465  77.462 -16.819  1.00  0.00    -0.057 N 
ATOM      7  H12 UNL     1      91.512  77.702 -17.092  1.00  0.00     0.279 HD
ATOM      8  H11 UNL     1      92.290  76.485 -16.586  1.00  0.00     0.279 HD
BRANCH   6   9
HETATM    9  C6  UNL     1      92.955  78.250 -15.679  1.00  0.00     0.187 A 
HETATM   10  C7  UNL     1      94.237  78.955 -15.754  1.00  0.00     0.035 A 
HETATM   11  C8  UNL     1      94.144  77.677 -14.992  1.00  0.00     0.035 A 
ENDBRANCH   6   9
ENDBRANCH   4   6
ENDBRANCH   3   4
TORSDOF 3
ENDMDL
MODEL 2
REMARK VINA RESULT: -3.883572821      2.514      3.082
REMARK  3 active torsions:
REMARK  status: ('A' for Active; 'I' for Inactive)
REMARK    1  A    between atoms: C3_3  and  C4_4 
REMARK    2  A    between atoms: C4_4  and  N1_6 
REMARK    3  A    between atoms: N1_6  and  C6_9 
ROOT
HETATM    1  C1  UNL     1      95.310  77.170 -19.493  1.00  0.00     0.112 C 
HETATM    2  C2  UNL     1      94.763  77.197 -18.128  1.00  0.00    -0.109 C 
HETATM    3  C3  UNL     1      94.330  77.205 -16.996  1.00  0.00    -0.074 C 
ENDROOT
BRANCH   3   4
HETATM    4  C4  UNL     1      93.825  77.200 -15.618  1.00  0.00     0.260 C 
HETATM    5  C5  UNL     1      92.359  77.537 -15.553  1.00  0.00     0.054 C 
BRANCH   4   6
HETATM    6  N1  UNL     1      94.639  78.118 -14.862  1.00  0.00    -0.057 N 
ATOM      7  H12 UNL     1      94.697  77.881 -13.872  1.00  0.00     0.279 HD
ATOM      8  H11 UNL     1      95.634  78.039 -15.073  1.00  0.00     0.279 HD
BRANCH   6   9
HETATM    9  C6  UNL     1      94.102  79.464 -15.105  1.00  0.00     0.187 A 
HETATM   10  C7  UNL     1      94.963  80.530 -15.625  1.00  0.00     0.035 A 
HETATM   11  C8  UNL     1      94.608  80.513 -14.177  1.00  0.00     0.035 A 
ENDBRANCH   6   9
ENDBRANCH   4   6
ENDBRANCH   3   4
TORSDOF 3
ENDMDL
MODEL 3
REMARK VINA RESULT: -3.789580793      2.562      2.902
REMARK  3 active torsions:
REMARK  status: ('A' for Active; 'I' for Inactive)
REMARK    1  A    between atoms: C3_3  and  C4_4 
REMARK    2  A    between atoms: C4_4  and  N1_6 
REMARK    3  A    between atoms: N1_6  and  C6_9 
ROOT
HETATM    1  C1  UNL     1      87.747  77.522 -21.019  1.00  0.00     0.112 C 
HETATM    2  C2  UNL     1      89.107  77.272 -20.518  1.00  0.00    -0.109 C 
HETATM    3  C3  UNL     1      90.226  77.044 -20.115  1.00  0.00    -0.074 C 
ENDROOT
BRANCH   3   4
HETATM    4  C4  UNL     1      91.581  76.743 -19.636  1.00  0.00     0.260 C 
HETATM    5  C5  UNL     1      92.136  75.492 -20.265  1.00  0.00     0.054 C 
BRANCH   4   6
HETATM    6  N1  UNL     1      91.517  76.660 -18.200  1.00  0.00    -0.057 N 
ATOM      7  H12 UNL     1      90.627  76.983 -17.819  1.00  0.00     0.279 HD
ATOM      8  H11 UNL     1      91.465  75.702 -17.855  1.00  0.00     0.279 HD
BRANCH   6   9
HETATM    9  C6  UNL     1      92.672  77.402 -17.676  1.00  0.00     0.187 A 
HETATM   10  C7  UNL     1      93.754  76.703 -16.976  1.00  0.00     0.035 A 
HETATM   11  C8  UNL     1      92.746  77.471 -16.191  1.00  0.00     0.035 A 
ENDBRANCH   6   9
ENDBRANCH   4   6
ENDBRANCH   3   4
TORSDOF 3
ENDMDL
MODEL 4
REMARK VINA RESULT: -3.741828606      2.279      3.959
REMARK  3 active torsions:
REMARK  status: ('A' for Active; 'I' for Inactive)
REMARK    1  A    between atoms: C3_3  and  C4_4 
REMARK    2  A    between atoms: C4_4  and  N1_6 
REMARK    3  A    between atoms: N1_6  and  C6_9 
ROOT
HETATM    1  C1  UNL     1      95.167  80.887 -14.904  1.00  0.00     0.112 C 
HETATM    2  C2  UNL     1      94.397  79.789 -15.507  1.00  0.00    -0.109 C 
HETATM    3  C3  UNL     1      93.751  78.900 -16.018  1.00  0.00    -0.074 C 
ENDROOT
BRANCH   3   4
HETATM    4  C4  UNL     1      92.956  77.841 -16.651  1.00  0.00     0.260 C 
HETATM    5  C5  UNL     1      93.217  76.493 -16.032  1.00  0.00     0.054 C 
BRANCH   4   6
HETATM    6  N1  UNL     1      93.253  77.870 -18.060  1.00  0.00    -0.057 N 
ATOM      7  H12 UNL     1      92.451  77.633 -18.644  1.00  0.00     0.279 HD
ATOM      8  H11 UNL     1      93.400  78.814 -18.420  1.00  0.00     0.279 HD
BRANCH   6   9
HETATM    9  C6  UNL     1      94.405  76.984 -18.273  1.00  0.00     0.187 A 
HETATM   10  C7  UNL     1      95.641  77.495 -18.874  1.00  0.00     0.035 A 
HETATM   11  C8  UNL     1      94.703  76.682 -19.701  1.00  0.00     0.035 A 
ENDBRANCH   6   9
ENDBRANCH   4   6
ENDBRANCH   3   4
TORSDOF 3
ENDMDL
MODEL 5
REMARK VINA RESULT: -3.678155288      2.507      3.231
REMARK  3 active torsions:
REMARK  status: ('A' for Active; 'I' for Inactive)
REMARK    1  A    between atoms: C3_3  and  C4_4 
REMARK    2  A    between atoms: C4_4  and  N1_6 
REMARK    3  A    between atoms: N1_6  and  C6_9 
ROOT
HETATM    1  C1  UNL     1      95.582  79.610 -20.114  1.00  0.00     0.112 C 
HETATM    2  C2  UNL     1      95.181  79.609 -18.699  1.00  0.00    -0.109 C 
HETATM    3  C3  UNL     1      94.869  79.594 -17.528  1.00  0.00    -0.074 C 
ENDROOT
BRANCH   3   4
HETATM    4  C4  UNL     1      94.510  79.559 -16.105  1.00  0.00     0.260 C 
HETATM    5  C5  UNL     1      94.928  80.816 -15.388  1.00  0.00     0.054 C 
BRANCH   4   6
HETATM    6  N1  UNL     1      95.109  78.375 -15.544  1.00  0.00    -0.057 N 
ATOM      7  H12 UNL     1      95.714  77.882 -16.200  1.00  0.00     0.279 HD
ATOM      8  H11 UNL     1      95.820  78.580 -14.842  1.00  0.00     0.279 HD
BRANCH   6   9
HETATM    9  C6  UNL     1      94.012  77.543 -15.030  1.00  0.00     0.187 A 
HETATM   10  C7  UNL     1      93.271  76.648 -15.923  1.00  0.00     0.035 A 
HETATM   11  C8  UNL     1      92.657  77.940 -15.501  1.00  0.00     0.035 A 
ENDBRANCH   6   9
ENDBRANCH   4   6
ENDBRANCH   3   4
TORSDOF 3
ENDMDL
