MODEL 1
REMARK VINA RESULT: -4.330420317      0.000      0.000
REMARK  1 active torsions:
REMARK  status: ('A' for Active; 'I' for Inactive)
REMARK    1  A    between atoms: N1_2  and  C4_5 
ROOT
HETATM    1  C4  UNL     1      95.071  78.576 -16.503  1.00  0.00     0.386 C 
HETATM    2  C5  UNL     1      94.329  78.221 -15.270  1.00  0.00     0.065 C 
HETATM    3  C6  UNL     1      94.105  79.550 -14.563  1.00  0.00     0.031 C 
HETATM    4  C7  UNL     1      94.964  80.552 -15.315  1.00  0.00     0.235 C 
HETATM    5  N2  UNL     1      95.054  79.996 -16.643  1.00  0.00    -0.046 N 
ATOM      6  H21 UNL     1      94.318  80.327 -17.267  1.00  0.00     0.279 HD
ATOM      7  H22 UNL     1      95.848  80.354 -17.175  1.00  0.00     0.279 HD
ENDROOT
BRANCH   1   8
HETATM    8  N1  UNL     1      94.631  77.915 -17.693  1.00  0.00    -0.050 N 
HETATM    9  C1  UNL     1      95.678  77.708 -18.664  1.00  0.00     0.274 C 
HETATM   10  C2  UNL     1      93.988  76.647 -17.459  1.00  0.00     0.274 C 
HETATM   11  C3  UNL     1      93.610  78.788 -18.299  1.00  0.00     0.274 C 
ENDBRANCH   1   8
TORSDOF 1
ENDMDL
MODEL 2
REMARK VINA RESULT: -4.322648334      0.145      1.365
REMARK  1 active torsions:
REMARK  status: ('A' for Active; 'I' for Inactive)
REMARK    1  A    between atoms: N1_2  and  C4_5 
ROOT
HETATM    1  C4  UNL     1      95.011  78.657 -16.465  1.00  0.00     0.386 C 
HETATM    2  C5  UNL     1      94.362  78.318 -15.176  1.00  0.00     0.065 C 
HETATM    3  C6  UNL     1      94.193  79.655 -14.470  1.00  0.00     0.031 C 
HETATM    4  C7  UNL     1      94.993  80.647 -15.296  1.00  0.00     0.235 C 
HETATM    5  N2  UNL     1      94.984  80.075 -16.620  1.00  0.00    -0.046 N 
ATOM      6  H21 UNL     1      94.203  80.401 -17.191  1.00  0.00     0.279 HD
ATOM      7  H22 UNL     1      95.735  80.427 -17.214  1.00  0.00     0.279 HD
ENDROOT
BRANCH   1   8
HETATM    8  N1  UNL     1      94.482  77.983 -17.611  1.00  0.00    -0.050 N 
HETATM    9  C1  UNL     1      93.888  76.704 -17.310  1.00  0.00     0.274 C 
HETATM   10  C2  UNL     1      93.520  78.754 -18.355  1.00  0.00     0.274 C 
HETATM   11  C3  UNL     1      95.619  77.757 -18.521  1.00  0.00     0.274 C 
ENDBRANCH   1   8
TORSDOF 1
ENDMDL
MODEL 3
REMARK VINA RESULT: -4.305770972      0.144      1.347
REMARK  1 active torsions:
REMARK  status: ('A' for Active; 'I' for Inactive)
REMARK    1  A    between atoms: N1_2  and  C4_5 
ROOT
HETATM    1  C4  UNL     1      94.996  78.586 -16.488  1.00  0.00     0.386 C 
HETATM    2  C5  UNL     1      94.281  78.262 -15.231  1.00  0.00     0.065 C 
HETATM    3  C6  UNL     1      94.145  79.596 -14.512  1.00  0.00     0.031 C 
HETATM    4  C7  UNL     1      95.023  80.560 -15.291  1.00  0.00     0.235 C 
HETATM    5  N2  UNL     1      95.041  80.006 -16.623  1.00  0.00    -0.046 N 
ATOM      6  H21 UNL     1      94.301  80.375 -17.220  1.00  0.00     0.279 HD
ATOM      7  H22 UNL     1      95.832  80.330 -17.181  1.00  0.00     0.279 HD
ENDROOT
BRANCH   1   8
HETATM    8  N1  UNL     1      94.484  77.952 -17.664  1.00  0.00    -0.050 N 
HETATM    9  C1  UNL     1      93.464  78.717 -18.338  1.00  0.00     0.274 C 
HETATM   10  C2  UNL     1      95.493  77.610 -18.634  1.00  0.00     0.274 C 
HETATM   11  C3  UNL     1      93.887  76.680 -17.223  1.00  0.00     0.274 C 
ENDBRANCH   1   8
TORSDOF 1
ENDMDL
MODEL 4
REMARK VINA RESULT: -4.018730643      0.842      1.723
REMARK  1 active torsions:
REMARK  status: ('A' for Active; 'I' for Inactive)
REMARK    1  A    between atoms: N1_2  and  C4_5 
ROOT
HETATM    1  C4  UNL     1      95.194  78.866 -17.022  1.00  0.00     0.386 C 
HETATM    2  C5  UNL     1      94.495  78.032 -16.016  1.00  0.00     0.065 C 
HETATM    3  C6  UNL     1      94.119  79.003 -14.907  1.00  0.00     0.031 C 
HETATM    4  C7  UNL     1      94.857  80.289 -15.235  1.00  0.00     0.235 C 
HETATM    5  N2  UNL     1      95.014  80.237 -16.669  1.00  0.00    -0.046 N 
ATOM      6  H21 UNL     1      94.246  80.682 -17.172  1.00  0.00     0.279 HD
ATOM      7  H22 UNL     1      95.762  80.840 -17.012  1.00  0.00     0.279 HD
ENDROOT
BRANCH   1   8
HETATM    8  N1  UNL     1      94.835  78.613 -18.384  1.00  0.00    -0.050 N 
HETATM    9  C1  UNL     1      93.488  79.009 -18.712  1.00  0.00     0.274 C 
HETATM   10  C2  UNL     1      95.721  79.215 -19.347  1.00  0.00     0.274 C 
HETATM   11  C3  UNL     1      94.945  77.157 -18.578  1.00  0.00     0.274 C 
ENDBRANCH   1   8
TORSDOF 1
ENDMDL
MODEL 5
REMARK VINA RESULT: -3.980802188      0.851      1.597
REMARK  1 active torsions:
REMARK  status: ('A' for Active; 'I' for Inactive)
REMARK    1  A    between atoms: N1_2  and  C4_5 
ROOT
HETATM    1  C4  UNL     1      94.411  77.912 -16.513  1.00  0.00     0.386 C 
HETATM    2  C5  UNL     1      93.248  77.550 -15.670  1.00  0.00     0.065 C 
HETATM    3  C6  UNL     1      93.079  78.730 -14.724  1.00  0.00     0.031 C 
HETATM    4  C7  UNL     1      94.323  79.580 -14.920  1.00  0.00     0.235 C 
HETATM    5  N2  UNL     1      94.732  79.281 -16.271  1.00  0.00    -0.046 N 
ATOM      6  H21 UNL     1      94.327  79.915 -16.960  1.00  0.00     0.279 HD
ATOM      7  H22 UNL     1      95.712  79.500 -16.451  1.00  0.00     0.279 HD
ENDROOT
BRANCH   1   8
HETATM    8  N1  UNL     1      94.264  77.636 -17.909  1.00  0.00    -0.050 N 
HETATM    9  C1  UNL     1      93.802  76.299 -18.191  1.00  0.00     0.274 C 
HETATM   10  C2  UNL     1      93.401  78.557 -18.603  1.00  0.00     0.274 C 
HETATM   11  C3  UNL     1      95.601  77.795 -18.507  1.00  0.00     0.274 C 
ENDBRANCH   1   8
TORSDOF 1
ENDMDL
