MODEL 1
REMARK VINA RESULT: -3.905359019      0.000      0.000
REMARK  2 active torsions:
REMARK  status: ('A' for Active; 'I' for Inactive)
REMARK    1  A    between atoms: C2_2  and  C3_3 
REMARK    2  A    between atoms: C7_7  and  N1_8 
ROOT
HETATM    1  C3  UNL     1      94.480  78.208 -16.970  1.00  0.00     0.039 C 
HETATM    2  C4  UNL     1      93.071  77.820 -16.514  1.00  0.00     0.017 C 
HETATM    3  C5  UNL     1      93.561  78.053 -15.100  1.00  0.00     0.013 C 
HETATM    4  C6  UNL     1      92.511  78.676 -14.260  1.00  0.00     0.012 C 
HETATM    5  C7  UNL     1      94.650  78.921 -15.635  1.00  0.00     0.196 C 
ENDROOT
BRANCH   5   6
HETATM    6  N1  UNL     1      94.407  80.314 -15.761  1.00  0.00    -0.074 N 
HETATM    7  C8  UNL     1      95.216  81.112 -14.867  1.00  0.00     0.267 C 
ATOM      8  H12 UNL     1      94.525  80.618 -16.728  1.00  0.00     0.277 HD
ATOM      9  H11 UNL     1      93.416  80.523 -15.640  1.00  0.00     0.277 HD
ENDBRANCH   5   6
BRANCH   1  10
HETATM   10  C2  UNL     1      94.412  79.079 -18.157  1.00  0.00    -0.030 C 
HETATM   11  C1  UNL     1      93.393  79.020 -18.989  1.00  0.00     0.007 C 
ENDBRANCH   1  10
TORSDOF 2
ENDMDL
MODEL 2
REMARK VINA RESULT: -3.835758162      1.202      1.419
REMARK  2 active torsions:
REMARK  status: ('A' for Active; 'I' for Inactive)
REMARK    1  A    between atoms: C2_2  and  C3_3 
REMARK    2  A    between atoms: C7_7  and  N1_8 
ROOT
HETATM    1  C3  UNL     1      95.371  78.116 -17.642  1.00  0.00     0.039 C 
HETATM    2  C4  UNL     1      93.972  77.509 -17.505  1.00  0.00     0.017 C 
HETATM    3  C5  UNL     1      94.141  77.681 -16.010  1.00  0.00     0.013 C 
HETATM    4  C6  UNL     1      92.870  78.086 -15.366  1.00  0.00     0.012 C 
HETATM    5  C7  UNL     1      95.175  78.727 -16.261  1.00  0.00     0.196 C 
ENDROOT
BRANCH   5   6
HETATM    6  N1  UNL     1      94.762  80.081 -16.352  1.00  0.00    -0.074 N 
HETATM    7  C8  UNL     1      95.150  80.869 -15.203  1.00  0.00     0.267 C 
ATOM      8  H12 UNL     1      95.098  80.507 -17.216  1.00  0.00     0.277 HD
ATOM      9  H11 UNL     1      93.756  80.145 -16.514  1.00  0.00     0.277 HD
ENDBRANCH   5   6
BRANCH   1  10
HETATM   10  C2  UNL     1      95.407  79.070 -18.765  1.00  0.00    -0.030 C 
HETATM   11  C1  UNL     1      96.347  79.003 -19.686  1.00  0.00     0.007 C 
ENDBRANCH   1  10
TORSDOF 2
ENDMDL
MODEL 3
REMARK VINA RESULT: -3.783868995      1.421      3.176
REMARK  2 active torsions:
REMARK  status: ('A' for Active; 'I' for Inactive)
REMARK    1  A    between atoms: C2_2  and  C3_3 
REMARK    2  A    between atoms: C7_7  and  N1_8 
ROOT
HETATM    1  C3  UNL     1      93.709  79.024 -15.844  1.00  0.00     0.039 C 
HETATM    2  C4  UNL     1      93.731  77.517 -15.573  1.00  0.00     0.017 C 
HETATM    3  C5  UNL     1      93.214  77.347 -16.986  1.00  0.00     0.013 C 
HETATM    4  C6  UNL     1      93.815  76.162 -17.643  1.00  0.00     0.012 C 
HETATM    5  C7  UNL     1      93.748  78.696 -17.331  1.00  0.00     0.196 C 
ENDROOT
BRANCH   5   6
HETATM    6  N1  UNL     1      95.067  78.794 -17.844  1.00  0.00    -0.074 N 
HETATM    7  C8  UNL     1      95.128  79.469 -19.122  1.00  0.00     0.267 C 
ATOM      8  H12 UNL     1      95.689  79.237 -17.168  1.00  0.00     0.277 HD
ATOM      9  H11 UNL     1      95.505  77.874 -17.897  1.00  0.00     0.277 HD
ENDBRANCH   5   6
BRANCH   1  10
HETATM   10  C2  UNL     1      94.921  79.660 -15.296  1.00  0.00    -0.030 C 
HETATM   11  C1  UNL     1      94.906  80.909 -14.878  1.00  0.00     0.007 C 
ENDBRANCH   1  10
TORSDOF 2
ENDMDL
MODEL 4
REMARK VINA RESULT: -3.771827116      1.473      3.867
REMARK  2 active torsions:
REMARK  status: ('A' for Active; 'I' for Inactive)
REMARK    1  A    between atoms: C2_2  and  C3_3 
REMARK    2  A    between atoms: C7_7  and  N1_8 
ROOT
HETATM    1  C3  UNL     1      93.975  78.412 -15.025  1.00  0.00     0.039 C 
HETATM    2  C4  UNL     1      94.531  79.697 -15.644  1.00  0.00     0.017 C 
HETATM    3  C5  UNL     1      94.989  78.834 -16.801  1.00  0.00     0.013 C 
HETATM    4  C6  UNL     1      94.834  79.539 -18.096  1.00  0.00     0.012 C 
HETATM    5  C7  UNL     1      93.972  77.810 -16.424  1.00  0.00     0.196 C 
ENDROOT
BRANCH   5   6
HETATM    6  N1  UNL     1      92.684  77.885 -17.013  1.00  0.00    -0.074 N 
HETATM    7  C8  UNL     1      92.435  76.825 -17.964  1.00  0.00     0.267 C 
ATOM      8  H12 UNL     1      91.957  77.910 -16.296  1.00  0.00     0.277 HD
ATOM      9  H11 UNL     1      92.530  78.799 -17.438  1.00  0.00     0.277 HD
ENDBRANCH   5   6
BRANCH   1  10
HETATM   10  C2  UNL     1      92.648  78.662 -14.432  1.00  0.00    -0.030 C 
HETATM   11  C1  UNL     1      92.500  79.485 -13.414  1.00  0.00     0.007 C 
ENDBRANCH   1  10
TORSDOF 2
ENDMDL
MODEL 5
REMARK VINA RESULT: -3.753666233      1.460      2.730
REMARK  2 active torsions:
REMARK  status: ('A' for Active; 'I' for Inactive)
REMARK    1  A    between atoms: C2_2  and  C3_3 
REMARK    2  A    between atoms: C7_7  and  N1_8 
ROOT
HETATM    1  C3  UNL     1      94.938  78.888 -15.561  1.00  0.00     0.039 C 
HETATM    2  C4  UNL     1      94.423  78.078 -16.753  1.00  0.00     0.017 C 
HETATM    3  C5  UNL     1      93.801  77.145 -15.735  1.00  0.00     0.013 C 
HETATM    4  C6  UNL     1      92.479  76.653 -16.189  1.00  0.00     0.012 C 
HETATM    5  C7  UNL     1      93.842  78.241 -14.725  1.00  0.00     0.196 C 
ENDROOT
BRANCH   5   6
HETATM    6  N1  UNL     1      92.716  79.095 -14.604  1.00  0.00    -0.074 N 
HETATM    7  C8  UNL     1      92.336  79.339 -13.230  1.00  0.00     0.267 C 
ATOM      8  H12 UNL     1      92.869  79.973 -15.101  1.00  0.00     0.277 HD
ATOM      9  H11 UNL     1      91.927  78.735 -15.140  1.00  0.00     0.277 HD
ENDBRANCH   5   6
BRANCH   1  10
HETATM   10  C2  UNL     1      94.780  80.332 -15.817  1.00  0.00    -0.030 C 
HETATM   11  C1  UNL     1      95.197  81.228 -14.947  1.00  0.00     0.007 C 
ENDBRANCH   1  10
TORSDOF 2
ENDMDL
