MODEL 1
REMARK VINA RESULT: -3.895826271      0.000      0.000
REMARK  2 active torsions:
REMARK  status: ('A' for Active; 'I' for Inactive)
REMARK    1  A    between atoms: C4_4  and  C5_5 
REMARK    2  A    between atoms: C6_6  and  C7_7 
ROOT
HETATM    1  C1  UNL     1      28.880  16.697  14.630  1.00  0.00     0.027 C 
HETATM    2  C2  UNL     1      28.867  16.042  15.646  1.00  0.00    -0.026 C 
HETATM    3  C3  UNL     1      28.849  15.252  16.832  1.00  0.00    -0.011 C 
HETATM    4  C4  UNL     1      28.837  14.565  17.825  1.00  0.00    -0.064 C 
ENDROOT
BRANCH   4   5
HETATM    5  C5  UNL     1      28.815  13.734  18.989  1.00  0.00     0.068 C 
HETATM    6  C6  UNL     1      28.023  12.692  19.132  1.00  0.00     0.050 C 
BRANCH   6   7
HETATM    7  C7  UNL     1      28.049  11.893  20.333  1.00  0.00     0.259 C 
HETATM    8  O1  UNL     1      27.145  11.892  21.182  1.00  0.00    -0.302 OA
ENDBRANCH   6   7
ENDBRANCH   4   5
TORSDOF 2
ENDMDL
MODEL 2
REMARK VINA RESULT: -3.878473918      3.034      5.448
REMARK  2 active torsions:
REMARK  status: ('A' for Active; 'I' for Inactive)
REMARK    1  A    between atoms: C4_4  and  C5_5 
REMARK    2  A    between atoms: C6_6  and  C7_7 
ROOT
HETATM    1  C1  UNL     1      24.278  10.304  19.512  1.00  0.00     0.027 C 
HETATM    2  C2  UNL     1      25.182  11.062  19.252  1.00  0.00    -0.026 C 
HETATM    3  C3  UNL     1      26.236  11.973  18.947  1.00  0.00    -0.011 C 
HETATM    4  C4  UNL     1      27.117  12.760  18.696  1.00  0.00    -0.064 C 
ENDROOT
BRANCH   4   5
HETATM    5  C5  UNL     1      28.144  13.709  18.396  1.00  0.00     0.068 C 
HETATM    6  C6  UNL     1      28.026  14.655  17.488  1.00  0.00     0.050 C 
BRANCH   6   7
HETATM    7  C7  UNL     1      29.101  15.583  17.232  1.00  0.00     0.259 C 
HETATM    8  O1  UNL     1      29.156  16.726  17.711  1.00  0.00    -0.302 OA
ENDBRANCH   6   7
ENDBRANCH   4   5
TORSDOF 2
ENDMDL
MODEL 3
REMARK VINA RESULT: -3.864589289      3.049      5.562
REMARK  2 active torsions:
REMARK  status: ('A' for Active; 'I' for Inactive)
REMARK    1  A    between atoms: C4_4  and  C5_5 
REMARK    2  A    between atoms: C6_6  and  C7_7 
ROOT
HETATM    1  C1  UNL     1      27.480  11.295  20.251  1.00  0.00     0.027 C 
HETATM    2  C2  UNL     1      27.648  12.231  19.505  1.00  0.00    -0.026 C 
HETATM    3  C3  UNL     1      27.860  13.323  18.614  1.00  0.00    -0.011 C 
HETATM    4  C4  UNL     1      28.048  14.235  17.844  1.00  0.00    -0.064 C 
ENDROOT
BRANCH   4   5
HETATM    5  C5  UNL     1      28.287  15.302  16.922  1.00  0.00     0.068 C 
HETATM    6  C6  UNL     1      28.821  15.137  15.731  1.00  0.00     0.050 C 
BRANCH   6   7
HETATM    7  C7  UNL     1      29.037  16.256  14.847  1.00  0.00     0.259 C 
HETATM    8  O1  UNL     1      28.598  17.397  15.057  1.00  0.00    -0.302 OA
ENDBRANCH   6   7
ENDBRANCH   4   5
TORSDOF 2
ENDMDL
MODEL 4
REMARK VINA RESULT: -3.576623528      2.699      5.659
REMARK  2 active torsions:
REMARK  status: ('A' for Active; 'I' for Inactive)
REMARK    1  A    between atoms: C4_4  and  C5_5 
REMARK    2  A    between atoms: C6_6  and  C7_7 
ROOT
HETATM    1  C1  UNL     1      26.516   9.849  21.230  1.00  0.00     0.027 C 
HETATM    2  C2  UNL     1      26.866  10.769  20.529  1.00  0.00    -0.026 C 
HETATM    3  C3  UNL     1      27.276  11.842  19.684  1.00  0.00    -0.011 C 
HETATM    4  C4  UNL     1      27.611  12.742  18.952  1.00  0.00    -0.064 C 
ENDROOT
BRANCH   4   5
HETATM    5  C5  UNL     1      28.008  13.793  18.067  1.00  0.00     0.068 C 
HETATM    6  C6  UNL     1      27.632  15.047  18.202  1.00  0.00     0.050 C 
BRANCH   6   7
HETATM    7  C7  UNL     1      28.067  16.062  17.273  1.00  0.00     0.259 C 
HETATM    8  O1  UNL     1      29.126  16.696  17.389  1.00  0.00    -0.302 OA
ENDBRANCH   6   7
ENDBRANCH   4   5
TORSDOF 2
ENDMDL
MODEL 5
REMARK VINA RESULT: -3.532655916      3.543      5.047
REMARK  2 active torsions:
REMARK  status: ('A' for Active; 'I' for Inactive)
REMARK    1  A    between atoms: C4_4  and  C5_5 
REMARK    2  A    between atoms: C6_6  and  C7_7 
ROOT
HETATM    1  C1  UNL     1      25.168   9.532  15.990  1.00  0.00     0.027 C 
HETATM    2  C2  UNL     1      25.808  10.422  16.499  1.00  0.00    -0.026 C 
HETATM    3  C3  UNL     1      26.568  11.479  17.080  1.00  0.00    -0.011 C 
HETATM    4  C4  UNL     1      27.211  12.386  17.553  1.00  0.00    -0.064 C 
ENDROOT
BRANCH   4   5
HETATM    5  C5  UNL     1      27.979  13.465  18.093  1.00  0.00     0.068 C 
HETATM    6  C6  UNL     1      27.964  14.689  17.609  1.00  0.00     0.050 C 
BRANCH   6   7
HETATM    7  C7  UNL     1      28.764  15.735  18.200  1.00  0.00     0.259 C 
HETATM    8  O1  UNL     1      29.134  16.749  17.590  1.00  0.00    -0.302 OA
ENDBRANCH   6   7
ENDBRANCH   4   5
TORSDOF 2
ENDMDL
