MODEL 1
REMARK VINA RESULT: -4.407524011      0.000      0.000
REMARK  1 active torsions:
REMARK  status: ('A' for Active; 'I' for Inactive)
REMARK    1  A    between atoms: C5_5  and  C6_6 
ROOT
HETATM    1  C1  UNL     1      28.840  16.638  14.358  1.00  0.00     0.097 C 
HETATM    2  C2  UNL     1      29.154  16.042  15.376  1.00  0.00    -0.182 C 
HETATM    3  C3  UNL     1      29.522  15.319  16.569  1.00  0.00     0.065 A 
HETATM    4  C4  UNL     1      29.655  13.824  16.546  1.00  0.00     0.032 A 
HETATM    5  C5  UNL     1      28.419  14.417  17.103  1.00  0.00     0.091 A 
ENDROOT
BRANCH   5   6
HETATM    6  C6  UNL     1      28.213  14.555  18.549  1.00  0.00     0.236 C 
HETATM    7  N1  UNL     1      29.016  13.924  19.536  1.00  0.00    -0.062 NA
HETATM    8  O1  UNL     1      27.264  15.280  18.935  1.00  0.00    -0.276 OA
ENDBRANCH   5   6
TORSDOF 1
ENDMDL
MODEL 2
REMARK VINA RESULT: -4.374465970      2.372      3.618
REMARK  1 active torsions:
REMARK  status: ('A' for Active; 'I' for Inactive)
REMARK    1  A    between atoms: C5_5  and  C6_6 
ROOT
HETATM    1  C1  UNL     1      27.617  12.581  19.081  1.00  0.00     0.097 C 
HETATM    2  C2  UNL     1      27.965  13.225  18.103  1.00  0.00    -0.182 C 
HETATM    3  C3  UNL     1      28.397  13.987  16.957  1.00  0.00     0.065 A 
HETATM    4  C4  UNL     1      29.835  14.389  16.805  1.00  0.00     0.032 A 
HETATM    5  C5  UNL     1      28.868  15.393  17.300  1.00  0.00     0.091 A 
ENDROOT
BRANCH   5   6
HETATM    6  C6  UNL     1      28.302  16.420  16.418  1.00  0.00     0.236 C 
HETATM    7  N1  UNL     1      28.880  16.822  15.185  1.00  0.00    -0.062 NA
HETATM    8  O1  UNL     1      27.237  16.976  16.781  1.00  0.00    -0.276 OA
ENDBRANCH   5   6
TORSDOF 1
ENDMDL
MODEL 3
REMARK VINA RESULT: -4.347118208      2.518      3.451
REMARK  1 active torsions:
REMARK  status: ('A' for Active; 'I' for Inactive)
REMARK    1  A    between atoms: C5_5  and  C6_6 
ROOT
HETATM    1  C1  UNL     1      26.970  11.650  16.841  1.00  0.00     0.097 C 
HETATM    2  C2  UNL     1      27.687  12.612  17.069  1.00  0.00    -0.182 C 
HETATM    3  C3  UNL     1      28.530  13.745  17.360  1.00  0.00     0.065 A 
HETATM    4  C4  UNL     1      28.824  14.135  18.779  1.00  0.00     0.032 A 
HETATM    5  C5  UNL     1      27.797  14.896  18.034  1.00  0.00     0.091 A 
ENDROOT
BRANCH   5   6
HETATM    6  C6  UNL     1      28.092  16.199  17.427  1.00  0.00     0.236 C 
HETATM    7  N1  UNL     1      27.132  17.008  16.763  1.00  0.00    -0.062 NA
HETATM    8  O1  UNL     1      29.271  16.623  17.503  1.00  0.00    -0.276 OA
ENDBRANCH   5   6
TORSDOF 1
ENDMDL
MODEL 4
REMARK VINA RESULT: -4.166299228      2.346      3.093
REMARK  1 active torsions:
REMARK  status: ('A' for Active; 'I' for Inactive)
REMARK    1  A    between atoms: C5_5  and  C6_6 
ROOT
HETATM    1  C1  UNL     1      28.843  11.877  15.198  1.00  0.00     0.097 C 
HETATM    2  C2  UNL     1      29.160  12.827  15.897  1.00  0.00    -0.182 C 
HETATM    3  C3  UNL     1      29.521  13.942  16.738  1.00  0.00     0.065 A 
HETATM    4  C4  UNL     1      29.001  14.039  18.143  1.00  0.00     0.032 A 
HETATM    5  C5  UNL     1      28.348  14.847  17.089  1.00  0.00     0.091 A 
ENDROOT
BRANCH   5   6
HETATM    6  C6  UNL     1      28.650  16.272  16.912  1.00  0.00     0.236 C 
HETATM    7  N1  UNL     1      28.431  16.993  15.709  1.00  0.00    -0.062 NA
HETATM    8  O1  UNL     1      29.133  16.891  17.892  1.00  0.00    -0.276 OA
ENDBRANCH   5   6
TORSDOF 1
ENDMDL
MODEL 5
REMARK VINA RESULT: -4.161959267      1.562      1.777
REMARK  1 active torsions:
REMARK  status: ('A' for Active; 'I' for Inactive)
REMARK    1  A    between atoms: C5_5  and  C6_6 
ROOT
HETATM    1  C1  UNL     1      29.186  16.470  14.617  1.00  0.00     0.097 C 
HETATM    2  C2  UNL     1      28.662  16.131  15.666  1.00  0.00    -0.182 C 
HETATM    3  C3  UNL     1      28.063  15.734  16.917  1.00  0.00     0.065 A 
HETATM    4  C4  UNL     1      28.819  15.875  18.206  1.00  0.00     0.032 A 
HETATM    5  C5  UNL     1      28.745  14.541  17.571  1.00  0.00     0.091 A 
ENDROOT
BRANCH   5   6
HETATM    6  C6  UNL     1      27.797  13.519  18.032  1.00  0.00     0.236 C 
HETATM    7  N1  UNL     1      27.406  12.388  17.267  1.00  0.00    -0.062 NA
HETATM    8  O1  UNL     1      27.303  13.658  19.177  1.00  0.00    -0.276 OA
ENDBRANCH   5   6
TORSDOF 1
ENDMDL
