MODEL 1
REMARK VINA RESULT: -3.619732370      0.000      0.000
REMARK  1 active torsions:
REMARK  status: ('A' for Active; 'I' for Inactive)
REMARK    1  A    between atoms: N1_2  and  C3_4 
ROOT
HETATM    1  C1  UNL     1      29.818  14.663  16.459  1.00  0.00     0.151 C 
HETATM    2  N1  UNL     1      28.900  15.699  16.096  1.00  0.00    -0.369 N 
HETATM    3  C2  UNL     1      29.026  16.311  14.788  1.00  0.00     0.151 C 
ENDROOT
BRANCH   2   4
HETATM    4  C3  UNL     1      27.897  16.105  17.005  1.00  0.00     0.182 C 
HETATM    5  N2  UNL     1      27.151  17.263  16.706  1.00  0.00    -0.070 NA
HETATM    6  S1  UNL     1      27.662  15.209  18.347  1.00  0.00    -0.044 SA
ENDBRANCH   2   4
TORSDOF 1
ENDMDL
MODEL 2
REMARK VINA RESULT: -3.601403165      0.046      1.430
REMARK  1 active torsions:
REMARK  status: ('A' for Active; 'I' for Inactive)
REMARK    1  A    between atoms: N1_2  and  C3_4 
ROOT
HETATM    1  C1  UNL     1      29.045  16.360  14.826  1.00  0.00     0.151 C 
HETATM    2  N1  UNL     1      28.904  15.709  16.093  1.00  0.00    -0.369 N 
HETATM    3  C2  UNL     1      29.809  14.626  16.422  1.00  0.00     0.151 C 
ENDROOT
BRANCH   2   4
HETATM    4  C3  UNL     1      27.899  16.128  16.995  1.00  0.00     0.182 C 
HETATM    5  N2  UNL     1      27.141  17.270  16.669  1.00  0.00    -0.070 NA
HETATM    6  S1  UNL     1      27.677  15.263  18.360  1.00  0.00    -0.044 SA
ENDBRANCH   2   4
TORSDOF 1
ENDMDL
MODEL 3
REMARK VINA RESULT: -3.535088778      2.197      2.666
REMARK  1 active torsions:
REMARK  status: ('A' for Active; 'I' for Inactive)
REMARK    1  A    between atoms: N1_2  and  C3_4 
ROOT
HETATM    1  C1  UNL     1      28.847  13.356  15.942  1.00  0.00     0.151 C 
HETATM    2  N1  UNL     1      28.474  14.420  16.824  1.00  0.00    -0.369 N 
HETATM    3  C2  UNL     1      27.710  14.100  18.014  1.00  0.00     0.151 C 
ENDROOT
BRANCH   2   4
HETATM    4  C3  UNL     1      28.850  15.750  16.527  1.00  0.00     0.182 C 
HETATM    5  N2  UNL     1      29.081  16.636  17.599  1.00  0.00    -0.070 NA
HETATM    6  S1  UNL     1      28.997  16.179  14.961  1.00  0.00    -0.044 SA
ENDBRANCH   2   4
TORSDOF 1
ENDMDL
MODEL 4
REMARK VINA RESULT: -3.533088116      2.190      2.589
REMARK  1 active torsions:
REMARK  status: ('A' for Active; 'I' for Inactive)
REMARK    1  A    between atoms: N1_2  and  C3_4 
ROOT
HETATM    1  C1  UNL     1      27.667  14.166  17.991  1.00  0.00     0.151 C 
HETATM    2  N1  UNL     1      28.447  14.440  16.822  1.00  0.00    -0.369 N 
HETATM    3  C2  UNL     1      28.806  13.336  15.953  1.00  0.00     0.151 C 
ENDROOT
BRANCH   2   4
HETATM    4  C3  UNL     1      28.848  15.764  16.534  1.00  0.00     0.182 C 
HETATM    5  N2  UNL     1      29.098  16.637  17.611  1.00  0.00    -0.070 NA
HETATM    6  S1  UNL     1      28.999  16.202  14.970  1.00  0.00    -0.044 SA
ENDBRANCH   2   4
TORSDOF 1
ENDMDL
MODEL 5
REMARK VINA RESULT: -3.300458251      1.362      2.503
REMARK  1 active torsions:
REMARK  status: ('A' for Active; 'I' for Inactive)
REMARK    1  A    between atoms: N1_2  and  C3_4 
ROOT
HETATM    1  C1  UNL     1      29.040  16.105  15.001  1.00  0.00     0.151 C 
HETATM    2  N1  UNL     1      28.447  15.650  16.223  1.00  0.00    -0.369 N 
HETATM    3  C2  UNL     1      27.648  16.581  16.995  1.00  0.00     0.151 C 
ENDROOT
BRANCH   2   4
HETATM    4  C3  UNL     1      28.647  14.319  16.653  1.00  0.00     0.182 C 
HETATM    5  N2  UNL     1      28.598  13.290  15.691  1.00  0.00    -0.070 NA
HETATM    6  S1  UNL     1      28.922  14.052  18.238  1.00  0.00    -0.044 SA
ENDBRANCH   2   4
TORSDOF 1
ENDMDL
