MODEL 1
REMARK VINA RESULT: -4.423417558      0.000      0.000
REMARK  1 active torsions:
REMARK  status: ('A' for Active; 'I' for Inactive)
REMARK    1  A    between atoms: C1_2  and  N1_3 
ROOT
HETATM    1  N1  UNL     1      28.590  15.337  16.153  1.00  0.00    -0.359 N 
HETATM    2  C2  UNL     1      28.764  13.921  16.165  1.00  0.00     0.125 C 
HETATM    3  C3  UNL     1      28.227  13.251  17.389  1.00  0.00     0.020 C 
HETATM    4  C4  UNL     1      28.584  13.964  18.665  1.00  0.00     0.003 C 
HETATM    5  C5  UNL     1      28.553  15.443  18.576  1.00  0.00     0.020 C 
HETATM    6  C6  UNL     1      27.987  15.991  17.305  1.00  0.00     0.125 C 
ENDROOT
BRANCH   1   7
HETATM    7  C1  UNL     1      29.008  16.069  15.013  1.00  0.00     0.350 C 
HETATM    8  O1  UNL     1      28.854  17.296  14.975  1.00  0.00    -0.284 OA
ENDBRANCH   1   7
TORSDOF 1
ENDMDL
MODEL 2
REMARK VINA RESULT: -4.386570762      0.476      1.806
REMARK  1 active torsions:
REMARK  status: ('A' for Active; 'I' for Inactive)
REMARK    1  A    between atoms: C1_2  and  N1_3 
ROOT
HETATM    1  N1  UNL     1      28.932  15.312  16.195  1.00  0.00    -0.359 N 
HETATM    2  C2  UNL     1      28.718  15.964  17.446  1.00  0.00     0.125 C 
HETATM    3  C3  UNL     1      28.679  15.036  18.618  1.00  0.00     0.020 C 
HETATM    4  C4  UNL     1      27.853  13.803  18.375  1.00  0.00     0.003 C 
HETATM    5  C5  UNL     1      27.969  13.239  17.010  1.00  0.00     0.020 C 
HETATM    6  C6  UNL     1      29.027  13.859  16.155  1.00  0.00     0.125 C 
ENDROOT
BRANCH   1   7
HETATM    7  C1  UNL     1      29.047  16.099  15.022  1.00  0.00     0.350 C 
HETATM    8  O1  UNL     1      28.717  17.290  15.040  1.00  0.00    -0.284 OA
ENDBRANCH   1   7
TORSDOF 1
ENDMDL
MODEL 3
REMARK VINA RESULT: -4.271219750      2.779      3.878
REMARK  1 active torsions:
REMARK  status: ('A' for Active; 'I' for Inactive)
REMARK    1  A    between atoms: C1_2  and  N1_3 
ROOT
HETATM    1  N1  UNL     1      27.867  13.735  18.019  1.00  0.00    -0.359 N 
HETATM    2  C2  UNL     1      27.525  15.078  18.358  1.00  0.00     0.125 C 
HETATM    3  C3  UNL     1      27.825  16.074  17.284  1.00  0.00     0.020 C 
HETATM    4  C4  UNL     1      29.178  15.884  16.655  1.00  0.00     0.003 C 
HETATM    5  C5  UNL     1      29.578  14.470  16.464  1.00  0.00     0.020 C 
HETATM    6  C6  UNL     1      28.507  13.464  16.740  1.00  0.00     0.125 C 
ENDROOT
BRANCH   1   7
HETATM    7  C1  UNL     1      27.571  12.699  18.939  1.00  0.00     0.350 C 
HETATM    8  O1  UNL     1      26.666  12.846  19.769  1.00  0.00    -0.284 OA
ENDBRANCH   1   7
TORSDOF 1
ENDMDL
MODEL 4
REMARK VINA RESULT: -4.212739479      2.690      3.499
REMARK  1 active torsions:
REMARK  status: ('A' for Active; 'I' for Inactive)
REMARK    1  A    between atoms: C1_2  and  N1_3 
ROOT
HETATM    1  N1  UNL     1      27.898  13.909  17.914  1.00  0.00    -0.359 N 
HETATM    2  C2  UNL     1      28.820  13.628  16.862  1.00  0.00     0.125 C 
HETATM    3  C3  UNL     1      29.595  14.819  16.397  1.00  0.00     0.020 C 
HETATM    4  C4  UNL     1      28.747  16.047  16.211  1.00  0.00     0.003 C 
HETATM    5  C5  UNL     1      27.686  16.227  17.230  1.00  0.00     0.020 C 
HETATM    6  C6  UNL     1      27.748  15.279  18.384  1.00  0.00     0.125 C 
ENDROOT
BRANCH   1   7
HETATM    7  C1  UNL     1      27.152  12.842  18.475  1.00  0.00     0.350 C 
HETATM    8  O1  UNL     1      26.720  12.929  19.630  1.00  0.00    -0.284 OA
ENDBRANCH   1   7
TORSDOF 1
ENDMDL
MODEL 5
REMARK VINA RESULT: -4.100515561      2.509      3.250
REMARK  1 active torsions:
REMARK  status: ('A' for Active; 'I' for Inactive)
REMARK    1  A    between atoms: C1_2  and  N1_3 
ROOT
HETATM    1  N1  UNL     1      28.002  13.284  17.172  1.00  0.00    -0.359 N 
HETATM    2  C2  UNL     1      28.976  13.594  16.177  1.00  0.00     0.125 C 
HETATM    3  C3  UNL     1      29.714  14.871  16.423  1.00  0.00     0.020 C 
HETATM    4  C4  UNL     1      28.819  16.007  16.837  1.00  0.00     0.003 C 
HETATM    5  C5  UNL     1      27.713  15.624  17.745  1.00  0.00     0.020 C 
HETATM    6  C6  UNL     1      27.772  14.223  18.262  1.00  0.00     0.125 C 
ENDROOT
BRANCH   1   7
HETATM    7  C1  UNL     1      27.283  12.067  17.073  1.00  0.00     0.350 C 
HETATM    8  O1  UNL     1      26.933  11.642  15.966  1.00  0.00    -0.284 OA
ENDBRANCH   1   7
TORSDOF 1
ENDMDL
