MODEL 1
REMARK VINA RESULT: -4.026660127      0.000      0.000
REMARK  1 active torsions:
REMARK  status: ('A' for Active; 'I' for Inactive)
REMARK    1  A    between atoms: C6_7  and  N2_8 
ROOT
HETATM    1  C1  UNL     1      28.939  13.819  19.106  1.00  0.00     0.274 C 
HETATM    2  N1  UNL     1      28.418  14.006  17.763  1.00  0.00    -0.046 N 
HETATM    3  C2  UNL     1      27.587  12.834  17.469  1.00  0.00     0.274 C 
HETATM    4  C3  UNL     1      27.693  15.236  17.635  1.00  0.00     0.239 C 
HETATM    5  C4  UNL     1      28.308  16.036  16.531  1.00  0.00     0.032 C 
HETATM    6  C5  UNL     1      29.707  15.484  16.420  1.00  0.00     0.064 C 
HETATM    7  C6  UNL     1      29.471  14.011  16.766  1.00  0.00     0.384 C 
ENDROOT
BRANCH   7   8
HETATM    8  N2  UNL     1      28.999  13.397  15.519  1.00  0.00    -0.050 N 
ATOM      9  H23 UNL     1      28.572  14.084  14.897  1.00  0.00     0.276 HD
ATOM     10  H22 UNL     1      29.773  13.109  14.920  1.00  0.00     0.276 HD
ATOM     11  H21 UNL     1      28.367  12.623  15.721  1.00  0.00     0.276 HD
ENDBRANCH   7   8
TORSDOF 1
ENDMDL
MODEL 2
REMARK VINA RESULT: -3.979676484      1.058      2.480
REMARK  1 active torsions:
REMARK  status: ('A' for Active; 'I' for Inactive)
REMARK    1  A    between atoms: C6_7  and  N2_8 
ROOT
HETATM    1  C1  UNL     1      27.325  12.934  17.670  1.00  0.00     0.274 C 
HETATM    2  N1  UNL     1      28.331  13.905  18.066  1.00  0.00    -0.046 N 
HETATM    3  C2  UNL     1      28.916  13.415  19.319  1.00  0.00     0.274 C 
HETATM    4  C3  UNL     1      29.318  14.102  17.045  1.00  0.00     0.239 C 
HETATM    5  C4  UNL     1      29.355  15.557  16.697  1.00  0.00     0.032 C 
HETATM    6  C5  UNL     1      28.007  16.069  17.140  1.00  0.00     0.064 C 
HETATM    7  C6  UNL     1      27.750  15.197  18.372  1.00  0.00     0.384 C 
ENDROOT
BRANCH   7   8
HETATM    8  N2  UNL     1      28.491  15.847  19.460  1.00  0.00    -0.050 N 
ATOM      9  H23 UNL     1      27.903  16.003  20.279  1.00  0.00     0.276 HD
ATOM     10  H22 UNL     1      29.176  15.219  19.882  1.00  0.00     0.276 HD
ATOM     11  H21 UNL     1      28.921  16.711  19.131  1.00  0.00     0.276 HD
ENDBRANCH   7   8
TORSDOF 1
ENDMDL
MODEL 3
REMARK VINA RESULT: -3.854971848      1.071      3.054
REMARK  1 active torsions:
REMARK  status: ('A' for Active; 'I' for Inactive)
REMARK    1  A    between atoms: C6_7  and  N2_8 
ROOT
HETATM    1  C1  UNL     1      30.119  14.315  16.899  1.00  0.00     0.274 C 
HETATM    2  N1  UNL     1      28.701  14.317  17.216  1.00  0.00    -0.046 N 
HETATM    3  C2  UNL     1      28.151  15.562  16.668  1.00  0.00     0.274 C 
HETATM    4  C3  UNL     1      28.035  13.155  16.704  1.00  0.00     0.239 C 
HETATM    5  C4  UNL     1      27.363  12.454  17.842  1.00  0.00     0.032 C 
HETATM    6  C5  UNL     1      28.117  12.933  19.058  1.00  0.00     0.064 C 
HETATM    7  C6  UNL     1      28.462  14.367  18.645  1.00  0.00     0.384 C 
ENDROOT
BRANCH   7   8
HETATM    8  N2  UNL     1      27.254  15.148  18.935  1.00  0.00    -0.050 N 
ATOM      9  H23 UNL     1      27.476  16.112  19.185  1.00  0.00     0.276 HD
ATOM     10  H22 UNL     1      26.709  15.331  18.093  1.00  0.00     0.276 HD
ATOM     11  H21 UNL     1      26.697  14.687  19.655  1.00  0.00     0.276 HD
ENDBRANCH   7   8
TORSDOF 1
ENDMDL
MODEL 4
REMARK VINA RESULT: -3.698203015      0.880      2.727
REMARK  1 active torsions:
REMARK  status: ('A' for Active; 'I' for Inactive)
REMARK    1  A    between atoms: C6_7  and  N2_8 
ROOT
HETATM    1  C1  UNL     1      28.036  15.794  17.223  1.00  0.00     0.274 C 
HETATM    2  N1  UNL     1      28.691  14.515  17.440  1.00  0.00    -0.046 N 
HETATM    3  C2  UNL     1      29.918  14.530  16.636  1.00  0.00     0.274 C 
HETATM    4  C3  UNL     1      28.952  14.274  18.829  1.00  0.00     0.239 C 
HETATM    5  C4  UNL     1      28.305  12.983  19.216  1.00  0.00     0.032 C 
HETATM    6  C5  UNL     1      27.230  12.790  18.176  1.00  0.00     0.064 C 
HETATM    7  C6  UNL     1      27.899  13.407  16.943  1.00  0.00     0.384 C 
ENDROOT
BRANCH   7   8
HETATM    8  N2  UNL     1      28.771  12.351  16.415  1.00  0.00    -0.050 N 
ATOM      9  H23 UNL     1      28.669  11.479  16.935  1.00  0.00     0.276 HD
ATOM     10  H22 UNL     1      28.458  12.021  15.502  1.00  0.00     0.276 HD
ATOM     11  H21 UNL     1      29.740  12.668  16.392  1.00  0.00     0.276 HD
ENDBRANCH   7   8
TORSDOF 1
ENDMDL
MODEL 5
REMARK VINA RESULT: -3.540724575      1.615      2.749
REMARK  1 active torsions:
REMARK  status: ('A' for Active; 'I' for Inactive)
REMARK    1  A    between atoms: C6_7  and  N2_8 
ROOT
HETATM    1  C1  UNL     1      30.512  14.483  16.591  1.00  0.00     0.274 C 
HETATM    2  N1  UNL     1      29.105  14.842  16.539  1.00  0.00    -0.046 N 
HETATM    3  C2  UNL     1      28.821  15.226  15.152  1.00  0.00     0.274 C 
HETATM    4  C3  UNL     1      28.262  13.774  16.993  1.00  0.00     0.239 C 
HETATM    5  C4  UNL     1      27.418  14.283  18.118  1.00  0.00     0.032 C 
HETATM    6  C5  UNL     1      28.186  15.471  18.640  1.00  0.00     0.064 C 
HETATM    7  C6  UNL     1      28.810  16.008  17.348  1.00  0.00     0.384 C 
ENDROOT
BRANCH   7   8
HETATM    8  N2  UNL     1      27.754  16.812  16.721  1.00  0.00    -0.050 N 
ATOM      9  H23 UNL     1      27.026  16.227  16.309  1.00  0.00     0.276 HD
ATOM     10  H22 UNL     1      27.184  17.298  17.414  1.00  0.00     0.276 HD
ATOM     11  H21 UNL     1      28.154  17.457  16.040  1.00  0.00     0.276 HD
ENDBRANCH   7   8
TORSDOF 1
ENDMDL
