MODEL 1
REMARK VINA RESULT: -4.476446031      0.000      0.000
REMARK  2 active torsions:
REMARK  status: ('A' for Active; 'I' for Inactive)
REMARK    1  A    between atoms: C2_2  and  C3_3 
REMARK    2  A    between atoms: C5_5  and  C6_6 
ROOT
HETATM    1  C3  UNL     1      45.709  19.098  51.200  1.00  0.00     0.018 A 
HETATM    2  C4  UNL     1      45.781  20.441  50.619  1.00  0.00     0.012 A 
HETATM    3  C5  UNL     1      44.697  21.425  50.622  1.00  0.00     0.085 A 
HETATM    4  C7  UNL     1      44.532  19.866  50.488  1.00  0.00     0.012 A 
ENDROOT
BRANCH   3   5
HETATM    5  C6  UNL     1      44.390  22.205  49.398  1.00  0.00     0.236 C 
HETATM    6  N1  UNL     1      45.490  22.586  48.580  1.00  0.00    -0.062 NA
HETATM    7  O1  UNL     1      43.246  22.536  49.056  1.00  0.00    -0.276 OA
ENDBRANCH   3   5
BRANCH   1   8
HETATM    8  C2  UNL     1      45.645  19.075  52.685  1.00  0.00    -0.031 C 
HETATM    9  C1  UNL     1      45.577  17.931  53.340  1.00  0.00     0.007 C 
ENDBRANCH   1   8
TORSDOF 2
ENDMDL
MODEL 2
REMARK VINA RESULT: -4.472591317      1.375      1.416
REMARK  2 active torsions:
REMARK  status: ('A' for Active; 'I' for Inactive)
REMARK    1  A    between atoms: C2_2  and  C3_3 
REMARK    2  A    between atoms: C5_5  and  C6_6 
ROOT
HETATM    1  C3  UNL     1      45.025  18.688  51.532  1.00  0.00     0.018 A 
HETATM    2  C4  UNL     1      45.711  19.347  50.417  1.00  0.00     0.012 A 
HETATM    3  C5  UNL     1      45.788  20.794  50.206  1.00  0.00     0.085 A 
HETATM    4  C7  UNL     1      44.564  20.010  50.809  1.00  0.00     0.012 A 
ENDROOT
BRANCH   3   5
HETATM    5  C6  UNL     1      45.574  21.366  48.854  1.00  0.00     0.236 C 
HETATM    6  N1  UNL     1      45.073  22.695  48.785  1.00  0.00    -0.062 NA
HETATM    7  O1  UNL     1      45.804  20.756  47.800  1.00  0.00    -0.276 OA
ENDBRANCH   3   5
BRANCH   1   8
HETATM    8  C2  UNL     1      45.678  18.881  52.854  1.00  0.00    -0.031 C 
HETATM    9  C1  UNL     1      45.667  17.920  53.758  1.00  0.00     0.007 C 
ENDBRANCH   1   8
TORSDOF 2
ENDMDL
MODEL 3
REMARK VINA RESULT: -4.463181534      1.094      1.094
REMARK  2 active torsions:
REMARK  status: ('A' for Active; 'I' for Inactive)
REMARK    1  A    between atoms: C2_2  and  C3_3 
REMARK    2  A    between atoms: C5_5  and  C6_6 
ROOT
HETATM    1  C3  UNL     1      45.694  18.966  51.328  1.00  0.00     0.018 A 
HETATM    2  C4  UNL     1      45.884  20.273  50.693  1.00  0.00     0.012 A 
HETATM    3  C5  UNL     1      44.884  21.340  50.635  1.00  0.00     0.085 A 
HETATM    4  C7  UNL     1      44.594  19.795  50.562  1.00  0.00     0.012 A 
ENDROOT
BRANCH   3   5
HETATM    5  C6  UNL     1      44.661  22.089  49.373  1.00  0.00     0.236 C 
HETATM    6  N1  UNL     1      43.352  22.596  49.145  1.00  0.00    -0.062 NA
HETATM    7  O1  UNL     1      45.540  22.292  48.524  1.00  0.00    -0.276 OA
ENDBRANCH   3   5
BRANCH   1   8
HETATM    8  C2  UNL     1      45.606  19.012  52.812  1.00  0.00    -0.031 C 
HETATM    9  C1  UNL     1      45.620  17.901  53.523  1.00  0.00     0.007 C 
ENDBRANCH   1   8
TORSDOF 2
ENDMDL
MODEL 4
REMARK VINA RESULT: -4.295053798      1.597      1.880
REMARK  2 active torsions:
REMARK  status: ('A' for Active; 'I' for Inactive)
REMARK    1  A    between atoms: C2_2  and  C3_3 
REMARK    2  A    between atoms: C5_5  and  C6_6 
ROOT
HETATM    1  C3  UNL     1      46.046  19.341  52.658  1.00  0.00     0.018 A 
HETATM    2  C4  UNL     1      45.106  20.021  51.762  1.00  0.00     0.012 A 
HETATM    3  C5  UNL     1      44.620  19.493  50.486  1.00  0.00     0.085 A 
HETATM    4  C7  UNL     1      46.061  19.289  51.083  1.00  0.00     0.012 A 
ENDROOT
BRANCH   3   5
HETATM    5  C6  UNL     1      44.543  20.371  49.293  1.00  0.00     0.236 C 
HETATM    6  N1  UNL     1      43.831  21.594  49.434  1.00  0.00    -0.062 NA
HETATM    7  O1  UNL     1      45.058  20.099  48.199  1.00  0.00    -0.276 OA
ENDBRANCH   3   5
BRANCH   1   8
HETATM    8  C2  UNL     1      45.492  18.135  53.328  1.00  0.00    -0.031 C 
HETATM    9  C1  UNL     1      45.642  17.957  54.627  1.00  0.00     0.007 C 
ENDBRANCH   1   8
TORSDOF 2
ENDMDL
MODEL 5
REMARK VINA RESULT: -4.282340364      3.154      4.562
REMARK  2 active torsions:
REMARK  status: ('A' for Active; 'I' for Inactive)
REMARK    1  A    between atoms: C2_2  and  C3_3 
REMARK    2  A    between atoms: C5_5  and  C6_6 
ROOT
HETATM    1  C3  UNL     1      44.599  21.366  50.315  1.00  0.00     0.018 A 
HETATM    2  C4  UNL     1      45.102  20.579  51.445  1.00  0.00     0.012 A 
HETATM    3  C5  UNL     1      45.633  19.218  51.359  1.00  0.00     0.085 A 
HETATM    4  C7  UNL     1      44.455  19.808  50.499  1.00  0.00     0.012 A 
ENDROOT
BRANCH   3   5
HETATM    5  C6  UNL     1      45.239  18.196  52.361  1.00  0.00     0.236 C 
HETATM    6  N1  UNL     1      45.823  18.299  53.653  1.00  0.00    -0.062 NA
HETATM    7  O1  UNL     1      44.442  17.275  52.134  1.00  0.00    -0.276 OA
ENDBRANCH   3   5
BRANCH   1   8
HETATM    8  C2  UNL     1      45.648  21.798  49.354  1.00  0.00    -0.031 C 
HETATM    9  C1  UNL     1      45.678  23.038  48.902  1.00  0.00     0.007 C 
ENDBRANCH   1   8
TORSDOF 2
ENDMDL
