MODEL 1
REMARK VINA RESULT: -4.325277014      0.000      0.000
REMARK  4 active torsions:
REMARK  status: ('A' for Active; 'I' for Inactive)
REMARK    1  A    between atoms: C2_2  and  C3_3 
REMARK    2  A    between atoms: C3_3  and  N1_4 
REMARK    3  A    between atoms: N1_4  and  C4_5 
REMARK    4  A    between atoms: C4_5  and  C6_7 
ROOT
HETATM    1  C4  UNL     1      45.446  18.857  52.595  1.00  0.00     0.156 C 
HETATM    2  C5  UNL     1      45.751  18.057  53.769  1.00  0.00     0.092 C 
ENDROOT
BRANCH   1   3
HETATM    3  N1  UNL     1      45.648  20.080  52.704  1.00  0.00    -0.416 NA
BRANCH   3   4
HETATM    4  C3  UNL     1      45.881  21.327  52.725  1.00  0.00     0.182 C 
BRANCH   4   5
HETATM    5  C2  UNL     1      46.758  21.777  51.695  1.00  0.00     0.021 C 
HETATM    6  C1  UNL     1      46.301  21.983  50.486  1.00  0.00     0.013 C 
ENDBRANCH   4   5
ENDBRANCH   3   4
ENDBRANCH   1   3
BRANCH   1   7
HETATM    7  C6  UNL     1      44.950  18.409  51.353  1.00  0.00     0.236 C 
HETATM    8  O1  UNL     1      43.791  17.953  51.129  1.00  0.00    -0.642 OA
HETATM    9  O2  UNL     1      45.791  18.458  50.246  1.00  0.00    -0.642 OA
ENDBRANCH   1   7
TORSDOF 4
ENDMDL
MODEL 2
REMARK VINA RESULT: -4.013990809      2.376      3.749
REMARK  4 active torsions:
REMARK  status: ('A' for Active; 'I' for Inactive)
REMARK    1  A    between atoms: C2_2  and  C3_3 
REMARK    2  A    between atoms: C3_3  and  N1_4 
REMARK    3  A    between atoms: N1_4  and  C4_5 
REMARK    4  A    between atoms: C4_5  and  C6_7 
ROOT
HETATM    1  C4  UNL     1      44.529  21.468  50.924  1.00  0.00     0.156 C 
HETATM    2  C5  UNL     1      44.431  22.602  51.827  1.00  0.00     0.092 C 
ENDROOT
BRANCH   1   3
HETATM    3  N1  UNL     1      45.219  20.513  51.326  1.00  0.00    -0.416 NA
BRANCH   3   4
HETATM    4  C3  UNL     1      46.000  19.593  51.719  1.00  0.00     0.182 C 
BRANCH   4   5
HETATM    5  C2  UNL     1      45.338  18.467  52.290  1.00  0.00     0.021 C 
HETATM    6  C1  UNL     1      45.631  18.079  53.505  1.00  0.00     0.013 C 
ENDBRANCH   4   5
ENDBRANCH   3   4
ENDBRANCH   1   3
BRANCH   1   7
HETATM    7  C6  UNL     1      43.938  21.326  49.652  1.00  0.00     0.236 C 
HETATM    8  O1  UNL     1      43.836  20.253  48.988  1.00  0.00    -0.642 OA
HETATM    9  O2  UNL     1      43.407  22.455  49.037  1.00  0.00    -0.642 OA
ENDBRANCH   1   7
TORSDOF 4
ENDMDL
MODEL 3
REMARK VINA RESULT: -3.940646891      1.691      2.439
REMARK  4 active torsions:
REMARK  status: ('A' for Active; 'I' for Inactive)
REMARK    1  A    between atoms: C2_2  and  C3_3 
REMARK    2  A    between atoms: C3_3  and  N1_4 
REMARK    3  A    between atoms: N1_4  and  C4_5 
REMARK    4  A    between atoms: C4_5  and  C6_7 
ROOT
HETATM    1  C4  UNL     1      45.269  20.227  51.548  1.00  0.00     0.156 C 
HETATM    2  C5  UNL     1      45.836  20.953  52.672  1.00  0.00     0.092 C 
ENDROOT
BRANCH   1   3
HETATM    3  N1  UNL     1      44.585  20.902  50.756  1.00  0.00    -0.416 NA
BRANCH   3   4
HETATM    4  C3  UNL     1      43.968  21.632  49.922  1.00  0.00     0.182 C 
BRANCH   4   5
HETATM    5  C2  UNL     1      44.563  22.910  49.711  1.00  0.00     0.021 C 
HETATM    6  C1  UNL     1      45.707  23.008  49.083  1.00  0.00     0.013 C 
ENDBRANCH   4   5
ENDBRANCH   3   4
ENDBRANCH   1   3
BRANCH   1   7
HETATM    7  C6  UNL     1      45.402  18.854  51.253  1.00  0.00     0.236 C 
HETATM    8  O1  UNL     1      45.802  18.358  50.160  1.00  0.00    -0.642 OA
HETATM    9  O2  UNL     1      45.069  17.929  52.237  1.00  0.00    -0.642 OA
ENDBRANCH   1   7
TORSDOF 4
ENDMDL
MODEL 4
REMARK VINA RESULT: -3.935889766      2.137      2.604
REMARK  4 active torsions:
REMARK  status: ('A' for Active; 'I' for Inactive)
REMARK    1  A    between atoms: C2_2  and  C3_3 
REMARK    2  A    between atoms: C3_3  and  N1_4 
REMARK    3  A    between atoms: N1_4  and  C4_5 
REMARK    4  A    between atoms: C4_5  and  C6_7 
ROOT
HETATM    1  C4  UNL     1      45.271  20.213  51.616  1.00  0.00     0.156 C 
HETATM    2  C5  UNL     1      45.873  20.968  52.703  1.00  0.00     0.092 C 
ENDROOT
BRANCH   1   3
HETATM    3  N1  UNL     1      44.610  20.876  50.796  1.00  0.00    -0.416 NA
BRANCH   3   4
HETATM    4  C3  UNL     1      44.019  21.589  49.929  1.00  0.00     0.182 C 
BRANCH   4   5
HETATM    5  C2  UNL     1      43.533  22.833  50.426  1.00  0.00     0.021 C 
HETATM    6  C1  UNL     1      42.785  23.596  49.670  1.00  0.00     0.013 C 
ENDBRANCH   4   5
ENDBRANCH   3   4
ENDBRANCH   1   3
BRANCH   1   7
HETATM    7  C6  UNL     1      45.348  18.823  51.387  1.00  0.00     0.236 C 
HETATM    8  O1  UNL     1      45.051  17.910  52.211  1.00  0.00    -0.642 OA
HETATM    9  O2  UNL     1      45.791  18.380  50.146  1.00  0.00    -0.642 OA
ENDBRANCH   1   7
TORSDOF 4
ENDMDL
MODEL 5
REMARK VINA RESULT: -3.928263161      1.542      2.074
REMARK  4 active torsions:
REMARK  status: ('A' for Active; 'I' for Inactive)
REMARK    1  A    between atoms: C2_2  and  C3_3 
REMARK    2  A    between atoms: C3_3  and  N1_4 
REMARK    3  A    between atoms: N1_4  and  C4_5 
REMARK    4  A    between atoms: C4_5  and  C6_7 
ROOT
HETATM    1  C4  UNL     1      45.528  19.144  52.036  1.00  0.00     0.156 C 
HETATM    2  C5  UNL     1      45.564  19.030  50.588  1.00  0.00     0.092 C 
ENDROOT
BRANCH   1   3
HETATM    3  N1  UNL     1      45.651  20.296  52.492  1.00  0.00    -0.416 NA
BRANCH   3   4
HETATM    4  C3  UNL     1      45.789  21.500  52.868  1.00  0.00     0.182 C 
BRANCH   4   5
HETATM    5  C2  UNL     1      46.949  22.146  52.349  1.00  0.00     0.021 C 
HETATM    6  C1  UNL     1      47.001  22.487  51.086  1.00  0.00     0.013 C 
ENDBRANCH   4   5
ENDBRANCH   3   4
ENDBRANCH   1   3
BRANCH   1   7
HETATM    7  C6  UNL     1      45.372  18.107  52.979  1.00  0.00     0.236 C 
HETATM    8  O1  UNL     1      45.830  18.091  54.158  1.00  0.00    -0.642 OA
HETATM    9  O2  UNL     1      44.653  16.976  52.608  1.00  0.00    -0.642 OA
ENDBRANCH   1   7
TORSDOF 4
ENDMDL
