MODEL 1
REMARK VINA RESULT: -8.345459151      0.000      0.000
REMARK  5 active torsions:
REMARK  status: ('A' for Active; 'I' for Inactive)
REMARK    1  A    between atoms: N1_4  and  C4_5 
REMARK    2  A    between atoms: C4_5  and  C5_6 
REMARK    3  A    between atoms: C5_6  and  C6_7 
REMARK    4  A    between atoms: C8_9  and  C9_10 
REMARK    5  A    between atoms: C14_17  and  O1_18 
ROOT
HETATM    1  C6  UNL     1       9.558  24.242 120.195  1.00  0.00    -0.021 A 
HETATM    2  C7  UNL     1       8.909  23.039 119.844  1.00  0.00     0.019 A 
HETATM    3  C8  UNL     1       9.587  21.954 119.356  1.00  0.00    -0.033 A 
HETATM    4  C12 UNL     1      10.981  22.085 119.224  1.00  0.00     0.035 A 
HETATM    5  C13 UNL     1      11.608  23.244 119.562  1.00  0.00     0.068 A 
HETATM    6 CL2  UNL     1      13.344  23.411 119.399  1.00  0.00    -0.081 Cl
HETATM    7  C14 UNL     1      10.907  24.339 120.050  1.00  0.00     0.093 A 
ENDROOT
BRANCH   1   8
HETATM    8  C5  UNL     1       8.722  25.354 120.659  1.00  0.00     0.072 C 
BRANCH   8   9
HETATM    9  C4  UNL     1       8.074  26.075 119.537  1.00  0.00     0.277 C 
BRANCH   9  10
HETATM   10  N1  UNL     1       6.647  25.894 119.466  1.00  0.00     0.094 N 
HETATM   11  C3  UNL     1       6.041  26.875 120.327  1.00  0.00     0.277 C 
HETATM   12  C2  UNL     1       5.483  27.958 119.424  1.00  0.00     0.011 C 
HETATM   13  C1  UNL     1       5.239  29.261 120.068  1.00  0.00     0.011 C 
HETATM   14  C20 UNL     1       4.277  27.318 118.768  1.00  0.00     0.016 C 
HETATM   15  C17 UNL     1       4.777  26.202 117.894  1.00  0.00    -0.017 C 
HETATM   16  C15 UNL     1       6.199  25.811 118.151  1.00  0.00     0.226 C 
HETATM   17  C18 UNL     1       3.818  25.023 117.956  1.00  0.00     0.017 C 
HETATM   18  C19 UNL     1       4.723  26.707 116.461  1.00  0.00     0.017 C 
HETATM   19  C16 UNL     1       6.284  24.315 117.746  1.00  0.00     0.043 C 
ENDBRANCH   9  10
ENDBRANCH   8   9
ENDBRANCH   1   8
BRANCH   7  20
HETATM   20  O1  UNL     1      11.580  25.507 120.382  1.00  0.00    -0.358 OA
ATOM     21  H1  UNL     1      11.937  25.636 121.253  1.00  0.00     0.217 HD
ENDBRANCH   7  20
BRANCH   3  22
HETATM   22  C9  UNL     1       8.926  20.729 118.908  1.00  0.00     0.057 C 
HETATM   23  C10 UNL     1       9.958  19.624 118.797  1.00  0.00     0.037 C 
HETATM   24  C11 UNL     1       7.785  20.340 119.769  1.00  0.00     0.037 C 
HETATM   25 CL1  UNL     1       8.264  21.038 117.250  1.00  0.00    -0.115 Cl
ENDBRANCH   3  22
TORSDOF 5
ENDMDL
MODEL 2
REMARK VINA RESULT: -8.251323452      1.248      1.530
REMARK  5 active torsions:
REMARK  status: ('A' for Active; 'I' for Inactive)
REMARK    1  A    between atoms: N1_4  and  C4_5 
REMARK    2  A    between atoms: C4_5  and  C5_6 
REMARK    3  A    between atoms: C5_6  and  C6_7 
REMARK    4  A    between atoms: C8_9  and  C9_10 
REMARK    5  A    between atoms: C14_17  and  O1_18 
ROOT
HETATM    1  C6  UNL     1       9.852  24.075 119.931  1.00  0.00    -0.021 A 
HETATM    2  C7  UNL     1       9.490  22.726 119.733  1.00  0.00     0.019 A 
HETATM    3  C8  UNL     1      10.417  21.738 119.531  1.00  0.00    -0.033 A 
HETATM    4  C12 UNL     1      11.768  22.128 119.536  1.00  0.00     0.035 A 
HETATM    5  C13 UNL     1      12.119  23.428 119.726  1.00  0.00     0.068 A 
HETATM    6 CL2  UNL     1      13.801  23.917 119.733  1.00  0.00    -0.081 Cl
HETATM    7  C14 UNL     1      11.168  24.421 119.924  1.00  0.00     0.093 A 
ENDROOT
BRANCH   1   8
HETATM    8  C5  UNL     1       8.770  25.053 120.086  1.00  0.00     0.072 C 
BRANCH   8   9
HETATM    9  C4  UNL     1       7.743  24.928 119.024  1.00  0.00     0.277 C 
BRANCH   9  10
HETATM   10  N1  UNL     1       6.488  25.561 119.339  1.00  0.00     0.094 N 
HETATM   11  C3  UNL     1       6.755  26.600 120.299  1.00  0.00     0.277 C 
HETATM   12  C2  UNL     1       6.697  27.913 119.543  1.00  0.00     0.011 C 
HETATM   13  C1  UNL     1       7.379  29.049 120.187  1.00  0.00     0.011 C 
HETATM   14  C20 UNL     1       5.225  28.116 119.251  1.00  0.00     0.016 C 
HETATM   15  C17 UNL     1       4.797  27.024 118.311  1.00  0.00    -0.017 C 
HETATM   16  C15 UNL     1       5.774  25.896 118.193  1.00  0.00     0.226 C 
HETATM   17  C18 UNL     1       3.392  26.557 118.662  1.00  0.00     0.017 C 
HETATM   18  C19 UNL     1       4.693  27.648 116.928  1.00  0.00     0.017 C 
HETATM   19  C16 UNL     1       4.914  24.656 117.828  1.00  0.00     0.043 C 
ENDBRANCH   9  10
ENDBRANCH   8   9
ENDBRANCH   1   8
BRANCH   7  20
HETATM   20  O1  UNL     1      11.563  25.738 120.111  1.00  0.00    -0.358 OA
ATOM     21  H1  UNL     1      11.974  26.016 120.922  1.00  0.00     0.217 HD
ENDBRANCH   7  20
BRANCH   3  22
HETATM   22  C9  UNL     1      10.061  20.350 119.242  1.00  0.00     0.057 C 
HETATM   23  C10 UNL     1       8.675  20.313 118.631  1.00  0.00     0.037 C 
HETATM   24  C11 UNL     1      11.061  19.661 118.395  1.00  0.00     0.037 C 
HETATM   25 CL1  UNL     1       9.996  19.461 120.821  1.00  0.00    -0.115 Cl
ENDBRANCH   3  22
TORSDOF 5
ENDMDL
MODEL 3
REMARK VINA RESULT: -7.903567903      2.108      3.509
REMARK  5 active torsions:
REMARK  status: ('A' for Active; 'I' for Inactive)
REMARK    1  A    between atoms: N1_4  and  C4_5 
REMARK    2  A    between atoms: C4_5  and  C5_6 
REMARK    3  A    between atoms: C5_6  and  C6_7 
REMARK    4  A    between atoms: C8_9  and  C9_10 
REMARK    5  A    between atoms: C14_17  and  O1_18 
ROOT
HETATM    1  C6  UNL     1       8.731  22.760 118.637  1.00  0.00    -0.021 A 
HETATM    2  C7  UNL     1       9.511  23.909 118.889  1.00  0.00     0.019 A 
HETATM    3  C8  UNL     1      10.796  23.836 119.357  1.00  0.00    -0.033 A 
HETATM    4  C12 UNL     1      11.319  22.550 119.575  1.00  0.00     0.035 A 
HETATM    5  C13 UNL     1      10.569  21.441 119.333  1.00  0.00     0.068 A 
HETATM    6 CL2  UNL     1      11.217  19.836 119.604  1.00  0.00    -0.081 Cl
HETATM    7  C14 UNL     1       9.264  21.529 118.863  1.00  0.00     0.093 A 
ENDROOT
BRANCH   1   8
HETATM    8  C5  UNL     1       7.350  22.962 118.184  1.00  0.00     0.072 C 
BRANCH   8   9
HETATM    9  C4  UNL     1       7.132  24.323 117.637  1.00  0.00     0.277 C 
BRANCH   9  10
HETATM   10  N1  UNL     1       6.087  25.063 118.296  1.00  0.00     0.094 N 
HETATM   11  C3  UNL     1       6.611  25.528 119.553  1.00  0.00     0.277 C 
HETATM   12  C2  UNL     1       6.910  27.005 119.378  1.00  0.00     0.011 C 
HETATM   13  C1  UNL     1       7.863  27.581 120.342  1.00  0.00     0.011 C 
HETATM   14  C20 UNL     1       5.547  27.663 119.335  1.00  0.00     0.016 C 
HETATM   15  C17 UNL     1       4.853  27.183 118.091  1.00  0.00    -0.017 C 
HETATM   16  C15 UNL     1       5.497  25.994 117.448  1.00  0.00     0.226 C 
HETATM   17  C18 UNL     1       3.371  26.975 118.370  1.00  0.00     0.017 C 
HETATM   18  C19 UNL     1       4.930  28.314 117.078  1.00  0.00     0.017 C 
HETATM   19  C16 UNL     1       4.342  25.259 116.716  1.00  0.00     0.043 C 
ENDBRANCH   9  10
ENDBRANCH   8   9
ENDBRANCH   1   8
BRANCH   7  20
HETATM   20  O1  UNL     1       8.527  20.376 118.631  1.00  0.00    -0.358 OA
ATOM     21  H1  UNL     1       8.580  19.634 119.222  1.00  0.00     0.217 HD
ENDBRANCH   7  20
BRANCH   3  22
HETATM   22  C9  UNL     1      11.592  25.014 119.702  1.00  0.00     0.057 C 
HETATM   23  C10 UNL     1      13.000  24.572 120.046  1.00  0.00     0.037 C 
HETATM   24  C11 UNL     1      11.576  26.052 118.646  1.00  0.00     0.037 C 
HETATM   25 CL1  UNL     1      10.862  25.751 121.188  1.00  0.00    -0.115 Cl
ENDBRANCH   3  22
TORSDOF 5
ENDMDL
MODEL 4
REMARK VINA RESULT: -7.798688449      2.798      6.764
REMARK  5 active torsions:
REMARK  status: ('A' for Active; 'I' for Inactive)
REMARK    1  A    between atoms: N1_4  and  C4_5 
REMARK    2  A    between atoms: C4_5  and  C5_6 
REMARK    3  A    between atoms: C5_6  and  C6_7 
REMARK    4  A    between atoms: C8_9  and  C9_10 
REMARK    5  A    between atoms: C14_17  and  O1_18 
ROOT
HETATM    1  C6  UNL     1       7.948  25.164 119.670  1.00  0.00    -0.021 A 
HETATM    2  C7  UNL     1       6.958  24.940 118.691  1.00  0.00     0.019 A 
HETATM    3  C8  UNL     1       6.128  25.933 118.244  1.00  0.00    -0.033 A 
HETATM    4  C12 UNL     1       6.309  27.210 118.806  1.00  0.00     0.035 A 
HETATM    5  C13 UNL     1       7.263  27.428 119.750  1.00  0.00     0.068 A 
HETATM    6 CL2  UNL     1       7.490  29.016 120.452  1.00  0.00    -0.081 Cl
HETATM    7  C14 UNL     1       8.094  26.410 120.198  1.00  0.00     0.093 A 
ENDROOT
BRANCH   1   8
HETATM    8  C5  UNL     1       8.746  24.013 120.107  1.00  0.00     0.072 C 
BRANCH   8   9
HETATM    9  C4  UNL     1      10.083  23.981 119.467  1.00  0.00     0.277 C 
BRANCH   9  10
HETATM   10  N1  UNL     1      10.419  22.718 118.863  1.00  0.00     0.094 N 
HETATM   11  C3  UNL     1      11.850  22.676 118.711  1.00  0.00     0.277 C 
HETATM   12  C2  UNL     1      12.376  21.767 119.806  1.00  0.00     0.011 C 
HETATM   13  C1  UNL     1      13.801  21.934 120.142  1.00  0.00     0.011 C 
HETATM   14  C20 UNL     1      11.966  20.376 119.370  1.00  0.00     0.016 C 
HETATM   15  C17 UNL     1      10.465  20.317 119.403  1.00  0.00    -0.017 C 
HETATM   16  C15 UNL     1       9.798  21.653 119.509  1.00  0.00     0.226 C 
HETATM   17  C18 UNL     1       9.951  19.489 118.234  1.00  0.00     0.017 C 
HETATM   18  C19 UNL     1      10.082  19.546 120.657  1.00  0.00     0.017 C 
HETATM   19  C16 UNL     1       8.415  21.468 118.829  1.00  0.00     0.043 C 
ENDBRANCH   9  10
ENDBRANCH   8   9
ENDBRANCH   1   8
BRANCH   7  20
HETATM   20  O1  UNL     1       9.055  26.668 121.167  1.00  0.00    -0.358 OA
ATOM     21  H1  UNL     1       9.171  27.542 121.519  1.00  0.00     0.217 HD
ENDBRANCH   7  20
BRANCH   3  22
HETATM   22  C9  UNL     1       5.042  25.705 117.292  1.00  0.00     0.057 C 
HETATM   23  C10 UNL     1       5.625  25.174 115.997  1.00  0.00     0.037 C 
HETATM   24  C11 UNL     1       3.980  24.822 117.827  1.00  0.00     0.037 C 
HETATM   25 CL1  UNL     1       4.276  27.309 116.939  1.00  0.00    -0.115 Cl
ENDBRANCH   3  22
TORSDOF 5
ENDMDL
MODEL 5
REMARK VINA RESULT: -7.762301959      2.829      5.155
REMARK  5 active torsions:
REMARK  status: ('A' for Active; 'I' for Inactive)
REMARK    1  A    between atoms: N1_4  and  C4_5 
REMARK    2  A    between atoms: C4_5  and  C5_6 
REMARK    3  A    between atoms: C5_6  and  C6_7 
REMARK    4  A    between atoms: C8_9  and  C9_10 
REMARK    5  A    between atoms: C14_17  and  O1_18 
ROOT
HETATM    1  C6  UNL     1      11.962  21.974 119.537  1.00  0.00    -0.021 A 
HETATM    2  C7  UNL     1      13.032  22.888 119.640  1.00  0.00     0.019 A 
HETATM    3  C8  UNL     1      14.240  22.545 120.187  1.00  0.00    -0.033 A 
HETATM    4  C12 UNL     1      14.377  21.222 120.643  1.00  0.00     0.035 A 
HETATM    5  C13 UNL     1      13.345  20.340 120.545  1.00  0.00     0.068 A 
HETATM    6 CL2  UNL     1      13.511  18.692 121.113  1.00  0.00    -0.081 Cl
HETATM    7  C14 UNL     1      12.123  20.703 119.993  1.00  0.00     0.093 A 
ENDROOT
BRANCH   1   8
HETATM    8  C5  UNL     1      10.698  22.469 118.979  1.00  0.00     0.072 C 
BRANCH   8   9
HETATM    9  C4  UNL     1       9.889  23.201 119.983  1.00  0.00     0.277 C 
BRANCH   9  10
HETATM   10  N1  UNL     1       9.353  24.451 119.511  1.00  0.00     0.094 N 
HETATM   11  C3  UNL     1       8.832  24.227 118.188  1.00  0.00     0.277 C 
HETATM   12  C2  UNL     1       7.323  24.162 118.321  1.00  0.00     0.011 C 
HETATM   13  C1  UNL     1       6.615  23.493 117.216  1.00  0.00     0.011 C 
HETATM   14  C20 UNL     1       6.906  25.592 118.593  1.00  0.00     0.016 C 
HETATM   15  C17 UNL     1       7.470  25.980 119.931  1.00  0.00    -0.017 C 
HETATM   16  C15 UNL     1       8.517  25.045 120.451  1.00  0.00     0.226 C 
HETATM   17  C18 UNL     1       7.933  27.430 119.900  1.00  0.00     0.017 C 
HETATM   18  C19 UNL     1       6.320  25.933 120.925  1.00  0.00     0.017 C 
HETATM   19  C16 UNL     1       9.422  25.921 121.359  1.00  0.00     0.043 C 
ENDBRANCH   9  10
ENDBRANCH   8   9
ENDBRANCH   1   8
BRANCH   7  20
HETATM   20  O1  UNL     1      11.092  19.778 119.913  1.00  0.00    -0.358 OA
ATOM     21  H1  UNL     1      10.313  19.865 120.450  1.00  0.00     0.217 HD
ENDBRANCH   7  20
BRANCH   3  22
HETATM   22  C9  UNL     1      15.334  23.497 120.378  1.00  0.00     0.057 C 
HETATM   23  C10 UNL     1      14.776  24.905 120.333  1.00  0.00     0.037 C 
HETATM   24  C11 UNL     1      16.110  23.245 121.614  1.00  0.00     0.037 C 
HETATM   25 CL1  UNL     1      16.476  23.307 118.983  1.00  0.00    -0.115 Cl
ENDBRANCH   3  22
TORSDOF 5
ENDMDL
