MODEL 1
REMARK VINA RESULT: -8.174826776      0.000      0.000
REMARK  6 active torsions:
REMARK  status: ('A' for Active; 'I' for Inactive)
REMARK    1  A    between atoms: N1_2  and  C3_4 
REMARK    2  A    between atoms: N2_7  and  C6_8 
REMARK    3  A    between atoms: C6_8  and  C7_9 
REMARK    4  A    between atoms: C10_13  and  O1_14 
REMARK    5  A    between atoms: C11_16  and  C12_17 
REMARK    6  A    between atoms: C12_17  and  C15_20 
ROOT
HETATM    1  C7  UNL     1       7.926  23.981 118.655  1.00  0.00    -0.018 A 
HETATM    2  C8  UNL     1       8.131  23.305 117.472  1.00  0.00     0.039 A 
HETATM    3  C9  UNL     1       7.421  23.655 116.325  1.00  0.00     0.068 A 
HETATM    4 CL1  UNL     1       7.727  22.752 114.844  1.00  0.00    -0.081 Cl
HETATM    5  C10 UNL     1       6.505  24.682 116.359  1.00  0.00     0.094 A 
HETATM    6  C11 UNL     1       6.273  25.386 117.539  1.00  0.00    -0.014 A 
HETATM    7  C19 UNL     1       6.985  25.015 118.634  1.00  0.00     0.023 A 
ENDROOT
BRANCH   1   8
HETATM    8  C6  UNL     1       8.636  23.667 119.921  1.00  0.00     0.101 C 
BRANCH   8   9
HETATM    9  N2  UNL     1      10.020  23.467 119.765  1.00  0.00    -0.369 N 
HETATM   10  C5  UNL     1      10.919  24.429 120.262  1.00  0.00     0.065 C 
HETATM   11  C4  UNL     1      12.258  24.444 119.563  1.00  0.00     0.080 C 
HETATM   12  C3  UNL     1      12.777  23.065 119.281  1.00  0.00     0.228 C 
HETATM   13  C21 UNL     1      11.912  22.025 119.954  1.00  0.00     0.056 C 
HETATM   14  C20 UNL     1      10.501  22.203 119.381  1.00  0.00     0.129 C 
BRANCH  12  15
HETATM   15  N1  UNL     1      14.158  22.883 119.607  1.00  0.00     0.085 N 
HETATM   16  C1  UNL     1      14.722  24.026 120.251  1.00  0.00     0.309 C 
HETATM   17  C2  UNL     1      14.452  21.686 120.329  1.00  0.00     0.309 C 
ENDBRANCH  12  15
ENDBRANCH   8   9
ENDBRANCH   1   8
BRANCH   6  18
HETATM   18  C12 UNL     1       5.283  26.455 117.450  1.00  0.00    -0.011 C 
HETATM   19  C13 UNL     1       5.617  27.477 118.542  1.00  0.00     0.021 C 
HETATM   20  C14 UNL     1       5.496  27.140 116.100  1.00  0.00     0.021 C 
BRANCH  18  21
HETATM   21  C15 UNL     1       3.854  26.116 117.568  1.00  0.00    -0.040 C 
HETATM   22  C16 UNL     1       3.111  25.976 116.268  1.00  0.00     0.015 C 
HETATM   23  C17 UNL     1       3.606  24.906 118.478  1.00  0.00     0.015 C 
HETATM   24  C18 UNL     1       3.191  27.295 118.300  1.00  0.00     0.015 C 
ENDBRANCH  18  21
ENDBRANCH   6  18
BRANCH   5  25
HETATM   25  O1  UNL     1       5.809  25.005 115.183  1.00  0.00    -0.358 OA
ATOM     26  H1  UNL     1       5.094  25.629 115.232  1.00  0.00     0.217 HD
ENDBRANCH   5  25
TORSDOF 6
ENDMDL
MODEL 2
REMARK VINA RESULT: -8.128664626      0.696      1.681
REMARK  6 active torsions:
REMARK  status: ('A' for Active; 'I' for Inactive)
REMARK    1  A    between atoms: N1_2  and  C3_4 
REMARK    2  A    between atoms: N2_7  and  C6_8 
REMARK    3  A    between atoms: C6_8  and  C7_9 
REMARK    4  A    between atoms: C10_13  and  O1_14 
REMARK    5  A    between atoms: C11_16  and  C12_17 
REMARK    6  A    between atoms: C12_17  and  C15_20 
ROOT
HETATM    1  C7  UNL     1       8.022  23.648 118.743  1.00  0.00    -0.018 A 
HETATM    2  C8  UNL     1       8.162  23.145 117.468  1.00  0.00     0.039 A 
HETATM    3  C9  UNL     1       7.443  23.693 116.407  1.00  0.00     0.068 A 
HETATM    4 CL1  UNL     1       7.666  23.004 114.801  1.00  0.00    -0.081 Cl
HETATM    5  C10 UNL     1       6.582  24.746 116.620  1.00  0.00     0.094 A 
HETATM    6  C11 UNL     1       6.416  25.279 117.897  1.00  0.00    -0.014 A 
HETATM    7  C19 UNL     1       7.135  24.718 118.903  1.00  0.00     0.023 A 
ENDROOT
BRANCH   1   8
HETATM    8  C6  UNL     1       8.747  23.119 119.926  1.00  0.00     0.101 C 
BRANCH   8   9
HETATM    9  N2  UNL     1      10.144  23.073 119.767  1.00  0.00    -0.369 N 
HETATM   10  C5  UNL     1      10.930  24.137 120.242  1.00  0.00     0.065 C 
HETATM   11  C4  UNL     1      12.258  24.290 119.537  1.00  0.00     0.080 C 
HETATM   12  C3  UNL     1      12.927  22.973 119.276  1.00  0.00     0.228 C 
HETATM   13  C21 UNL     1      12.186  21.855 119.971  1.00  0.00     0.056 C 
HETATM   14  C20 UNL     1      10.762  21.863 119.402  1.00  0.00     0.129 C 
BRANCH  12  15
HETATM   15  N1  UNL     1      14.321  22.952 119.598  1.00  0.00     0.085 N 
HETATM   16  C1  UNL     1      14.748  24.150 120.249  1.00  0.00     0.309 C 
HETATM   17  C2  UNL     1      14.756  21.794 120.311  1.00  0.00     0.309 C 
ENDBRANCH  12  15
ENDBRANCH   8   9
ENDBRANCH   1   8
BRANCH   6  18
HETATM   18  C12 UNL     1       5.480  26.394 117.996  1.00  0.00    -0.011 C 
HETATM   19  C13 UNL     1       5.517  27.140 116.658  1.00  0.00     0.021 C 
HETATM   20  C14 UNL     1       4.085  25.785 118.143  1.00  0.00     0.021 C 
BRANCH  18  21
HETATM   21  C15 UNL     1       5.660  27.383 119.073  1.00  0.00    -0.040 C 
HETATM   22  C16 UNL     1       5.435  26.872 120.469  1.00  0.00     0.015 C 
HETATM   23  C17 UNL     1       6.994  28.135 118.970  1.00  0.00     0.015 C 
HETATM   24  C18 UNL     1       4.588  28.463 118.849  1.00  0.00     0.015 C 
ENDBRANCH  18  21
ENDBRANCH   6  18
BRANCH   5  25
HETATM   25  O1  UNL     1       5.874  25.270 115.526  1.00  0.00    -0.358 OA
ATOM     26  H1  UNL     1       5.294  24.697 115.041  1.00  0.00     0.217 HD
ENDBRANCH   5  25
TORSDOF 6
ENDMDL
MODEL 3
REMARK VINA RESULT: -8.018284543      2.328      2.998
REMARK  6 active torsions:
REMARK  status: ('A' for Active; 'I' for Inactive)
REMARK    1  A    between atoms: N1_2  and  C3_4 
REMARK    2  A    between atoms: N2_7  and  C6_8 
REMARK    3  A    between atoms: C6_8  and  C7_9 
REMARK    4  A    between atoms: C10_13  and  O1_14 
REMARK    5  A    between atoms: C11_16  and  C12_17 
REMARK    6  A    between atoms: C12_17  and  C15_20 
ROOT
HETATM    1  C7  UNL     1       7.395  25.786 120.014  1.00  0.00    -0.018 A 
HETATM    2  C8  UNL     1       7.572  27.102 120.381  1.00  0.00     0.039 A 
HETATM    3  C9  UNL     1       6.961  28.127 119.660  1.00  0.00     0.068 A 
HETATM    4 CL1  UNL     1       7.228  29.789 120.179  1.00  0.00    -0.081 Cl
HETATM    5  C10 UNL     1       6.171  27.837 118.570  1.00  0.00     0.094 A 
HETATM    6  C11 UNL     1       5.971  26.516 118.172  1.00  0.00    -0.014 A 
HETATM    7  C19 UNL     1       6.583  25.548 118.900  1.00  0.00     0.023 A 
ENDROOT
BRANCH   1   8
HETATM    8  C6  UNL     1       8.013  24.639 120.724  1.00  0.00     0.101 C 
BRANCH   8   9
HETATM    9  N2  UNL     1       9.317  24.336 120.293  1.00  0.00    -0.369 N 
HETATM   10  C5  UNL     1      10.395  25.119 120.744  1.00  0.00     0.065 C 
HETATM   11  C4  UNL     1      11.592  25.116 119.822  1.00  0.00     0.080 C 
HETATM   12  C3  UNL     1      11.887  23.755 119.264  1.00  0.00     0.228 C 
HETATM   13  C21 UNL     1      11.027  22.710 119.935  1.00  0.00     0.056 C 
HETATM   14  C20 UNL     1       9.572  23.107 119.659  1.00  0.00     0.129 C 
BRANCH  12  15
HETATM   15  N1  UNL     1      13.270  23.395 119.305  1.00  0.00     0.085 N 
HETATM   16  C1  UNL     1      14.048  24.303 120.087  1.00  0.00     0.309 C 
HETATM   17  C2  UNL     1      13.528  22.040 119.678  1.00  0.00     0.309 C 
ENDBRANCH  12  15
ENDBRANCH   8   9
ENDBRANCH   1   8
BRANCH   6  18
HETATM   18  C12 UNL     1       5.111  26.335 117.006  1.00  0.00    -0.011 C 
HETATM   19  C13 UNL     1       5.241  27.596 116.145  1.00  0.00     0.021 C 
HETATM   20  C14 UNL     1       5.698  25.171 116.205  1.00  0.00     0.021 C 
BRANCH  18  21
HETATM   21  C15 UNL     1       3.677  26.069 117.211  1.00  0.00    -0.040 C 
HETATM   22  C16 UNL     1       3.321  25.392 118.506  1.00  0.00     0.015 C 
HETATM   23  C17 UNL     1       2.805  27.311 116.981  1.00  0.00     0.015 C 
HETATM   24  C18 UNL     1       3.258  25.089 116.102  1.00  0.00     0.015 C 
ENDBRANCH  18  21
ENDBRANCH   6  18
BRANCH   5  25
HETATM   25  O1  UNL     1       5.573  28.896 117.869  1.00  0.00    -0.358 OA
ATOM     26  H1  UNL     1       4.821  29.331 118.253  1.00  0.00     0.217 HD
ENDBRANCH   5  25
TORSDOF 6
ENDMDL
MODEL 4
REMARK VINA RESULT: -7.868035158      2.176      2.783
REMARK  6 active torsions:
REMARK  status: ('A' for Active; 'I' for Inactive)
REMARK    1  A    between atoms: N1_2  and  C3_4 
REMARK    2  A    between atoms: N2_7  and  C6_8 
REMARK    3  A    between atoms: C6_8  and  C7_9 
REMARK    4  A    between atoms: C10_13  and  O1_14 
REMARK    5  A    between atoms: C11_16  and  C12_17 
REMARK    6  A    between atoms: C12_17  and  C15_20 
ROOT
HETATM    1  C7  UNL     1       7.578  23.712 118.213  1.00  0.00    -0.018 A 
HETATM    2  C8  UNL     1       8.021  24.367 119.341  1.00  0.00     0.039 A 
HETATM    3  C9  UNL     1       7.516  25.622 119.675  1.00  0.00     0.068 A 
HETATM    4 CL1  UNL     1       8.123  26.408 121.130  1.00  0.00    -0.081 Cl
HETATM    5  C10 UNL     1       6.566  26.224 118.881  1.00  0.00     0.094 A 
HETATM    6  C11 UNL     1       6.096  25.590 117.733  1.00  0.00    -0.014 A 
HETATM    7  C19 UNL     1       6.613  24.369 117.442  1.00  0.00     0.023 A 
ENDROOT
BRANCH   1   8
HETATM    8  C6  UNL     1       8.068  22.377 117.784  1.00  0.00     0.101 C 
BRANCH   8   9
HETATM    9  N2  UNL     1       9.289  22.002 118.372  1.00  0.00    -0.369 N 
HETATM   10  C5  UNL     1      10.165  22.995 118.845  1.00  0.00     0.065 C 
HETATM   11  C4  UNL     1      11.614  22.571 118.897  1.00  0.00     0.080 C 
HETATM   12  C3  UNL     1      11.787  21.171 119.406  1.00  0.00     0.228 C 
HETATM   13  C21 UNL     1      10.476  20.629 119.923  1.00  0.00     0.056 C 
HETATM   14  C20 UNL     1       9.500  20.660 118.740  1.00  0.00     0.129 C 
BRANCH  12  15
HETATM   15  N1  UNL     1      12.828  21.027 120.376  1.00  0.00     0.085 N 
HETATM   16  C1  UNL     1      13.065  19.662 120.725  1.00  0.00     0.309 C 
HETATM   17  C2  UNL     1      14.048  21.696 120.052  1.00  0.00     0.309 C 
ENDBRANCH  12  15
ENDBRANCH   8   9
ENDBRANCH   1   8
BRANCH   6  18
HETATM   18  C12 UNL     1       5.088  26.326 116.975  1.00  0.00    -0.011 C 
HETATM   19  C13 UNL     1       5.479  27.807 117.018  1.00  0.00     0.021 C 
HETATM   20  C14 UNL     1       5.206  25.862 115.523  1.00  0.00     0.021 C 
BRANCH  18  21
HETATM   21  C15 UNL     1       3.675  26.217 117.375  1.00  0.00    -0.040 C 
HETATM   22  C16 UNL     1       3.396  25.292 118.528  1.00  0.00     0.015 C 
HETATM   23  C17 UNL     1       3.012  27.583 117.592  1.00  0.00     0.015 C 
HETATM   24  C18 UNL     1       2.932  25.612 116.170  1.00  0.00     0.015 C 
ENDBRANCH  18  21
ENDBRANCH   6  18
BRANCH   5  25
HETATM   25  O1  UNL     1       6.081  27.490 119.251  1.00  0.00    -0.358 OA
ATOM     26  H1  UNL     1       5.146  27.606 119.363  1.00  0.00     0.217 HD
ENDBRANCH   5  25
TORSDOF 6
ENDMDL
MODEL 5
REMARK VINA RESULT: -7.741300744      2.228      2.927
REMARK  6 active torsions:
REMARK  status: ('A' for Active; 'I' for Inactive)
REMARK    1  A    between atoms: N1_2  and  C3_4 
REMARK    2  A    between atoms: N2_7  and  C6_8 
REMARK    3  A    between atoms: C6_8  and  C7_9 
REMARK    4  A    between atoms: C10_13  and  O1_14 
REMARK    5  A    between atoms: C11_16  and  C12_17 
REMARK    6  A    between atoms: C12_17  and  C15_20 
ROOT
HETATM    1  C7  UNL     1       7.580  23.692 118.358  1.00  0.00    -0.018 A 
HETATM    2  C8  UNL     1       8.099  24.393 119.425  1.00  0.00     0.039 A 
HETATM    3  C9  UNL     1       7.645  25.678 119.717  1.00  0.00     0.068 A 
HETATM    4 CL1  UNL     1       8.349  26.522 121.093  1.00  0.00    -0.081 Cl
HETATM    5  C10 UNL     1       6.670  26.264 118.941  1.00  0.00     0.094 A 
HETATM    6  C11 UNL     1       6.123  25.583 117.855  1.00  0.00    -0.014 A 
HETATM    7  C19 UNL     1       6.592  24.334 117.605  1.00  0.00     0.023 A 
ENDROOT
BRANCH   1   8
HETATM    8  C6  UNL     1       8.013  22.323 117.978  1.00  0.00     0.101 C 
BRANCH   8   9
HETATM    9  N2  UNL     1       9.232  21.928 118.558  1.00  0.00    -0.369 N 
HETATM   10  C5  UNL     1       9.557  20.561 118.623  1.00  0.00     0.065 C 
HETATM   11  C4  UNL     1      10.522  20.204 119.729  1.00  0.00     0.080 C 
HETATM   12  C3  UNL     1      11.631  21.206 119.872  1.00  0.00     0.228 C 
HETATM   13  C21 UNL     1      11.596  22.199 118.734  1.00  0.00     0.056 C 
HETATM   14  C20 UNL     1      10.229  22.889 118.805  1.00  0.00     0.129 C 
BRANCH  12  15
HETATM   15  N1  UNL     1      12.929  20.623 120.015  1.00  0.00     0.085 N 
HETATM   16  C1  UNL     1      13.947  21.603 120.225  1.00  0.00     0.309 C 
HETATM   17  C2  UNL     1      13.014  19.575 120.982  1.00  0.00     0.309 C 
ENDBRANCH  12  15
ENDBRANCH   8   9
ENDBRANCH   1   8
BRANCH   6  18
HETATM   18  C12 UNL     1       5.095  26.306 117.112  1.00  0.00    -0.011 C 
HETATM   19  C13 UNL     1       5.519  27.778 117.064  1.00  0.00     0.021 C 
HETATM   20  C14 UNL     1       5.131  25.771 115.680  1.00  0.00     0.021 C 
BRANCH  18  21
HETATM   21  C15 UNL     1       3.701  26.249 117.585  1.00  0.00    -0.040 C 
HETATM   22  C16 UNL     1       3.466  25.420 118.817  1.00  0.00     0.015 C 
HETATM   23  C17 UNL     1       3.067  27.639 117.727  1.00  0.00     0.015 C 
HETATM   24  C18 UNL     1       2.895  25.567 116.466  1.00  0.00     0.015 C 
ENDBRANCH  18  21
ENDBRANCH   6  18
BRANCH   5  25
HETATM   25  O1  UNL     1       6.238  27.560 119.267  1.00  0.00    -0.358 OA
ATOM     26  H1  UNL     1       5.548  27.663 119.911  1.00  0.00     0.217 HD
ENDBRANCH   5  25
TORSDOF 6
ENDMDL
