MODEL 1
REMARK VINA RESULT: -8.953404635      0.000      0.000
REMARK  4 active torsions:
REMARK  status: ('A' for Active; 'I' for Inactive)
REMARK    1  A    between atoms: C1_2  and  N1_3 
REMARK    2  A    between atoms: C1_2  and  C8_14 
REMARK    3  A    between atoms: N1_3  and  C2_5 
REMARK    4  A    between atoms: C5_8  and  S2_9 
ROOT
HETATM    1  S1  UNL     1       7.328  28.341 120.010  1.00  0.00    -0.065 SA
HETATM    2  C1  UNL     1       6.896  26.802 119.826  1.00  0.00     0.086 C 
ENDROOT
BRANCH   2   3
HETATM    3  N1  UNL     1       7.551  25.765 120.506  1.00  0.00    -0.350 N 
ATOM      4  H1  UNL     1       7.096  25.479 121.373  1.00  0.00     0.166 HD
BRANCH   3   5
HETATM    5  C2  UNL     1       8.715  25.056 120.206  1.00  0.00     0.034 A 
HETATM    6  C3  UNL     1       8.632  23.689 119.866  1.00  0.00     0.031 A 
HETATM    7  C4  UNL     1       9.755  22.954 119.592  1.00  0.00     0.024 A 
HETATM    8  C5  UNL     1      11.010  23.518 119.639  1.00  0.00     0.038 A 
HETATM    9  C6  UNL     1      11.137  24.847 119.967  1.00  0.00     0.054 A 
HETATM   10 CL2  UNL     1      12.720  25.613 120.039  1.00  0.00    -0.083 Cl
HETATM   11  C7  UNL     1       9.973  25.582 120.244  1.00  0.00     0.054 A 
BRANCH   8  12
HETATM   12  S2  UNL     1      12.496  22.606 119.292  1.00  0.00    -0.018 SA
HETATM   13 CL1  UNL     1      12.276  20.570 119.648  1.00  0.00    -0.038 Cl
ENDBRANCH   8  12
ENDBRANCH   3   5
ENDBRANCH   2   3
BRANCH   2  14
HETATM   14  C8  UNL     1       5.779  26.513 118.862  1.00  0.00     0.014 C 
HETATM   15  C9  UNL     1       6.151  25.470 117.854  1.00  0.00     0.021 C 
HETATM   16  C10 UNL     1       4.991  25.317 116.897  1.00  0.00    -0.013 C 
HETATM   17  C11 UNL     1       3.796  24.788 117.663  1.00  0.00     0.009 C 
HETATM   18  C15 UNL     1       4.595  26.614 116.254  1.00  0.00     0.009 C 
HETATM   19  C12 UNL     1       3.428  25.740 118.764  1.00  0.00    -0.013 C 
HETATM   20  C13 UNL     1       2.981  27.038 118.133  1.00  0.00     0.009 C 
HETATM   21  C17 UNL     1       4.609  25.943 119.671  1.00  0.00     0.021 C 
HETATM   22  C14 UNL     1       4.142  27.581 117.327  1.00  0.00    -0.013 C 
HETATM   23  C16 UNL     1       5.286  27.803 118.261  1.00  0.00     0.021 C 
ENDBRANCH   2  14
TORSDOF 4
ENDMDL
MODEL 2
REMARK VINA RESULT: -8.852660437      0.192      1.536
REMARK  4 active torsions:
REMARK  status: ('A' for Active; 'I' for Inactive)
REMARK    1  A    between atoms: C1_2  and  N1_3 
REMARK    2  A    between atoms: C1_2  and  C8_14 
REMARK    3  A    between atoms: N1_3  and  C2_5 
REMARK    4  A    between atoms: C5_8  and  S2_9 
ROOT
HETATM    1  S1  UNL     1       7.281  28.418 120.035  1.00  0.00    -0.065 SA
HETATM    2  C1  UNL     1       6.835  26.874 119.945  1.00  0.00     0.086 C 
ENDROOT
BRANCH   2   3
HETATM    3  N1  UNL     1       7.516  25.866 120.642  1.00  0.00    -0.350 N 
ATOM      4  H1  UNL     1       7.111  25.635 121.549  1.00  0.00     0.166 HD
BRANCH   3   5
HETATM    5  C2  UNL     1       8.651  25.124 120.314  1.00  0.00     0.034 A 
HETATM    6  C3  UNL     1       8.520  23.760 119.973  1.00  0.00     0.031 A 
HETATM    7  C4  UNL     1       9.615  22.993 119.672  1.00  0.00     0.024 A 
HETATM    8  C5  UNL     1      10.886  23.520 119.691  1.00  0.00     0.038 A 
HETATM    9  C6  UNL     1      11.060  24.844 120.018  1.00  0.00     0.054 A 
HETATM   10 CL2  UNL     1      12.666  25.562 120.055  1.00  0.00    -0.083 Cl
HETATM   11  C7  UNL     1       9.925  25.612 120.323  1.00  0.00     0.054 A 
BRANCH   8  12
HETATM   12  S2  UNL     1      12.336  22.565 119.307  1.00  0.00    -0.018 SA
HETATM   13 CL1  UNL     1      11.962  20.521 119.315  1.00  0.00    -0.038 Cl
ENDBRANCH   8  12
ENDBRANCH   3   5
ENDBRANCH   2   3
BRANCH   2  14
HETATM   14  C8  UNL     1       5.671  26.547 119.049  1.00  0.00     0.014 C 
HETATM   15  C9  UNL     1       4.533  25.925 119.798  1.00  0.00     0.021 C 
HETATM   16  C10 UNL     1       3.460  25.571 118.795  1.00  0.00    -0.013 C 
HETATM   17  C11 UNL     1       2.937  26.849 118.172  1.00  0.00     0.009 C 
HETATM   18  C15 UNL     1       3.966  24.688 117.692  1.00  0.00     0.009 C 
HETATM   19  C12 UNL     1       4.053  27.582 117.486  1.00  0.00    -0.013 C 
HETATM   20  C13 UNL     1       4.544  26.728 116.342  1.00  0.00     0.009 C 
HETATM   21  C17 UNL     1       5.149  27.868 118.474  1.00  0.00     0.021 C 
HETATM   22  C14 UNL     1       5.044  25.423 116.924  1.00  0.00    -0.013 C 
HETATM   23  C16 UNL     1       6.153  25.737 117.874  1.00  0.00     0.021 C 
ENDBRANCH   2  14
TORSDOF 4
ENDMDL
MODEL 3
REMARK VINA RESULT: -8.782785741      0.757      1.711
REMARK  4 active torsions:
REMARK  status: ('A' for Active; 'I' for Inactive)
REMARK    1  A    between atoms: C1_2  and  N1_3 
REMARK    2  A    between atoms: C1_2  and  C8_14 
REMARK    3  A    between atoms: N1_3  and  C2_5 
REMARK    4  A    between atoms: C5_8  and  S2_9 
ROOT
HETATM    1  S1  UNL     1       7.288  28.415 120.046  1.00  0.00    -0.065 SA
HETATM    2  C1  UNL     1       6.872  26.868 119.885  1.00  0.00     0.086 C 
ENDROOT
BRANCH   2   3
HETATM    3  N1  UNL     1       7.517  25.852 120.603  1.00  0.00    -0.350 N 
ATOM      4  H1  UNL     1       7.046  25.585 121.468  1.00  0.00     0.166 HD
BRANCH   3   5
HETATM    5  C2  UNL     1       8.689  25.140 120.344  1.00  0.00     0.034 A 
HETATM    6  C3  UNL     1       9.931  25.811 120.356  1.00  0.00     0.031 A 
HETATM    7  C4  UNL     1      11.099  25.152 120.080  1.00  0.00     0.024 A 
HETATM    8  C5  UNL     1      11.110  23.809 119.779  1.00  0.00     0.038 A 
HETATM    9  C6  UNL     1       9.922  23.116 119.755  1.00  0.00     0.054 A 
HETATM   10 CL2  UNL     1       9.886  21.398 119.376  1.00  0.00    -0.083 Cl
HETATM   11  C7  UNL     1       8.737  23.812 120.041  1.00  0.00     0.054 A 
BRANCH   8  12
HETATM   12  S2  UNL     1      12.600  22.909 119.414  1.00  0.00    -0.018 SA
HETATM   13 CL1  UNL     1      14.301  23.884 120.105  1.00  0.00    -0.038 Cl
ENDBRANCH   8  12
ENDBRANCH   3   5
ENDBRANCH   2   3
BRANCH   2  14
HETATM   14  C8  UNL     1       5.780  26.551 118.900  1.00  0.00     0.014 C 
HETATM   15  C9  UNL     1       6.191  25.502 117.913  1.00  0.00     0.021 C 
HETATM   16  C10 UNL     1       5.055  25.321 116.933  1.00  0.00    -0.013 C 
HETATM   17  C11 UNL     1       3.852  24.781 117.679  1.00  0.00     0.009 C 
HETATM   18  C15 UNL     1       4.653  26.604 116.267  1.00  0.00     0.009 C 
HETATM   19  C12 UNL     1       3.444  25.740 118.760  1.00  0.00    -0.013 C 
HETATM   20  C13 UNL     1       2.992  27.023 118.105  1.00  0.00     0.009 C 
HETATM   21  C17 UNL     1       4.602  25.971 119.690  1.00  0.00     0.021 C 
HETATM   22  C14 UNL     1       4.161  27.575 117.318  1.00  0.00    -0.013 C 
HETATM   23  C16 UNL     1       5.281  27.826 118.274  1.00  0.00     0.021 C 
ENDBRANCH   2  14
TORSDOF 4
ENDMDL
MODEL 4
REMARK VINA RESULT: -8.780219052      0.182      1.608
REMARK  4 active torsions:
REMARK  status: ('A' for Active; 'I' for Inactive)
REMARK    1  A    between atoms: C1_2  and  N1_3 
REMARK    2  A    between atoms: C1_2  and  C8_14 
REMARK    3  A    between atoms: N1_3  and  C2_5 
REMARK    4  A    between atoms: C5_8  and  S2_9 
ROOT
HETATM    1  S1  UNL     1       7.311  28.469 119.986  1.00  0.00    -0.065 SA
HETATM    2  C1  UNL     1       6.805  26.948 119.836  1.00  0.00     0.086 C 
ENDROOT
BRANCH   2   3
HETATM    3  N1  UNL     1       7.431  25.892 120.512  1.00  0.00    -0.350 N 
ATOM      4  H1  UNL     1       6.960  25.605 121.370  1.00  0.00     0.166 HD
BRANCH   3   5
HETATM    5  C2  UNL     1       8.585  25.164 120.220  1.00  0.00     0.034 A 
HETATM    6  C3  UNL     1       8.484  23.795 119.893  1.00  0.00     0.031 A 
HETATM    7  C4  UNL     1       9.597  23.042 119.627  1.00  0.00     0.024 A 
HETATM    8  C5  UNL     1      10.859  23.590 119.668  1.00  0.00     0.038 A 
HETATM    9  C6  UNL     1      11.004  24.921 119.983  1.00  0.00     0.054 A 
HETATM   10 CL2  UNL     1      12.598  25.665 120.048  1.00  0.00    -0.083 Cl
HETATM   11  C7  UNL     1       9.850  25.673 120.252  1.00  0.00     0.054 A 
BRANCH   8  12
HETATM   12  S2  UNL     1      12.333  22.654 119.330  1.00  0.00    -0.018 SA
HETATM   13 CL1  UNL     1      11.994  20.604 119.368  1.00  0.00    -0.038 Cl
ENDBRANCH   8  12
ENDBRANCH   3   5
ENDBRANCH   2   3
BRANCH   2  14
HETATM   14  C8  UNL     1       5.649  26.698 118.907  1.00  0.00     0.014 C 
HETATM   15  C9  UNL     1       5.193  27.947 118.217  1.00  0.00     0.021 C 
HETATM   16  C10 UNL     1       3.988  27.595 117.375  1.00  0.00    -0.013 C 
HETATM   17  C11 UNL     1       4.418  26.622 116.295  1.00  0.00     0.009 C 
HETATM   18  C15 UNL     1       2.892  26.951 118.172  1.00  0.00     0.009 C 
HETATM   19  C12 UNL     1       4.985  25.379 116.918  1.00  0.00    -0.013 C 
HETATM   20  C13 UNL     1       3.882  24.693 117.687  1.00  0.00     0.009 C 
HETATM   21  C17 UNL     1       6.138  25.745 117.810  1.00  0.00     0.021 C 
HETATM   22  C14 UNL     1       3.401  25.651 118.756  1.00  0.00    -0.013 C 
HETATM   23  C16 UNL     1       4.559  25.967 119.645  1.00  0.00     0.021 C 
ENDBRANCH   2  14
TORSDOF 4
ENDMDL
MODEL 5
REMARK VINA RESULT: -8.688925242      0.796      2.295
REMARK  4 active torsions:
REMARK  status: ('A' for Active; 'I' for Inactive)
REMARK    1  A    between atoms: C1_2  and  N1_3 
REMARK    2  A    between atoms: C1_2  and  C8_14 
REMARK    3  A    between atoms: N1_3  and  C2_5 
REMARK    4  A    between atoms: C5_8  and  S2_9 
ROOT
HETATM    1  S1  UNL     1       7.282  28.436 120.032  1.00  0.00    -0.065 SA
HETATM    2  C1  UNL     1       6.830  26.893 119.960  1.00  0.00     0.086 C 
ENDROOT
BRANCH   2   3
HETATM    3  N1  UNL     1       7.499  25.893 120.678  1.00  0.00    -0.350 N 
ATOM      4  H1  UNL     1       7.071  25.661 121.574  1.00  0.00     0.166 HD
BRANCH   3   5
HETATM    5  C2  UNL     1       8.648  25.157 120.383  1.00  0.00     0.034 A 
HETATM    6  C3  UNL     1       9.905  25.799 120.373  1.00  0.00     0.031 A 
HETATM    7  C4  UNL     1      11.051  25.116 120.061  1.00  0.00     0.024 A 
HETATM    8  C5  UNL     1      11.023  23.777 119.745  1.00  0.00     0.038 A 
HETATM    9  C6  UNL     1       9.819  23.112 119.742  1.00  0.00     0.054 A 
HETATM   10 CL2  UNL     1       9.734  21.399 119.345  1.00  0.00    -0.083 Cl
HETATM   11  C7  UNL     1       8.657  23.831 120.064  1.00  0.00     0.054 A 
BRANCH   8  12
HETATM   12  S2  UNL     1      12.482  22.847 119.335  1.00  0.00    -0.018 SA
HETATM   13 CL1  UNL     1      14.215  23.730 120.070  1.00  0.00    -0.038 Cl
ENDBRANCH   8  12
ENDBRANCH   3   5
ENDBRANCH   2   3
BRANCH   2  14
HETATM   14  C8  UNL     1       5.674  26.559 119.057  1.00  0.00     0.014 C 
HETATM   15  C9  UNL     1       4.525  25.954 119.802  1.00  0.00     0.021 C 
HETATM   16  C10 UNL     1       3.460  25.590 118.793  1.00  0.00    -0.013 C 
HETATM   17  C11 UNL     1       2.950  26.862 118.147  1.00  0.00     0.009 C 
HETATM   18  C15 UNL     1       3.973  24.689 117.708  1.00  0.00     0.009 C 
HETATM   19  C12 UNL     1       4.077  27.580 117.462  1.00  0.00    -0.013 C 
HETATM   20  C13 UNL     1       4.575  26.706 116.336  1.00  0.00     0.009 C 
HETATM   21  C17 UNL     1       5.163  27.874 118.457  1.00  0.00     0.021 C 
HETATM   22  C14 UNL     1       5.063  25.408 116.942  1.00  0.00    -0.013 C 
HETATM   23  C16 UNL     1       6.163  25.730 117.898  1.00  0.00     0.021 C 
ENDBRANCH   2  14
TORSDOF 4
ENDMDL
