MODEL 1
REMARK VINA RESULT: -10.777332961      0.000      0.000
REMARK  3 active torsions:
REMARK  status: ('A' for Active; 'I' for Inactive)
REMARK    1  A    between atoms: O1_2  and  C2_3 
REMARK    2  A    between atoms: C6_8  and  C7_9 
REMARK    3  A    between atoms: N1_12  and  C10_13 
ROOT
HETATM    1  C2  UNL     1      14.947  23.373 120.194  1.00  0.00     0.072 A 
HETATM    2  C3  UNL     1      14.087  24.431 120.103  1.00  0.00     0.061 A 
HETATM    3  C4  UNL     1      12.723  24.240 119.845  1.00  0.00     0.050 A 
HETATM    4 CL1  UNL     1      11.655  25.603 119.914  1.00  0.00    -0.083 Cl
HETATM    5  C5  UNL     1      12.230  22.965 119.671  1.00  0.00     0.026 A 
HETATM    6  C6  UNL     1      10.973  22.459 119.429  1.00  0.00     0.019 A 
HETATM    7  C18 UNL     1      11.196  21.039 119.411  1.00  0.00     0.115 A 
HETATM    8 CL2  UNL     1       9.882  19.904 119.149  1.00  0.00    -0.064 Cl
HETATM    9  N2  UNL     1      12.460  20.734 119.612  1.00  0.00    -0.345 N 
ATOM     10  H2  UNL     1      12.861  19.797 119.640  1.00  0.00     0.167 HD
HETATM   11  C19 UNL     1      13.116  21.884 119.770  1.00  0.00     0.049 A 
HETATM   12  C20 UNL     1      14.454  22.085 120.027  1.00  0.00     0.067 A 
ENDROOT
BRANCH   6  13
HETATM   13  C7  UNL     1       9.731  23.105 119.034  1.00  0.00    -0.062 C 
HETATM   14  C8  UNL     1       8.903  23.785 120.101  1.00  0.00     0.065 C 
HETATM   15  C9  UNL     1       7.928  24.782 119.436  1.00  0.00     0.277 C 
HETATM   16  N1  UNL     1       7.061  24.159 118.467  1.00  0.00     0.093 N 
HETATM   17  C16 UNL     1       7.591  22.928 117.938  1.00  0.00     0.277 C 
HETATM   18  C17 UNL     1       9.140  23.148 117.697  1.00  0.00     0.065 C 
BRANCH  16  19
HETATM   19  C10 UNL     1       6.797  25.130 117.418  1.00  0.00     0.223 C 
HETATM   20  C11 UNL     1       6.417  24.533 116.113  1.00  0.00     0.036 C 
HETATM   21  C12 UNL     1       5.741  25.504 115.171  1.00  0.00     0.002 C 
HETATM   22  C13 UNL     1       4.557  26.173 115.813  1.00  0.00     0.000 C 
HETATM   23  C14 UNL     1       5.151  26.995 116.955  1.00  0.00     0.002 C 
HETATM   24  C15 UNL     1       5.755  26.077 117.958  1.00  0.00     0.036 C 
ENDBRANCH  16  19
ENDBRANCH   6  13
BRANCH   1  25
HETATM   25  O1  UNL     1      16.297  23.544 120.448  1.00  0.00    -0.356 OA
HETATM   26  C1  UNL     1      16.809  23.852 121.706  1.00  0.00     0.210 C 
ENDBRANCH   1  25
TORSDOF 3
ENDMDL
MODEL 2
REMARK VINA RESULT: -9.815352002      3.510      8.164
REMARK  3 active torsions:
REMARK  status: ('A' for Active; 'I' for Inactive)
REMARK    1  A    between atoms: O1_2  and  C2_3 
REMARK    2  A    between atoms: C6_8  and  C7_9 
REMARK    3  A    between atoms: N1_12  and  C10_13 
ROOT
HETATM    1  C2  UNL     1       4.578  27.234 117.919  1.00  0.00     0.072 A 
HETATM    2  C3  UNL     1       5.370  26.888 118.977  1.00  0.00     0.061 A 
HETATM    3  C4  UNL     1       6.336  25.879 118.861  1.00  0.00     0.050 A 
HETATM    4 CL1  UNL     1       7.426  25.604 120.181  1.00  0.00    -0.083 Cl
HETATM    5  C5  UNL     1       6.495  25.214 117.665  1.00  0.00     0.026 A 
HETATM    6  C6  UNL     1       7.343  24.216 117.239  1.00  0.00     0.019 A 
HETATM    7  C18 UNL     1       6.974  24.049 115.859  1.00  0.00     0.115 A 
HETATM    8 CL2  UNL     1       7.782  22.881 114.827  1.00  0.00    -0.064 Cl
HETATM    9  N2  UNL     1       5.999  24.858 115.506  1.00  0.00    -0.345 N 
ATOM     10  H2  UNL     1       5.567  24.922 114.584  1.00  0.00     0.167 HD
HETATM   11  C19 UNL     1       5.682  25.577 116.583  1.00  0.00     0.049 A 
HETATM   12  C20 UNL     1       4.738  26.572 116.708  1.00  0.00     0.067 A 
ENDROOT
BRANCH   6  13
HETATM   13  C7  UNL     1       8.235  23.331 117.969  1.00  0.00    -0.062 C 
HETATM   14  C8  UNL     1       7.748  21.942 118.315  1.00  0.00     0.065 C 
HETATM   15  C9  UNL     1       8.958  21.038 118.637  1.00  0.00     0.277 C 
HETATM   16  N1  UNL     1       9.773  21.551 119.711  1.00  0.00     0.093 N 
HETATM   17  C16 UNL     1       9.634  22.973 119.900  1.00  0.00     0.277 C 
HETATM   18  C17 UNL     1       9.578  23.635 118.463  1.00  0.00     0.065 C 
BRANCH  16  19
HETATM   19  C10 UNL     1      11.150  21.173 119.442  1.00  0.00     0.223 C 
HETATM   20  C11 UNL     1      12.145  22.235 119.736  1.00  0.00     0.036 C 
HETATM   21  C12 UNL     1      13.562  21.724 119.871  1.00  0.00     0.002 C 
HETATM   22  C13 UNL     1      13.662  20.609 120.876  1.00  0.00     0.000 C 
HETATM   23  C14 UNL     1      12.830  19.476 120.279  1.00  0.00     0.002 C 
HETATM   24  C15 UNL     1      11.405  19.899 120.207  1.00  0.00     0.036 C 
ENDBRANCH  16  19
ENDBRANCH   6  13
BRANCH   1  25
HETATM   25  O1  UNL     1       3.618  28.228 118.015  1.00  0.00    -0.356 OA
HETATM   26  C1  UNL     1       3.879  29.502 118.512  1.00  0.00     0.210 C 
ENDBRANCH   1  25
TORSDOF 3
ENDMDL
MODEL 3
REMARK VINA RESULT: -9.814898085      1.586      2.425
REMARK  3 active torsions:
REMARK  status: ('A' for Active; 'I' for Inactive)
REMARK    1  A    between atoms: O1_2  and  C2_3 
REMARK    2  A    between atoms: C6_8  and  C7_9 
REMARK    3  A    between atoms: N1_12  and  C10_13 
ROOT
HETATM    1  C2  UNL     1      13.412  22.342 119.775  1.00  0.00     0.072 A 
HETATM    2  C3  UNL     1      12.899  23.608 119.731  1.00  0.00     0.061 A 
HETATM    3  C4  UNL     1      11.528  23.829 119.543  1.00  0.00     0.050 A 
HETATM    4 CL1  UNL     1      10.913  25.445 119.670  1.00  0.00    -0.083 Cl
HETATM    5  C5  UNL     1      10.673  22.759 119.393  1.00  0.00     0.026 A 
HETATM    6  C6  UNL     1       9.312  22.649 119.215  1.00  0.00     0.019 A 
HETATM    7  C18 UNL     1       9.107  21.226 119.183  1.00  0.00     0.115 A 
HETATM    8 CL2  UNL     1       7.506  20.533 118.988  1.00  0.00    -0.064 Cl
HETATM    9  N2  UNL     1      10.233  20.560 119.318  1.00  0.00    -0.345 N 
ATOM     10  H2  UNL     1      10.341  19.546 119.323  1.00  0.00     0.167 HD
HETATM   11  C19 UNL     1      11.205  21.464 119.444  1.00  0.00     0.049 A 
HETATM   12  C20 UNL     1      12.554  21.258 119.631  1.00  0.00     0.067 A 
ENDROOT
BRANCH   6  13
HETATM   13  C7  UNL     1       8.298  23.638 118.887  1.00  0.00    -0.062 C 
HETATM   14  C8  UNL     1       7.993  23.900 117.430  1.00  0.00     0.065 C 
HETATM   15  C9  UNL     1       6.614  24.586 117.309  1.00  0.00     0.277 C 
HETATM   16  N1  UNL     1       6.533  25.818 118.054  1.00  0.00     0.093 N 
HETATM   17  C16 UNL     1       7.487  25.895 119.131  1.00  0.00     0.277 C 
HETATM   18  C17 UNL     1       7.537  24.470 119.818  1.00  0.00     0.065 C 
BRANCH  16  19
HETATM   19  C10 UNL     1       5.167  25.959 118.530  1.00  0.00     0.223 C 
HETATM   20  C11 UNL     1       4.586  27.311 118.331  1.00  0.00     0.036 C 
HETATM   21  C12 UNL     1       3.076  27.346 118.420  1.00  0.00     0.002 C 
HETATM   22  C13 UNL     1       2.438  26.351 117.490  1.00  0.00     0.000 C 
HETATM   23  C14 UNL     1       2.888  24.990 118.014  1.00  0.00     0.002 C 
HETATM   24  C15 UNL     1       4.363  24.869 117.867  1.00  0.00     0.036 C 
ENDBRANCH  16  19
ENDBRANCH   6  13
BRANCH   1  25
HETATM   25  O1  UNL     1      14.763  22.104 119.959  1.00  0.00    -0.356 OA
HETATM   26  C1  UNL     1      15.563  22.847 120.824  1.00  0.00     0.210 C 
ENDBRANCH   1  25
TORSDOF 3
ENDMDL
MODEL 4
REMARK VINA RESULT: -9.760766501      2.016      3.153
REMARK  3 active torsions:
REMARK  status: ('A' for Active; 'I' for Inactive)
REMARK    1  A    between atoms: O1_2  and  C2_3 
REMARK    2  A    between atoms: C6_8  and  C7_9 
REMARK    3  A    between atoms: N1_12  and  C10_13 
ROOT
HETATM    1  C2  UNL     1      12.529  19.863 120.148  1.00  0.00     0.072 A 
HETATM    2  C3  UNL     1      11.223  19.755 119.761  1.00  0.00     0.061 A 
HETATM    3  C4  UNL     1      10.476  20.884 119.401  1.00  0.00     0.050 A 
HETATM    4 CL1  UNL     1       8.883  20.665 118.754  1.00  0.00    -0.083 Cl
HETATM    5  C5  UNL     1      11.057  22.132 119.439  1.00  0.00     0.026 A 
HETATM    6  C6  UNL     1      10.607  23.399 119.137  1.00  0.00     0.019 A 
HETATM    7  C18 UNL     1      11.767  24.215 119.367  1.00  0.00     0.115 A 
HETATM    8 CL2  UNL     1      11.735  25.951 119.108  1.00  0.00    -0.064 Cl
HETATM    9  N2  UNL     1      12.798  23.507 119.775  1.00  0.00    -0.345 N 
ATOM     10  H2  UNL     1      13.726  23.863 120.004  1.00  0.00     0.167 HD
HETATM   11  C19 UNL     1      12.398  22.237 119.832  1.00  0.00     0.049 A 
HETATM   12  C20 UNL     1      13.123  21.120 120.182  1.00  0.00     0.067 A 
ENDROOT
BRANCH   6  13
HETATM   13  C7  UNL     1       9.270  23.914 118.885  1.00  0.00    -0.062 C 
HETATM   14  C8  UNL     1       8.502  24.519 120.038  1.00  0.00     0.065 C 
HETATM   15  C9  UNL     1       7.365  25.407 119.487  1.00  0.00     0.277 C 
HETATM   16  N1  UNL     1       6.461  24.690 118.622  1.00  0.00     0.093 N 
HETATM   17  C16 UNL     1       7.050  23.512 118.035  1.00  0.00     0.277 C 
HETATM   18  C17 UNL     1       8.532  23.884 117.622  1.00  0.00     0.065 C 
BRANCH  16  19
HETATM   19  C10 UNL     1       5.986  25.619 117.609  1.00  0.00     0.223 C 
HETATM   20  C11 UNL     1       4.656  25.279 117.044  1.00  0.00     0.036 C 
HETATM   21  C12 UNL     1       3.981  26.432 116.334  1.00  0.00     0.002 C 
HETATM   22  C13 UNL     1       3.891  27.652 117.210  1.00  0.00     0.000 C 
HETATM   23  C14 UNL     1       5.342  28.060 117.454  1.00  0.00     0.002 C 
HETATM   24  C15 UNL     1       6.029  26.992 118.229  1.00  0.00     0.036 C 
ENDBRANCH  16  19
ENDBRANCH   6  13
BRANCH   1  25
HETATM   25  O1  UNL     1      13.283  18.759 120.508  1.00  0.00    -0.356 OA
HETATM   26  C1  UNL     1      14.421  18.833 121.307  1.00  0.00     0.210 C 
ENDBRANCH   1  25
TORSDOF 3
ENDMDL
MODEL 5
REMARK VINA RESULT: -9.714547205      1.431      1.887
REMARK  3 active torsions:
REMARK  status: ('A' for Active; 'I' for Inactive)
REMARK    1  A    between atoms: O1_2  and  C2_3 
REMARK    2  A    between atoms: C6_8  and  C7_9 
REMARK    3  A    between atoms: N1_12  and  C10_13 
ROOT
HETATM    1  C2  UNL     1      14.058  23.228 119.823  1.00  0.00     0.072 A 
HETATM    2  C3  UNL     1      13.421  24.420 120.025  1.00  0.00     0.061 A 
HETATM    3  C4  UNL     1      12.025  24.518 119.960  1.00  0.00     0.050 A 
HETATM    4 CL1  UNL     1      11.266  26.015 120.396  1.00  0.00    -0.083 Cl
HETATM    5  C5  UNL     1      11.270  23.399 119.682  1.00  0.00     0.026 A 
HETATM    6  C6  UNL     1       9.916  23.171 119.570  1.00  0.00     0.019 A 
HETATM    7  C18 UNL     1       9.850  21.759 119.310  1.00  0.00     0.115 A 
HETATM    8 CL2  UNL     1       8.314  20.935 119.096  1.00  0.00    -0.064 Cl
HETATM    9  N2  UNL     1      11.043  21.207 119.261  1.00  0.00    -0.345 N 
ATOM     10  H2  UNL     1      11.250  20.224 119.089  1.00  0.00     0.167 HD
HETATM   11  C19 UNL     1      11.929  22.179 119.481  1.00  0.00     0.049 A 
HETATM   12  C20 UNL     1      13.302  22.095 119.549  1.00  0.00     0.067 A 
ENDROOT
BRANCH   6  13
HETATM   13  C7  UNL     1       8.788  24.083 119.476  1.00  0.00    -0.062 C 
HETATM   14  C8  UNL     1       8.114  24.529 120.753  1.00  0.00     0.065 C 
HETATM   15  C9  UNL     1       7.299  25.813 120.483  1.00  0.00     0.277 C 
HETATM   16  N1  UNL     1       6.313  25.644 119.444  1.00  0.00     0.093 N 
HETATM   17  C16 UNL     1       6.618  24.563 118.541  1.00  0.00     0.277 C 
HETATM   18  C17 UNL     1       8.175  24.612 118.258  1.00  0.00     0.065 C 
BRANCH  16  19
HETATM   19  C10 UNL     1       6.184  26.912 118.745  1.00  0.00     0.223 C 
HETATM   20  C11 UNL     1       5.430  26.834 117.468  1.00  0.00     0.036 C 
HETATM   21  C12 UNL     1       4.931  28.172 116.970  1.00  0.00     0.002 C 
HETATM   22  C13 UNL     1       4.128  28.894 118.016  1.00  0.00     0.000 C 
HETATM   23  C14 UNL     1       5.124  29.175 119.140  1.00  0.00     0.002 C 
HETATM   24  C15 UNL     1       5.581  27.886 119.725  1.00  0.00     0.036 C 
ENDBRANCH  16  19
ENDBRANCH   6  13
BRANCH   1  25
HETATM   25  O1  UNL     1      15.436  23.113 119.883  1.00  0.00    -0.356 OA
HETATM   26  C1  UNL     1      16.198  23.560 120.959  1.00  0.00     0.210 C 
ENDBRANCH   1  25
TORSDOF 3
ENDMDL
