MODEL 1
REMARK VINA RESULT: -7.712672467      0.000      0.000
REMARK  10 active torsions:
REMARK  status: ('A' for Active; 'I' for Inactive)
REMARK    1  A    between atoms: C3_3  and  C4_4 
REMARK    2  A    between atoms: C4_4  and  C5_5 
REMARK    3  A    between atoms: C11_14  and  O4_15 
REMARK    4  A    between atoms: C11_14  and  C12_17 
REMARK    5  A    between atoms: C12_17  and  C13_18 
REMARK    6  A    between atoms: C13_18  and  C14_19 
REMARK    7  A    between atoms: C17_22  and  C18_23 
REMARK    8  A    between atoms: C18_23  and  O5_24 
REMARK    9  A    between atoms: C18_23  and  C19_26 
REMARK   10  A    between atoms: C19_26  and  C20_27 
ROOT
HETATM    1  C1  UNL     1      53.975  59.177  40.679  1.00  0.00     0.015 C 
HETATM    2  C2  UNL     1      53.069  58.841  41.388  1.00  0.00    -0.071 C 
HETATM    3  C3  UNL     1      51.990  58.422  42.259  1.00  0.00     0.189 C 
HETATM    4  O2  UNL     1      50.944  59.341  42.187  1.00  0.00    -0.208 OA
HETATM    5  O3  UNL     1      50.417  59.246  41.036  1.00  0.00    -0.189 OA
HETATM    6  C11 UNL     1      50.506  57.935  40.531  1.00  0.00     0.242 C 
HETATM    7  C16 UNL     1      51.259  57.250  41.629  1.00  0.00     0.036 C 
HETATM    8  C17 UNL     1      51.373  56.043  42.040  1.00  0.00     0.017 C 
ENDROOT
BRANCH   3   9
HETATM    9  C4  UNL     1      52.373  58.172  43.672  1.00  0.00     0.092 C 
BRANCH   9  10
HETATM   10  C5  UNL     1      51.577  59.052  44.596  1.00  0.00     0.130 C 
HETATM   11  O1  UNL     1      50.416  58.483  45.059  1.00  0.00    -0.380 OA
HETATM   12  C6  UNL     1      50.444  58.496  46.451  1.00  0.00     0.122 C 
HETATM   13  C7  UNL     1      51.517  57.540  46.890  1.00  0.00     0.032 C 
HETATM   14  C10 UNL     1      51.160  59.836  46.713  1.00  0.00     0.039 C 
HETATM   15  C8  UNL     1      52.840  58.244  46.545  1.00  0.00     0.010 C 
HETATM   16  C9  UNL     1      52.363  59.465  45.821  1.00  0.00     0.017 C 
ENDBRANCH   9  10
ENDBRANCH   3   9
BRANCH   6  17
HETATM   17  O4  UNL     1      51.364  57.953  39.449  1.00  0.00    -0.357 OA
ATOM     18  H4  UNL     1      51.753  57.090  39.369  1.00  0.00     0.214 HD
ENDBRANCH   6  17
BRANCH   6  19
HETATM   19  C12 UNL     1      49.179  57.356  40.287  1.00  0.00     0.044 C 
BRANCH  19  20
HETATM   20  C13 UNL     1      48.139  57.978  39.479  1.00  0.00    -0.025 C 
BRANCH  20  21
HETATM   21  C14 UNL     1      46.786  58.249  39.980  1.00  0.00     0.022 C 
HETATM   22  C15 UNL     1      45.907  57.096  40.236  1.00  0.00     0.009 C 
ENDBRANCH  20  21
ENDBRANCH  19  20
ENDBRANCH   6  19
BRANCH   8  23
HETATM   23  C18 UNL     1      50.794  54.769  41.618  1.00  0.00     0.142 C 
BRANCH  23  24
HETATM   24  O5  UNL     1      49.591  54.582  42.379  1.00  0.00    -0.392 OA
ATOM     25  H5  UNL     1      48.905  54.350  41.763  1.00  0.00     0.210 HD
ENDBRANCH  23  24
BRANCH  23  26
HETATM   26  C19 UNL     1      51.692  53.583  41.921  1.00  0.00     0.039 C 
BRANCH  26  27
HETATM   27  C20 UNL     1      52.670  53.394  40.766  1.00  0.00    -0.020 C 
HETATM   28  C21 UNL     1      52.696  51.977  40.290  1.00  0.00     0.009 C 
HETATM   29  C22 UNL     1      54.078  53.760  41.201  1.00  0.00     0.009 C 
ENDBRANCH  26  27
ENDBRANCH  23  26
ENDBRANCH   8  23
TORSDOF 10
ENDMDL
MODEL 2
REMARK VINA RESULT: -7.375659620      0.959      1.294
REMARK  10 active torsions:
REMARK  status: ('A' for Active; 'I' for Inactive)
REMARK    1  A    between atoms: C3_3  and  C4_4 
REMARK    2  A    between atoms: C4_4  and  C5_5 
REMARK    3  A    between atoms: C11_14  and  O4_15 
REMARK    4  A    between atoms: C11_14  and  C12_17 
REMARK    5  A    between atoms: C12_17  and  C13_18 
REMARK    6  A    between atoms: C13_18  and  C14_19 
REMARK    7  A    between atoms: C17_22  and  C18_23 
REMARK    8  A    between atoms: C18_23  and  O5_24 
REMARK    9  A    between atoms: C18_23  and  C19_26 
REMARK   10  A    between atoms: C19_26  and  C20_27 
ROOT
HETATM    1  C1  UNL     1      53.204  59.205  41.459  1.00  0.00     0.015 C 
HETATM    2  C2  UNL     1      52.357  58.590  42.045  1.00  0.00    -0.071 C 
HETATM    3  C3  UNL     1      51.352  57.837  42.769  1.00  0.00     0.189 C 
HETATM    4  O2  UNL     1      50.113  58.463  42.639  1.00  0.00    -0.208 OA
HETATM    5  O3  UNL     1      49.734  58.337  41.435  1.00  0.00    -0.189 OA
HETATM    6  C11 UNL     1      50.207  57.139  40.865  1.00  0.00     0.242 C 
HETATM    7  C16 UNL     1      51.012  56.576  41.994  1.00  0.00     0.036 C 
HETATM    8  C17 UNL     1      51.401  55.408  42.342  1.00  0.00     0.017 C 
ENDROOT
BRANCH   3   9
HETATM    9  C4  UNL     1      51.660  57.573  44.197  1.00  0.00     0.092 C 
BRANCH   9  10
HETATM   10  C5  UNL     1      51.254  58.744  45.048  1.00  0.00     0.130 C 
HETATM   11  O1  UNL     1      50.164  58.510  45.851  1.00  0.00    -0.380 OA
HETATM   12  C6  UNL     1      50.527  58.766  47.170  1.00  0.00     0.122 C 
HETATM   13  C7  UNL     1      51.514  57.709  47.581  1.00  0.00     0.032 C 
HETATM   14  C10 UNL     1      51.482  59.961  46.981  1.00  0.00     0.039 C 
HETATM   15  C8  UNL     1      52.807  58.063  46.828  1.00  0.00     0.010 C 
HETATM   16  C9  UNL     1      52.365  59.204  45.966  1.00  0.00     0.017 C 
ENDBRANCH   9  10
ENDBRANCH   3   9
BRANCH   6  17
HETATM   17  O4  UNL     1      51.123  57.467  39.884  1.00  0.00    -0.357 OA
ATOM     18  H4  UNL     1      50.984  56.884  39.147  1.00  0.00     0.214 HD
ENDBRANCH   6  17
BRANCH   6  19
HETATM   19  C12 UNL     1      49.105  56.265  40.444  1.00  0.00     0.044 C 
BRANCH  19  20
HETATM   20  C13 UNL     1      47.771  56.272  41.031  1.00  0.00    -0.025 C 
BRANCH  20  21
HETATM   21  C14 UNL     1      46.586  56.774  40.326  1.00  0.00     0.022 C 
HETATM   22  C15 UNL     1      46.410  58.233  40.232  1.00  0.00     0.009 C 
ENDBRANCH  20  21
ENDBRANCH  19  20
ENDBRANCH   6  19
BRANCH   8  23
HETATM   23  C18 UNL     1      51.215  54.069  41.785  1.00  0.00     0.142 C 
BRANCH  23  24
HETATM   24  O5  UNL     1      51.440  53.135  42.852  1.00  0.00    -0.392 OA
ATOM     25  H5  UNL     1      51.688  52.309  42.451  1.00  0.00     0.210 HD
ENDBRANCH  23  24
BRANCH  23  26
HETATM   26  C19 UNL     1      52.217  53.738  40.694  1.00  0.00     0.039 C 
BRANCH  26  27
HETATM   27  C20 UNL     1      53.126  52.614  41.181  1.00  0.00    -0.020 C 
HETATM   28  C21 UNL     1      54.547  53.066  41.299  1.00  0.00     0.009 C 
HETATM   29  C22 UNL     1      53.092  51.449  40.209  1.00  0.00     0.009 C 
ENDBRANCH  26  27
ENDBRANCH  23  26
ENDBRANCH   8  23
TORSDOF 10
ENDMDL
MODEL 3
REMARK VINA RESULT: -7.332250047      1.683      5.843
REMARK  10 active torsions:
REMARK  status: ('A' for Active; 'I' for Inactive)
REMARK    1  A    between atoms: C3_3  and  C4_4 
REMARK    2  A    between atoms: C4_4  and  C5_5 
REMARK    3  A    between atoms: C11_14  and  O4_15 
REMARK    4  A    between atoms: C11_14  and  C12_17 
REMARK    5  A    between atoms: C12_17  and  C13_18 
REMARK    6  A    between atoms: C13_18  and  C14_19 
REMARK    7  A    between atoms: C17_22  and  C18_23 
REMARK    8  A    between atoms: C18_23  and  O5_24 
REMARK    9  A    between atoms: C18_23  and  C19_26 
REMARK   10  A    between atoms: C19_26  and  C20_27 
ROOT
HETATM    1  C1  UNL     1      52.732  54.159  41.411  1.00  0.00     0.015 C 
HETATM    2  C2  UNL     1      52.636  55.310  41.089  1.00  0.00    -0.071 C 
HETATM    3  C3  UNL     1      52.543  56.706  40.710  1.00  0.00     0.189 C 
HETATM    4  O2  UNL     1      51.726  56.834  39.588  1.00  0.00    -0.208 OA
HETATM    5  O3  UNL     1      50.536  56.566  39.937  1.00  0.00    -0.189 OA
HETATM    6  C11 UNL     1      50.295  56.923  41.277  1.00  0.00     0.242 C 
HETATM    7  C16 UNL     1      51.640  57.434  41.690  1.00  0.00     0.036 C 
HETATM    8  C17 UNL     1      52.073  58.237  42.587  1.00  0.00     0.017 C 
ENDROOT
BRANCH   3   9
HETATM    9  C4  UNL     1      53.841  57.396  40.498  1.00  0.00     0.092 C 
BRANCH   9  10
HETATM   10  C5  UNL     1      53.724  58.404  39.389  1.00  0.00     0.130 C 
HETATM   11  O1  UNL     1      53.752  59.712  39.808  1.00  0.00    -0.380 OA
HETATM   12  C6  UNL     1      54.787  60.364  39.142  1.00  0.00     0.122 C 
HETATM   13  C7  UNL     1      56.081  59.793  39.649  1.00  0.00     0.032 C 
HETATM   14  C10 UNL     1      54.719  59.682  37.762  1.00  0.00     0.039 C 
HETATM   15  C8  UNL     1      56.158  58.385  39.038  1.00  0.00     0.010 C 
HETATM   16  C9  UNL     1      54.827  58.265  38.362  1.00  0.00     0.017 C 
ENDBRANCH   9  10
ENDBRANCH   3   9
BRANCH   6  17
HETATM   17  O4  UNL     1      50.102  55.761  41.999  1.00  0.00    -0.357 OA
ATOM     18  H4  UNL     1      49.261  55.825  42.437  1.00  0.00     0.214 HD
ENDBRANCH   6  17
BRANCH   6  19
HETATM   19  C12 UNL     1      49.231  57.930  41.388  1.00  0.00     0.044 C 
BRANCH  19  20
HETATM   20  C13 UNL     1      48.096  58.039  40.483  1.00  0.00    -0.025 C 
BRANCH  20  21
HETATM   21  C14 UNL     1      47.024  57.039  40.413  1.00  0.00     0.022 C 
HETATM   22  C15 UNL     1      45.635  57.526  40.368  1.00  0.00     0.009 C 
ENDBRANCH  20  21
ENDBRANCH  19  20
ENDBRANCH   6  19
BRANCH   8  23
HETATM   23  C18 UNL     1      51.431  59.042  43.624  1.00  0.00     0.142 C 
BRANCH  23  24
HETATM   24  O5  UNL     1      51.441  60.403  43.166  1.00  0.00    -0.392 OA
ATOM     25  H5  UNL     1      51.149  60.943  43.891  1.00  0.00     0.210 HD
ENDBRANCH  23  24
BRANCH  23  26
HETATM   26  C19 UNL     1      52.183  59.018  44.942  1.00  0.00     0.039 C 
BRANCH  26  27
HETATM   27  C20 UNL     1      52.120  60.405  45.573  1.00  0.00    -0.020 C 
HETATM   28  C21 UNL     1      53.478  61.021  45.688  1.00  0.00     0.009 C 
HETATM   29  C22 UNL     1      51.532  60.324  46.970  1.00  0.00     0.009 C 
ENDBRANCH  26  27
ENDBRANCH  23  26
ENDBRANCH   8  23
TORSDOF 10
ENDMDL
MODEL 4
REMARK VINA RESULT: -7.205451963      2.087      3.062
REMARK  10 active torsions:
REMARK  status: ('A' for Active; 'I' for Inactive)
REMARK    1  A    between atoms: C3_3  and  C4_4 
REMARK    2  A    between atoms: C4_4  and  C5_5 
REMARK    3  A    between atoms: C11_14  and  O4_15 
REMARK    4  A    between atoms: C11_14  and  C12_17 
REMARK    5  A    between atoms: C12_17  and  C13_18 
REMARK    6  A    between atoms: C13_18  and  C14_19 
REMARK    7  A    between atoms: C17_22  and  C18_23 
REMARK    8  A    between atoms: C18_23  and  O5_24 
REMARK    9  A    between atoms: C18_23  and  C19_26 
REMARK   10  A    between atoms: C19_26  and  C20_27 
ROOT
HETATM    1  C1  UNL     1      52.412  60.822  43.996  1.00  0.00     0.015 C 
HETATM    2  C2  UNL     1      52.063  59.685  43.846  1.00  0.00    -0.071 C 
HETATM    3  C3  UNL     1      51.660  58.303  43.679  1.00  0.00     0.189 C 
HETATM    4  O2  UNL     1      50.288  58.239  43.439  1.00  0.00    -0.208 OA
HETATM    5  O3  UNL     1      50.067  58.729  42.290  1.00  0.00    -0.189 OA
HETATM    6  C11 UNL     1      51.149  58.510  41.416  1.00  0.00     0.242 C 
HETATM    7  C16 UNL     1      52.115  57.807  42.318  1.00  0.00     0.036 C 
HETATM    8  C17 UNL     1      53.099  57.005  42.151  1.00  0.00     0.017 C 
ENDROOT
BRANCH   3   9
HETATM    9  C4  UNL     1      52.044  57.390  44.785  1.00  0.00     0.092 C 
BRANCH   9  10
HETATM   10  C5  UNL     1      51.834  58.059  46.115  1.00  0.00     0.130 C 
HETATM   11  O1  UNL     1      50.542  58.004  46.578  1.00  0.00    -0.380 OA
HETATM   12  C6  UNL     1      50.551  57.410  47.837  1.00  0.00     0.122 C 
HETATM   13  C7  UNL     1      50.932  55.968  47.653  1.00  0.00     0.032 C 
HETATM   14  C10 UNL     1      51.872  57.961  48.409  1.00  0.00     0.039 C 
HETATM   15  C8  UNL     1      52.430  55.994  47.311  1.00  0.00     0.010 C 
HETATM   16  C9  UNL     1      52.700  57.464  47.204  1.00  0.00     0.017 C 
ENDBRANCH   9  10
ENDBRANCH   3   9
BRANCH   6  17
HETATM   17  O4  UNL     1      51.725  59.734  41.137  1.00  0.00    -0.357 OA
ATOM     18  H4  UNL     1      52.379  59.909  41.804  1.00  0.00     0.214 HD
ENDBRANCH   6  17
BRANCH   6  19
HETATM   19  C12 UNL     1      50.753  57.709  40.251  1.00  0.00     0.044 C 
BRANCH  19  20
HETATM   20  C13 UNL     1      49.755  56.648  40.275  1.00  0.00    -0.025 C 
BRANCH  20  21
HETATM   21  C14 UNL     1      48.337  56.871  39.969  1.00  0.00     0.022 C 
HETATM   22  C15 UNL     1      47.991  58.034  39.135  1.00  0.00     0.009 C 
ENDBRANCH  20  21
ENDBRANCH  19  20
ENDBRANCH   6  19
BRANCH   8  23
HETATM   23  C18 UNL     1      53.721  56.393  40.979  1.00  0.00     0.142 C 
BRANCH  23  24
HETATM   24  O5  UNL     1      53.688  54.971  41.179  1.00  0.00    -0.392 OA
ATOM     25  H5  UNL     1      54.482  54.617  40.797  1.00  0.00     0.210 HD
ENDBRANCH  23  24
BRANCH  23  26
HETATM   26  C19 UNL     1      55.181  56.777  40.817  1.00  0.00     0.039 C 
BRANCH  26  27
HETATM   27  C20 UNL     1      55.261  58.146  40.148  1.00  0.00    -0.020 C 
HETATM   28  C21 UNL     1      54.228  58.299  39.079  1.00  0.00     0.009 C 
HETATM   29  C22 UNL     1      56.622  58.340  39.505  1.00  0.00     0.009 C 
ENDBRANCH  26  27
ENDBRANCH  23  26
ENDBRANCH   8  23
TORSDOF 10
ENDMDL
MODEL 5
REMARK VINA RESULT: -7.134137536      1.483      6.150
REMARK  10 active torsions:
REMARK  status: ('A' for Active; 'I' for Inactive)
REMARK    1  A    between atoms: C3_3  and  C4_4 
REMARK    2  A    between atoms: C4_4  and  C5_5 
REMARK    3  A    between atoms: C11_14  and  O4_15 
REMARK    4  A    between atoms: C11_14  and  C12_17 
REMARK    5  A    between atoms: C12_17  and  C13_18 
REMARK    6  A    between atoms: C13_18  and  C14_19 
REMARK    7  A    between atoms: C17_22  and  C18_23 
REMARK    8  A    between atoms: C18_23  and  O5_24 
REMARK    9  A    between atoms: C18_23  and  C19_26 
REMARK   10  A    between atoms: C19_26  and  C20_27 
ROOT
HETATM    1  C1  UNL     1      48.213  57.724  40.655  1.00  0.00     0.015 C 
HETATM    2  C2  UNL     1      49.306  57.257  40.817  1.00  0.00    -0.071 C 
HETATM    3  C3  UNL     1      50.616  56.676  41.030  1.00  0.00     0.189 C 
HETATM    4  O2  UNL     1      51.407  56.873  39.899  1.00  0.00    -0.208 OA
HETATM    5  O3  UNL     1      51.669  58.112  39.815  1.00  0.00    -0.189 OA
HETATM    6  C11 UNL     1      51.740  58.715  41.085  1.00  0.00     0.242 C 
HETATM    7  C16 UNL     1      51.411  57.558  41.976  1.00  0.00     0.036 C 
HETATM    8  C17 UNL     1      51.642  57.255  43.198  1.00  0.00     0.017 C 
ENDROOT
BRANCH   3   9
HETATM    9  C4  UNL     1      50.621  55.246  41.432  1.00  0.00     0.092 C 
BRANCH   9  10
HETATM   10  C5  UNL     1      51.746  54.514  40.754  1.00  0.00     0.130 C 
HETATM   11  O1  UNL     1      52.969  55.129  40.864  1.00  0.00    -0.380 OA
HETATM   12  C6  UNL     1      53.863  54.229  41.439  1.00  0.00     0.122 C 
HETATM   13  C7  UNL     1      53.435  54.015  42.864  1.00  0.00     0.032 C 
HETATM   14  C10 UNL     1      53.382  52.904  40.816  1.00  0.00     0.039 C 
HETATM   15  C8  UNL     1      52.157  53.166  42.769  1.00  0.00     0.010 C 
HETATM   16  C9  UNL     1      51.927  53.111  41.290  1.00  0.00     0.017 C 
ENDBRANCH   9  10
ENDBRANCH   3   9
BRANCH   6  17
HETATM   17  O4  UNL     1      50.675  59.588  41.202  1.00  0.00    -0.357 OA
ATOM     18  H4  UNL     1      50.999  60.396  41.582  1.00  0.00     0.214 HD
ENDBRANCH   6  17
BRANCH   6  19
HETATM   19  C12 UNL     1      53.067  59.288  41.342  1.00  0.00     0.044 C 
BRANCH  19  20
HETATM   20  C13 UNL     1      54.194  59.213  40.421  1.00  0.00    -0.025 C 
BRANCH  20  21
HETATM   21  C14 UNL     1      55.031  58.017  40.270  1.00  0.00     0.022 C 
HETATM   22  C15 UNL     1      56.314  58.164  39.562  1.00  0.00     0.009 C 
ENDBRANCH  20  21
ENDBRANCH  19  20
ENDBRANCH   6  19
BRANCH   8  23
HETATM   23  C18 UNL     1      52.361  57.912  44.288  1.00  0.00     0.142 C 
BRANCH  23  24
HETATM   24  O5  UNL     1      52.390  56.991  45.389  1.00  0.00    -0.392 OA
ATOM     25  H5  UNL     1      53.257  57.043  45.772  1.00  0.00     0.210 HD
ENDBRANCH  23  24
BRANCH  23  26
HETATM   26  C19 UNL     1      51.662  59.165  44.785  1.00  0.00     0.039 C 
BRANCH  26  27
HETATM   27  C20 UNL     1      52.669  60.027  45.540  1.00  0.00    -0.020 C 
HETATM   28  C21 UNL     1      52.091  60.564  46.810  1.00  0.00     0.009 C 
HETATM   29  C22 UNL     1      53.093  61.211  44.690  1.00  0.00     0.009 C 
ENDBRANCH  26  27
ENDBRANCH  23  26
ENDBRANCH   8  23
TORSDOF 10
ENDMDL
