MODEL 1
REMARK VINA RESULT: -5.777885652      0.000      0.000
REMARK  8 active torsions:
REMARK  status: ('A' for Active; 'I' for Inactive)
REMARK    1  A    between atoms: C2_2  and  C3_3 
REMARK    2  A    between atoms: C3_3  and  O1_4 
REMARK    3  A    between atoms: O1_4  and  C4_5 
REMARK    4  A    between atoms: C5_7  and  C6_8 
REMARK    5  A    between atoms: C6_8  and  O3_9 
REMARK    6  A    between atoms: C8_11  and  C9_12 
REMARK    7  A    between atoms: C9_12  and  C10_13 
REMARK    8  A    between atoms: C17_21  and  O5_23 
ROOT
HETATM    1  C4  UNL     1      52.696  55.218  42.723  1.00  0.00     0.182 C 
HETATM    2  O2  UNL     1      51.814  54.431  43.284  1.00  0.00    -0.342 OA
HETATM    3  C5  UNL     1      51.664  54.248  44.631  1.00  0.00     0.178 C 
HETATM    4  C8  UNL     1      52.252  55.250  45.500  1.00  0.00    -0.049 C 
HETATM    5  C12 UNL     1      52.460  56.563  45.211  1.00  0.00     0.013 C 
HETATM    6  C13 UNL     1      52.097  57.179  43.920  1.00  0.00    -0.037 C 
HETATM    7  C14 UNL     1      51.691  58.453  44.108  1.00  0.00     0.058 C 
HETATM    8  C15 UNL     1      51.293  59.133  42.885  1.00  0.00     0.152 C 
HETATM    9  O4  UNL     1      51.729  60.233  42.581  1.00  0.00    -0.293 OA
HETATM   10  C16 UNL     1      50.310  58.296  42.117  1.00  0.00     0.121 C 
HETATM   11  C17 UNL     1      50.888  56.883  41.823  1.00  0.00     0.078 C 
HETATM   12  C18 UNL     1      50.956  57.010  40.298  1.00  0.00     0.047 C 
HETATM   13  C19 UNL     1      52.132  56.641  42.534  1.00  0.00     0.075 C 
HETATM   14  C20 UNL     1      53.339  57.163  41.714  1.00  0.00     0.024 C 
HETATM   15  C21 UNL     1      53.585  56.045  40.706  1.00  0.00     0.011 C 
HETATM   16  C22 UNL     1      52.880  54.861  41.243  1.00  0.00     0.045 C 
HETATM   17  C23 UNL     1      53.656  53.591  41.004  1.00  0.00     0.015 C 
ENDROOT
BRANCH   1  18
HETATM   18  O1  UNL     1      53.904  55.505  43.294  1.00  0.00    -0.353 OA
BRANCH  18  19
HETATM   19  C3  UNL     1      54.865  54.730  43.663  1.00  0.00     0.171 C 
BRANCH  19  20
HETATM   20  C2  UNL     1      56.209  55.265  43.078  1.00  0.00     0.022 C 
HETATM   21  C1  UNL     1      57.312  55.048  44.060  1.00  0.00     0.007 C 
ENDBRANCH  19  20
ENDBRANCH  18  19
ENDBRANCH   1  18
BRANCH   3  22
HETATM   22  C6  UNL     1      51.959  52.811  44.919  1.00  0.00     0.203 C 
BRANCH  22  23
HETATM   23  O3  UNL     1      51.941  52.036  43.741  1.00  0.00    -0.393 OA
HETATM   24  C7  UNL     1      53.075  51.197  43.855  1.00  0.00     0.201 C 
ENDBRANCH  22  23
ENDBRANCH   3  22
BRANCH  11  25
HETATM   25  O5  UNL     1      49.834  56.025  42.153  1.00  0.00    -0.388 OA
ATOM     26  H5  UNL     1      50.247  55.170  42.185  1.00  0.00     0.210 HD
ENDBRANCH  11  25
BRANCH   4  27
HETATM   27  C9  UNL     1      52.692  54.923  46.844  1.00  0.00     0.036 C 
BRANCH  27  28
HETATM   28  C10 UNL     1      53.787  55.768  47.412  1.00  0.00    -0.000 C 
HETATM   29  C11 UNL     1      55.132  55.027  47.360  1.00  0.00     0.005 C 
ENDBRANCH  27  28
ENDBRANCH   4  27
TORSDOF 8
ENDMDL
MODEL 2
REMARK VINA RESULT: -5.776426246      4.951      8.348
REMARK  8 active torsions:
REMARK  status: ('A' for Active; 'I' for Inactive)
REMARK    1  A    between atoms: C2_2  and  C3_3 
REMARK    2  A    between atoms: C3_3  and  O1_4 
REMARK    3  A    between atoms: O1_4  and  C4_5 
REMARK    4  A    between atoms: C5_7  and  C6_8 
REMARK    5  A    between atoms: C6_8  and  O3_9 
REMARK    6  A    between atoms: C8_11  and  C9_12 
REMARK    7  A    between atoms: C9_12  and  C10_13 
REMARK    8  A    between atoms: C17_21  and  O5_23 
ROOT
HETATM    1  C4  UNL     1      53.084  58.167  48.286  1.00  0.00     0.182 C 
HETATM    2  O2  UNL     1      53.484  59.192  47.579  1.00  0.00    -0.342 OA
HETATM    3  C5  UNL     1      52.956  60.451  47.647  1.00  0.00     0.178 C 
HETATM    4  C8  UNL     1      52.167  60.771  48.822  1.00  0.00    -0.049 C 
HETATM    5  C12 UNL     1      52.296  60.233  50.065  1.00  0.00     0.013 C 
HETATM    6  C13 UNL     1      53.303  59.209  50.408  1.00  0.00    -0.037 C 
HETATM    7  C14 UNL     1      53.737  59.388  51.673  1.00  0.00     0.058 C 
HETATM    8  C15 UNL     1      54.751  58.430  52.091  1.00  0.00     0.152 C 
HETATM    9  O4  UNL     1      54.660  57.800  53.133  1.00  0.00    -0.293 OA
HETATM   10  C16 UNL     1      55.859  58.367  51.077  1.00  0.00     0.121 C 
HETATM   11  C17 UNL     1      55.306  58.034  49.664  1.00  0.00     0.078 C 
HETATM   12  C18 UNL     1      55.982  56.668  49.503  1.00  0.00     0.047 C 
HETATM   13  C19 UNL     1      53.854  58.075  49.620  1.00  0.00     0.075 C 
HETATM   14  C20 UNL     1      53.257  56.706  50.033  1.00  0.00     0.024 C 
HETATM   15  C21 UNL     1      53.368  55.877  48.759  1.00  0.00     0.011 C 
HETATM   16  C22 UNL     1      53.573  56.853  47.666  1.00  0.00     0.045 C 
HETATM   17  C23 UNL     1      52.840  56.450  46.411  1.00  0.00     0.015 C 
ENDROOT
BRANCH   1  18
HETATM   18  O1  UNL     1      51.799  58.029  48.733  1.00  0.00    -0.353 OA
BRANCH  18  19
HETATM   19  C3  UNL     1      50.694  57.897  48.085  1.00  0.00     0.171 C 
BRANCH  19  20
HETATM   20  C2  UNL     1      49.498  58.155  49.055  1.00  0.00     0.022 C 
HETATM   21  C1  UNL     1      49.760  57.496  50.369  1.00  0.00     0.007 C 
ENDBRANCH  19  20
ENDBRANCH  18  19
ENDBRANCH   1  18
BRANCH   3  22
HETATM   22  C6  UNL     1      52.372  60.761  46.306  1.00  0.00     0.203 C 
BRANCH  22  23
HETATM   23  O3  UNL     1      53.323  60.589  45.279  1.00  0.00    -0.393 OA
HETATM   24  C7  UNL     1      53.843  61.887  45.059  1.00  0.00     0.201 C 
ENDBRANCH  22  23
ENDBRANCH   3  22
BRANCH  11  25
HETATM   25  O5  UNL     1      55.955  58.954  48.834  1.00  0.00    -0.388 OA
ATOM     26  H5  UNL     1      56.826  58.586  48.735  1.00  0.00     0.210 HD
ENDBRANCH  11  25
BRANCH   4  27
HETATM   27  C9  UNL     1      51.107  61.761  48.777  1.00  0.00     0.036 C 
BRANCH  27  28
HETATM   28  C10 UNL     1      50.210  61.835  49.971  1.00  0.00    -0.000 C 
HETATM   29  C11 UNL     1      48.734  61.822  49.548  1.00  0.00     0.005 C 
ENDBRANCH  27  28
ENDBRANCH   4  27
TORSDOF 8
ENDMDL
MODEL 3
REMARK VINA RESULT: -5.692670815      6.184      8.714
REMARK  8 active torsions:
REMARK  status: ('A' for Active; 'I' for Inactive)
REMARK    1  A    between atoms: C2_2  and  C3_3 
REMARK    2  A    between atoms: C3_3  and  O1_4 
REMARK    3  A    between atoms: O1_4  and  C4_5 
REMARK    4  A    between atoms: C5_7  and  C6_8 
REMARK    5  A    between atoms: C6_8  and  O3_9 
REMARK    6  A    between atoms: C8_11  and  C9_12 
REMARK    7  A    between atoms: C9_12  and  C10_13 
REMARK    8  A    between atoms: C17_21  and  O5_23 
ROOT
HETATM    1  C4  UNL     1      52.904  59.785  50.603  1.00  0.00     0.182 C 
HETATM    2  O2  UNL     1      53.675  59.575  49.568  1.00  0.00    -0.342 OA
HETATM    3  C5  UNL     1      53.594  58.501  48.727  1.00  0.00     0.178 C 
HETATM    4  C8  UNL     1      52.357  57.741  48.749  1.00  0.00    -0.049 C 
HETATM    5  C12 UNL     1      51.117  58.206  49.064  1.00  0.00     0.013 C 
HETATM    6  C13 UNL     1      50.845  59.607  49.436  1.00  0.00    -0.037 C 
HETATM    7  C14 UNL     1      49.632  59.985  48.976  1.00  0.00     0.058 C 
HETATM    8  C15 UNL     1      49.288  61.365  49.281  1.00  0.00     0.152 C 
HETATM    9  O4  UNL     1      48.224  61.671  49.798  1.00  0.00    -0.293 OA
HETATM   10  C16 UNL     1      50.401  62.286  48.867  1.00  0.00     0.121 C 
HETATM   11  C17 UNL     1      51.744  61.872  49.531  1.00  0.00     0.078 C 
HETATM   12  C18 UNL     1      51.931  63.121  50.398  1.00  0.00     0.047 C 
HETATM   13  C19 UNL     1      51.649  60.590  50.209  1.00  0.00     0.075 C 
HETATM   14  C20 UNL     1      51.141  60.778  51.661  1.00  0.00     0.024 C 
HETATM   15  C21 UNL     1      52.396  61.195  52.419  1.00  0.00     0.011 C 
HETATM   16  C22 UNL     1      53.531  60.814  51.551  1.00  0.00     0.045 C 
HETATM   17  C23 UNL     1      54.697  60.290  52.350  1.00  0.00     0.015 C 
ENDROOT
BRANCH   1  18
HETATM   18  O1  UNL     1      52.332  58.771  51.319  1.00  0.00    -0.353 OA
BRANCH  18  19
HETATM   19  C3  UNL     1      52.865  57.847  52.042  1.00  0.00     0.171 C 
BRANCH  19  20
HETATM   20  C2  UNL     1      51.800  57.303  53.044  1.00  0.00     0.022 C 
HETATM   21  C1  UNL     1      50.582  56.861  52.301  1.00  0.00     0.007 C 
ENDBRANCH  19  20
ENDBRANCH  18  19
ENDBRANCH   1  18
BRANCH   3  22
HETATM   22  C6  UNL     1      54.880  57.748  48.840  1.00  0.00     0.203 C 
BRANCH  22  23
HETATM   23  O3  UNL     1      55.956  58.610  49.137  1.00  0.00    -0.393 OA
HETATM   24  C7  UNL     1      56.666  57.945  50.164  1.00  0.00     0.201 C 
ENDBRANCH  22  23
ENDBRANCH   3  22
BRANCH  11  25
HETATM   25  O5  UNL     1      52.659  61.923  48.474  1.00  0.00    -0.388 OA
ATOM     26  H5  UNL     1      53.502  61.917  48.911  1.00  0.00     0.210 HD
ENDBRANCH  11  25
BRANCH   4  27
HETATM   27  C9  UNL     1      52.328  56.330  48.411  1.00  0.00     0.036 C 
BRANCH  27  28
HETATM   28  C10 UNL     1      50.981  55.727  48.175  1.00  0.00    -0.000 C 
HETATM   29  C11 UNL     1      50.748  54.527  49.105  1.00  0.00     0.005 C 
ENDBRANCH  27  28
ENDBRANCH   4  27
TORSDOF 8
ENDMDL
MODEL 4
REMARK VINA RESULT: -5.587850464      4.374      7.871
REMARK  8 active torsions:
REMARK  status: ('A' for Active; 'I' for Inactive)
REMARK    1  A    between atoms: C2_2  and  C3_3 
REMARK    2  A    between atoms: C3_3  and  O1_4 
REMARK    3  A    between atoms: O1_4  and  C4_5 
REMARK    4  A    between atoms: C5_7  and  C6_8 
REMARK    5  A    between atoms: C6_8  and  O3_9 
REMARK    6  A    between atoms: C8_11  and  C9_12 
REMARK    7  A    between atoms: C9_12  and  C10_13 
REMARK    8  A    between atoms: C17_21  and  O5_23 
ROOT
HETATM    1  C4  UNL     1      51.425  58.471  48.438  1.00  0.00     0.182 C 
HETATM    2  O2  UNL     1      51.362  57.884  47.272  1.00  0.00    -0.342 OA
HETATM    3  C5  UNL     1      51.846  58.398  46.101  1.00  0.00     0.178 C 
HETATM    4  C8  UNL     1      52.811  59.477  46.207  1.00  0.00    -0.049 C 
HETATM    5  C12 UNL     1      53.680  59.699  47.230  1.00  0.00     0.013 C 
HETATM    6  C13 UNL     1      53.771  58.834  48.422  1.00  0.00    -0.037 C 
HETATM    7  C14 UNL     1      55.050  58.763  48.850  1.00  0.00     0.058 C 
HETATM    8  C15 UNL     1      55.236  57.911  50.016  1.00  0.00     0.152 C 
HETATM    9  O4  UNL     1      55.838  58.290  51.009  1.00  0.00    -0.293 OA
HETATM   10  C16 UNL     1      54.602  56.567  49.788  1.00  0.00     0.121 C 
HETATM   11  C17 UNL     1      53.098  56.714  49.422  1.00  0.00     0.078 C 
HETATM   12  C18 UNL     1      52.523  56.032  50.667  1.00  0.00     0.047 C 
HETATM   13  C19 UNL     1      52.725  58.098  49.180  1.00  0.00     0.075 C 
HETATM   14  C20 UNL     1      52.336  58.797  50.507  1.00  0.00     0.024 C 
HETATM   15  C21 UNL     1      50.896  58.347  50.730  1.00  0.00     0.011 C 
HETATM   16  C22 UNL     1      50.430  57.842  49.420  1.00  0.00     0.045 C 
HETATM   17  C23 UNL     1      48.990  58.205  49.160  1.00  0.00     0.015 C 
ENDROOT
BRANCH   1  18
HETATM   18  O1  UNL     1      51.438  59.830  48.586  1.00  0.00    -0.353 OA
BRANCH  18  19
HETATM   19  C3  UNL     1      50.631  60.731  48.144  1.00  0.00     0.171 C 
BRANCH  19  20
HETATM   20  C2  UNL     1      50.389  61.793  49.262  1.00  0.00     0.022 C 
HETATM   21  C1  UNL     1      48.925  61.931  49.523  1.00  0.00     0.007 C 
ENDBRANCH  19  20
ENDBRANCH  18  19
ENDBRANCH   1  18
BRANCH   3  22
HETATM   22  C6  UNL     1      50.681  58.589  45.184  1.00  0.00     0.203 C 
BRANCH  22  23
HETATM   23  O3  UNL     1      50.819  57.818  44.012  1.00  0.00    -0.393 OA
HETATM   24  C7  UNL     1      50.849  58.770  42.965  1.00  0.00     0.201 C 
ENDBRANCH  22  23
ENDBRANCH   3  22
BRANCH  11  25
HETATM   25  O5  UNL     1      52.943  55.854  48.330  1.00  0.00    -0.388 OA
ATOM     26  H5  UNL     1      52.357  56.331  47.755  1.00  0.00     0.210 HD
ENDBRANCH  11  25
BRANCH   4  27
HETATM   27  C9  UNL     1      52.949  60.476  45.163  1.00  0.00     0.036 C 
BRANCH  27  28
HETATM   28  C10 UNL     1      53.674  61.731  45.530  1.00  0.00    -0.000 C 
HETATM   29  C11 UNL     1      54.578  62.197  44.380  1.00  0.00     0.005 C 
ENDBRANCH  27  28
ENDBRANCH   4  27
TORSDOF 8
ENDMDL
MODEL 5
REMARK VINA RESULT: -5.570488641      4.153      7.530
REMARK  8 active torsions:
REMARK  status: ('A' for Active; 'I' for Inactive)
REMARK    1  A    between atoms: C2_2  and  C3_3 
REMARK    2  A    between atoms: C3_3  and  O1_4 
REMARK    3  A    between atoms: O1_4  and  C4_5 
REMARK    4  A    between atoms: C5_7  and  C6_8 
REMARK    5  A    between atoms: C6_8  and  O3_9 
REMARK    6  A    between atoms: C8_11  and  C9_12 
REMARK    7  A    between atoms: C9_12  and  C10_13 
REMARK    8  A    between atoms: C17_21  and  O5_23 
ROOT
HETATM    1  C4  UNL     1      51.777  57.940  49.153  1.00  0.00     0.182 C 
HETATM    2  O2  UNL     1      50.864  58.714  48.626  1.00  0.00    -0.342 OA
HETATM    3  C5  UNL     1      51.104  59.726  47.737  1.00  0.00     0.178 C 
HETATM    4  C8  UNL     1      52.382  59.707  47.050  1.00  0.00    -0.049 C 
HETATM    5  C12 UNL     1      53.136  58.613  46.754  1.00  0.00     0.013 C 
HETATM    6  C13 UNL     1      52.740  57.235  47.101  1.00  0.00    -0.037 C 
HETATM    7  C14 UNL     1      53.154  56.376  46.145  1.00  0.00     0.058 C 
HETATM    8  C15 UNL     1      52.787  54.990  46.395  1.00  0.00     0.152 C 
HETATM    9  O4  UNL     1      53.602  54.082  46.343  1.00  0.00    -0.293 OA
HETATM   10  C16 UNL     1      51.320  54.885  46.704  1.00  0.00     0.121 C 
HETATM   11  C17 UNL     1      50.933  55.804  47.897  1.00  0.00     0.078 C 
HETATM   12  C18 UNL     1      50.538  54.698  48.880  1.00  0.00     0.047 C 
HETATM   13  C19 UNL     1      52.018  56.690  48.281  1.00  0.00     0.075 C 
HETATM   14  C20 UNL     1      52.959  55.991  49.295  1.00  0.00     0.024 C 
HETATM   15  C21 UNL     1      52.227  56.156  50.622  1.00  0.00     0.011 C 
HETATM   16  C22 UNL     1      51.236  57.231  50.400  1.00  0.00     0.045 C 
HETATM   17  C23 UNL     1      51.096  58.122  51.607  1.00  0.00     0.015 C 
ENDROOT
BRANCH   1  18
HETATM   18  O1  UNL     1      53.065  58.347  49.363  1.00  0.00    -0.353 OA
BRANCH  18  19
HETATM   19  C3  UNL     1      53.545  59.244  50.154  1.00  0.00     0.171 C 
BRANCH  19  20
HETATM   20  C2  UNL     1      54.930  58.766  50.689  1.00  0.00     0.022 C 
HETATM   21  C1  UNL     1      55.764  58.258  49.559  1.00  0.00     0.007 C 
ENDBRANCH  19  20
ENDBRANCH  18  19
ENDBRANCH   1  18
BRANCH   3  22
HETATM   22  C6  UNL     1      50.679  61.002  48.390  1.00  0.00     0.203 C 
BRANCH  22  23
HETATM   23  O3  UNL     1      49.862  60.757  49.513  1.00  0.00    -0.393 OA
HETATM   24  C7  UNL     1      48.908  61.802  49.489  1.00  0.00     0.201 C 
ENDBRANCH  22  23
ENDBRANCH   3  22
BRANCH  11  25
HETATM   25  O5  UNL     1      49.770  56.441  47.453  1.00  0.00    -0.388 OA
ATOM     26  H5  UNL     1      49.295  55.750  47.006  1.00  0.00     0.210 HD
ENDBRANCH  11  25
BRANCH   4  27
HETATM   27  C9  UNL     1      53.008  60.930  46.580  1.00  0.00     0.036 C 
BRANCH  27  28
HETATM   28  C10 UNL     1      53.171  61.071  45.101  1.00  0.00    -0.000 C 
HETATM   29  C11 UNL     1      54.180  62.180  44.766  1.00  0.00     0.005 C 
ENDBRANCH  27  28
ENDBRANCH   4  27
TORSDOF 8
ENDMDL
