MODEL 1
REMARK VINA RESULT: -7.687169447      0.000      0.000
REMARK  9 active torsions:
REMARK  status: ('A' for Active; 'I' for Inactive)
REMARK    1  A    between atoms: C2_2  and  C3_3 
REMARK    2  A    between atoms: C3_3  and  O1_4 
REMARK    3  A    between atoms: O1_4  and  C4_5 
REMARK    4  A    between atoms: C4_5  and  C5_6 
REMARK    5  A    between atoms: C5_6  and  O2_7 
REMARK    6  A    between atoms: O2_7  and  C6_8 
REMARK    7  A    between atoms: C6_8  and  O3_9 
REMARK    8  A    between atoms: O3_9  and  C7_10 
REMARK    9  A    between atoms: C19_22  and  O4_24 
ROOT
HETATM    1  C7  UNL     1      51.551  58.090  45.217  1.00  0.00     0.133 C 
HETATM    2  C8  UNL     1      52.148  56.826  44.697  1.00  0.00     0.071 C 
HETATM    3  C9  UNL     1      52.733  58.982  45.617  1.00  0.00     0.065 C 
HETATM    4  C10 UNL     1      52.283  60.134  46.456  1.00  0.00     0.041 C 
HETATM    5  C11 UNL     1      51.562  59.643  47.630  1.00  0.00    -0.052 C 
HETATM    6  C12 UNL     1      50.891  58.505  47.569  1.00  0.00     0.010 C 
HETATM    7  C13 UNL     1      50.197  58.127  48.862  1.00  0.00     0.058 C 
HETATM    8  C14 UNL     1      49.312  59.287  49.260  1.00  0.00     0.016 C 
HETATM    9  C15 UNL     1      50.086  60.587  49.306  1.00  0.00    -0.036 C 
HETATM   10  C16 UNL     1      49.391  61.590  48.451  1.00  0.00     0.016 C 
HETATM   11  C17 UNL     1      50.097  61.086  50.747  1.00  0.00     0.012 C 
HETATM   12  C18 UNL     1      50.841  62.378  50.806  1.00  0.00     0.038 C 
HETATM   13  C19 UNL     1      52.213  62.336  50.226  1.00  0.00     0.055 C 
HETATM   14  C20 UNL     1      53.174  61.724  51.241  1.00  0.00     0.045 C 
HETATM   15  C21 UNL     1      52.312  61.619  48.912  1.00  0.00     0.047 C 
HETATM   16  C22 UNL     1      51.521  60.346  48.934  1.00  0.00     0.027 C 
HETATM   17  N1  UNL     1      50.819  57.713  46.433  1.00  0.00    -0.362 N 
ATOM     18  H1  UNL     1      50.252  56.864  46.442  1.00  0.00     0.162 HD
ENDROOT
BRANCH   1  19
HETATM   19  O3  UNL     1      50.694  58.754  44.415  1.00  0.00    -0.337 OA
BRANCH  19  20
HETATM   20  C6  UNL     1      50.909  58.833  43.087  1.00  0.00     0.341 C 
BRANCH  20  21
HETATM   21  O2  UNL     1      49.876  58.487  42.258  1.00  0.00    -0.365 OA
BRANCH  21  22
HETATM   22  C5  UNL     1      50.155  57.319  41.574  1.00  0.00     0.196 C 
BRANCH  22  23
HETATM   23  C4  UNL     1      48.937  56.990  40.726  1.00  0.00     0.193 C 
BRANCH  23  24
HETATM   24  O1  UNL     1      47.835  57.723  41.075  1.00  0.00    -0.389 OA
BRANCH  24  25
HETATM   25  C3  UNL     1      47.077  58.139  40.003  1.00  0.00     0.167 C 
BRANCH  25  26
HETATM   26  C2  UNL     1      45.603  57.981  40.365  1.00  0.00     0.022 C 
HETATM   27  C1  UNL     1      44.858  59.201  39.848  1.00  0.00     0.007 C 
ENDBRANCH  25  26
ENDBRANCH  24  25
ENDBRANCH  23  24
ENDBRANCH  22  23
ENDBRANCH  21  22
ENDBRANCH  20  21
ENDBRANCH  19  20
ENDBRANCH   1  19
BRANCH  13  28
HETATM   28  O4  UNL     1      52.633  63.650  50.017  1.00  0.00    -0.390 OA
ATOM     29  H4  UNL     1      53.363  63.633  49.409  1.00  0.00     0.210 HD
ENDBRANCH  13  28
TORSDOF 9
ENDMDL
MODEL 2
REMARK VINA RESULT: -7.561936468      2.028      2.900
REMARK  9 active torsions:
REMARK  status: ('A' for Active; 'I' for Inactive)
REMARK    1  A    between atoms: C2_2  and  C3_3 
REMARK    2  A    between atoms: C3_3  and  O1_4 
REMARK    3  A    between atoms: O1_4  and  C4_5 
REMARK    4  A    between atoms: C4_5  and  C5_6 
REMARK    5  A    between atoms: C5_6  and  O2_7 
REMARK    6  A    between atoms: O2_7  and  C6_8 
REMARK    7  A    between atoms: C6_8  and  O3_9 
REMARK    8  A    between atoms: O3_9  and  C7_10 
REMARK    9  A    between atoms: C19_22  and  O4_24 
ROOT
HETATM    1  C7  UNL     1      51.881  58.938  42.752  1.00  0.00     0.133 C 
HETATM    2  C8  UNL     1      52.789  58.876  41.571  1.00  0.00     0.071 C 
HETATM    3  C9  UNL     1      52.443  60.040  43.659  1.00  0.00     0.065 C 
HETATM    4  C10 UNL     1      51.833  59.983  45.023  1.00  0.00     0.041 C 
HETATM    5  C11 UNL     1      52.036  58.656  45.603  1.00  0.00    -0.052 C 
HETATM    6  C12 UNL     1      52.122  57.595  44.821  1.00  0.00     0.010 C 
HETATM    7  C13 UNL     1      52.332  56.293  45.566  1.00  0.00     0.058 C 
HETATM    8  C14 UNL     1      51.217  56.162  46.579  1.00  0.00     0.016 C 
HETATM    9  C15 UNL     1      51.115  57.391  47.456  1.00  0.00    -0.036 C 
HETATM   10  C16 UNL     1      49.717  57.904  47.402  1.00  0.00     0.016 C 
HETATM   11  C17 UNL     1      51.440  56.984  48.889  1.00  0.00     0.012 C 
HETATM   12  C18 UNL     1      51.325  58.183  49.770  1.00  0.00     0.038 C 
HETATM   13  C19 UNL     1      52.130  59.359  49.334  1.00  0.00     0.055 C 
HETATM   14  C20 UNL     1      53.582  59.167  49.766  1.00  0.00     0.045 C 
HETATM   15  C21 UNL     1      52.055  59.654  47.865  1.00  0.00     0.047 C 
HETATM   16  C22 UNL     1      52.158  58.396  47.058  1.00  0.00     0.027 C 
HETATM   17  N1  UNL     1      52.031  57.648  43.438  1.00  0.00    -0.362 N 
ATOM     18  H1  UNL     1      52.069  56.785  42.894  1.00  0.00     0.162 HD
ENDROOT
BRANCH   1  19
HETATM   19  O3  UNL     1      50.566  59.125  42.522  1.00  0.00    -0.337 OA
BRANCH  19  20
HETATM   20  C6  UNL     1      49.947  58.504  41.500  1.00  0.00     0.341 C 
BRANCH  20  21
HETATM   21  O2  UNL     1      49.346  57.302  41.762  1.00  0.00    -0.365 OA
BRANCH  21  22
HETATM   22  C5  UNL     1      49.225  56.543  40.613  1.00  0.00     0.196 C 
BRANCH  22  23
HETATM   23  C4  UNL     1      47.971  57.009  39.892  1.00  0.00     0.193 C 
BRANCH  23  24
HETATM   24  O1  UNL     1      46.857  56.299  40.255  1.00  0.00    -0.389 OA
BRANCH  24  25
HETATM   25  C3  UNL     1      45.767  57.085  40.557  1.00  0.00     0.167 C 
BRANCH  25  26
HETATM   26  C2  UNL     1      46.121  58.537  40.253  1.00  0.00     0.022 C 
HETATM   27  C1  UNL     1      44.841  59.265  39.875  1.00  0.00     0.007 C 
ENDBRANCH  25  26
ENDBRANCH  24  25
ENDBRANCH  23  24
ENDBRANCH  22  23
ENDBRANCH  21  22
ENDBRANCH  20  21
ENDBRANCH  19  20
ENDBRANCH   1  19
BRANCH  13  28
HETATM   28  O4  UNL     1      51.655  60.482  50.011  1.00  0.00    -0.390 OA
ATOM     29  H4  UNL     1      50.705  60.442  50.018  1.00  0.00     0.210 HD
ENDBRANCH  13  28
TORSDOF 9
ENDMDL
MODEL 3
REMARK VINA RESULT: -7.526120365      2.262      3.723
REMARK  9 active torsions:
REMARK  status: ('A' for Active; 'I' for Inactive)
REMARK    1  A    between atoms: C2_2  and  C3_3 
REMARK    2  A    between atoms: C3_3  and  O1_4 
REMARK    3  A    between atoms: O1_4  and  C4_5 
REMARK    4  A    between atoms: C4_5  and  C5_6 
REMARK    5  A    between atoms: C5_6  and  O2_7 
REMARK    6  A    between atoms: O2_7  and  C6_8 
REMARK    7  A    between atoms: C6_8  and  O3_9 
REMARK    8  A    between atoms: O3_9  and  C7_10 
REMARK    9  A    between atoms: C19_22  and  O4_24 
ROOT
HETATM    1  C7  UNL     1      52.056  58.443  42.455  1.00  0.00     0.133 C 
HETATM    2  C8  UNL     1      51.539  58.651  41.072  1.00  0.00     0.071 C 
HETATM    3  C9  UNL     1      50.831  58.117  43.319  1.00  0.00     0.065 C 
HETATM    4  C10 UNL     1      51.154  58.214  44.776  1.00  0.00     0.041 C 
HETATM    5  C11 UNL     1      51.687  59.542  45.080  1.00  0.00    -0.052 C 
HETATM    6  C12 UNL     1      52.353  60.218  44.159  1.00  0.00     0.010 C 
HETATM    7  C13 UNL     1      52.841  61.575  44.622  1.00  0.00     0.058 C 
HETATM    8  C14 UNL     1      53.660  61.364  45.875  1.00  0.00     0.016 C 
HETATM    9  C15 UNL     1      52.895  60.572  46.913  1.00  0.00    -0.036 C 
HETATM   10  C16 UNL     1      53.717  59.399  47.324  1.00  0.00     0.016 C 
HETATM   11  C17 UNL     1      52.667  61.468  48.126  1.00  0.00     0.012 C 
HETATM   12  C18 UNL     1      51.929  60.695  49.166  1.00  0.00     0.038 C 
HETATM   13  C19 UNL     1      50.662  60.068  48.698  1.00  0.00     0.055 C 
HETATM   14  C20 UNL     1      49.554  61.118  48.677  1.00  0.00     0.045 C 
HETATM   15  C21 UNL     1      50.760  59.384  47.367  1.00  0.00     0.047 C 
HETATM   16  C22 UNL     1      51.532  60.219  46.390  1.00  0.00     0.027 C 
HETATM   17  N1  UNL     1      52.594  59.743  42.879  1.00  0.00    -0.362 N 
ATOM     18  H1  UNL     1      53.148  60.300  42.228  1.00  0.00     0.162 HD
ENDROOT
BRANCH   1  19
HETATM   19  O3  UNL     1      53.028  57.525  42.629  1.00  0.00    -0.337 OA
BRANCH  19  20
HETATM   20  C6  UNL     1      53.179  56.505  41.762  1.00  0.00     0.341 C 
BRANCH  20  21
HETATM   21  O2  UNL     1      52.510  55.342  42.032  1.00  0.00    -0.365 OA
BRANCH  21  22
HETATM   22  C5  UNL     1      51.772  54.925  40.940  1.00  0.00     0.196 C 
BRANCH  22  23
HETATM   23  C4  UNL     1      50.303  55.079  41.300  1.00  0.00     0.193 C 
BRANCH  23  24
HETATM   24  O1  UNL     1      49.621  55.866  40.411  1.00  0.00    -0.389 OA
BRANCH  24  25
HETATM   25  C3  UNL     1      48.313  56.108  40.768  1.00  0.00     0.167 C 
BRANCH  25  26
HETATM   26  C2  UNL     1      48.042  57.602  40.619  1.00  0.00     0.022 C 
HETATM   27  C1  UNL     1      48.089  57.943  39.138  1.00  0.00     0.007 C 
ENDBRANCH  25  26
ENDBRANCH  24  25
ENDBRANCH  23  24
ENDBRANCH  22  23
ENDBRANCH  21  22
ENDBRANCH  20  21
ENDBRANCH  19  20
ENDBRANCH   1  19
BRANCH  13  28
HETATM   28  O4  UNL     1      50.285  59.105  49.635  1.00  0.00    -0.390 OA
ATOM     29  H4  UNL     1      50.257  59.520  50.489  1.00  0.00     0.210 HD
ENDBRANCH  13  28
TORSDOF 9
ENDMDL
MODEL 4
REMARK VINA RESULT: -7.335330133      1.542      2.534
REMARK  9 active torsions:
REMARK  status: ('A' for Active; 'I' for Inactive)
REMARK    1  A    between atoms: C2_2  and  C3_3 
REMARK    2  A    between atoms: C3_3  and  O1_4 
REMARK    3  A    between atoms: O1_4  and  C4_5 
REMARK    4  A    between atoms: C4_5  and  C5_6 
REMARK    5  A    between atoms: C5_6  and  O2_7 
REMARK    6  A    between atoms: O2_7  and  C6_8 
REMARK    7  A    between atoms: C6_8  and  O3_9 
REMARK    8  A    between atoms: O3_9  and  C7_10 
REMARK    9  A    between atoms: C19_22  and  O4_24 
ROOT
HETATM    1  C7  UNL     1      51.968  57.997  42.857  1.00  0.00     0.133 C 
HETATM    2  C8  UNL     1      53.046  57.795  41.846  1.00  0.00     0.071 C 
HETATM    3  C9  UNL     1      52.093  59.453  43.322  1.00  0.00     0.065 C 
HETATM    4  C10 UNL     1      51.300  59.696  44.565  1.00  0.00     0.041 C 
HETATM    5  C11 UNL     1      51.716  58.762  45.611  1.00  0.00    -0.052 C 
HETATM    6  C12 UNL     1      52.181  57.568  45.289  1.00  0.00     0.010 C 
HETATM    7  C13 UNL     1      52.572  56.715  46.478  1.00  0.00     0.058 C 
HETATM    8  C14 UNL     1      51.370  56.628  47.392  1.00  0.00     0.016 C 
HETATM    9  C15 UNL     1      50.834  58.000  47.737  1.00  0.00    -0.036 C 
HETATM   10  C16 UNL     1      49.382  58.046  47.406  1.00  0.00     0.016 C 
HETATM   11  C17 UNL     1      51.007  58.217  49.237  1.00  0.00     0.012 C 
HETATM   12  C18 UNL     1      50.466  59.560  49.597  1.00  0.00     0.038 C 
HETATM   13  C19 UNL     1      51.026  60.693  48.808  1.00  0.00     0.055 C 
HETATM   14  C20 UNL     1      52.390  61.079  49.373  1.00  0.00     0.045 C 
HETATM   15  C21 UNL     1      51.124  60.435  47.333  1.00  0.00     0.047 C 
HETATM   16  C22 UNL     1      51.657  59.060  47.062  1.00  0.00     0.027 C 
HETATM   17  N1  UNL     1      52.309  57.117  43.983  1.00  0.00    -0.362 N 
ATOM     18  H1  UNL     1      52.640  56.169  43.804  1.00  0.00     0.162 HD
ENDROOT
BRANCH   1  19
HETATM   19  O3  UNL     1      50.703  57.714  42.488  1.00  0.00    -0.337 OA
BRANCH  19  20
HETATM   20  C6  UNL     1      50.102  58.400  41.497  1.00  0.00     0.341 C 
BRANCH  20  21
HETATM   21  O2  UNL     1      49.449  57.677  40.534  1.00  0.00    -0.365 OA
BRANCH  21  22
HETATM   22  C5  UNL     1      49.223  56.379  40.951  1.00  0.00     0.196 C 
BRANCH  22  23
HETATM   23  C4  UNL     1      47.796  56.022  40.569  1.00  0.00     0.193 C 
BRANCH  23  24
HETATM   24  O1  UNL     1      47.180  57.008  39.845  1.00  0.00    -0.389 OA
BRANCH  24  25
HETATM   25  C3  UNL     1      45.922  57.334  40.302  1.00  0.00     0.167 C 
BRANCH  25  26
HETATM   26  C2  UNL     1      45.788  58.854  40.298  1.00  0.00     0.022 C 
HETATM   27  C1  UNL     1      44.498  59.210  39.577  1.00  0.00     0.007 C 
ENDBRANCH  25  26
ENDBRANCH  24  25
ENDBRANCH  23  24
ENDBRANCH  22  23
ENDBRANCH  21  22
ENDBRANCH  20  21
ENDBRANCH  19  20
ENDBRANCH   1  19
BRANCH  13  28
HETATM   28  O4  UNL     1      50.191  61.796  48.984  1.00  0.00    -0.390 OA
ATOM     29  H4  UNL     1      50.396  62.432  48.307  1.00  0.00     0.210 HD
ENDBRANCH  13  28
TORSDOF 9
ENDMDL
MODEL 5
REMARK VINA RESULT: -7.305268387      2.735      3.861
REMARK  9 active torsions:
REMARK  status: ('A' for Active; 'I' for Inactive)
REMARK    1  A    between atoms: C2_2  and  C3_3 
REMARK    2  A    between atoms: C3_3  and  O1_4 
REMARK    3  A    between atoms: O1_4  and  C4_5 
REMARK    4  A    between atoms: C4_5  and  C5_6 
REMARK    5  A    between atoms: C5_6  and  O2_7 
REMARK    6  A    between atoms: O2_7  and  C6_8 
REMARK    7  A    between atoms: C6_8  and  O3_9 
REMARK    8  A    between atoms: O3_9  and  C7_10 
REMARK    9  A    between atoms: C19_22  and  O4_24 
ROOT
HETATM    1  C7  UNL     1      51.715  56.532  46.462  1.00  0.00     0.133 C 
HETATM    2  C8  UNL     1      51.412  55.098  46.186  1.00  0.00     0.071 C 
HETATM    3  C9  UNL     1      52.889  56.533  47.449  1.00  0.00     0.065 C 
HETATM    4  C10 UNL     1      53.078  57.882  48.065  1.00  0.00     0.041 C 
HETATM    5  C11 UNL     1      51.837  58.313  48.709  1.00  0.00    -0.052 C 
HETATM    6  C12 UNL     1      50.670  57.904  48.242  1.00  0.00     0.010 C 
HETATM    7  C13 UNL     1      49.477  58.433  49.012  1.00  0.00     0.058 C 
HETATM    8  C14 UNL     1      49.582  59.941  49.036  1.00  0.00     0.016 C 
HETATM    9  C15 UNL     1      50.929  60.397  49.552  1.00  0.00    -0.036 C 
HETATM   10  C16 UNL     1      51.536  61.324  48.556  1.00  0.00     0.016 C 
HETATM   11  C17 UNL     1      50.710  61.149  50.861  1.00  0.00     0.012 C 
HETATM   12  C18 UNL     1      52.028  61.622  51.373  1.00  0.00     0.038 C 
HETATM   13  C19 UNL     1      53.062  60.559  51.515  1.00  0.00     0.055 C 
HETATM   14  C20 UNL     1      52.822  59.788  52.811  1.00  0.00     0.045 C 
HETATM   15  C21 UNL     1      53.147  59.614  50.353  1.00  0.00     0.047 C 
HETATM   16  C22 UNL     1      51.781  59.207  49.890  1.00  0.00     0.027 C 
HETATM   17  N1  UNL     1      50.530  57.065  47.147  1.00  0.00    -0.362 N 
ATOM     18  H1  UNL     1      49.597  56.816  46.814  1.00  0.00     0.162 HD
ENDROOT
BRANCH   1  19
HETATM   19  O3  UNL     1      51.969  57.332  45.407  1.00  0.00    -0.337 OA
BRANCH  19  20
HETATM   20  C6  UNL     1      52.313  56.814  44.212  1.00  0.00     0.341 C 
BRANCH  20  21
HETATM   21  O2  UNL     1      51.531  57.135  43.136  1.00  0.00    -0.365 OA
BRANCH  21  22
HETATM   22  C5  UNL     1      51.194  58.475  43.145  1.00  0.00     0.196 C 
BRANCH  22  23
HETATM   23  C4  UNL     1      52.257  59.215  42.348  1.00  0.00     0.193 C 
BRANCH  23  24
HETATM   24  O1  UNL     1      52.759  60.300  43.016  1.00  0.00    -0.389 OA
BRANCH  24  25
HETATM   25  C3  UNL     1      52.058  60.629  44.155  1.00  0.00     0.167 C 
BRANCH  25  26
HETATM   26  C2  UNL     1      53.057  60.857  45.286  1.00  0.00     0.022 C 
HETATM   27  C1  UNL     1      54.040  61.925  44.837  1.00  0.00     0.007 C 
ENDBRANCH  25  26
ENDBRANCH  24  25
ENDBRANCH  23  24
ENDBRANCH  22  23
ENDBRANCH  21  22
ENDBRANCH  20  21
ENDBRANCH  19  20
ENDBRANCH   1  19
BRANCH  13  28
HETATM   28  O4  UNL     1      54.306  61.179  51.641  1.00  0.00    -0.390 OA
ATOM     29  H4  UNL     1      54.177  62.117  51.556  1.00  0.00     0.210 HD
ENDBRANCH  13  28
TORSDOF 9
ENDMDL
