MODEL 1
REMARK VINA RESULT: -7.247583653      0.000      0.000
REMARK  8 active torsions:
REMARK  status: ('A' for Active; 'I' for Inactive)
REMARK    1  A    between atoms: N2_3  and  S1_5 
REMARK    2  A    between atoms: S1_5  and  C2_8 
REMARK    3  A    between atoms: C4_10  and  N3_11 
REMARK    4  A    between atoms: C7_16  and  N4_17 
REMARK    5  A    between atoms: N4_17  and  N5_19 
REMARK    6  A    between atoms: N5_19  and  N6_21 
REMARK    7  A    between atoms: N6_21  and  C8_23 
REMARK    8  A    between atoms: C9_24  and  C10_25 
REMARK       I    between atoms: C10_25  and  N7_27 
REMARK       I    between atoms: N7_27  and  C11_29 
ROOT
HETATM    1  N1  UNL     1      11.698  44.102   3.355  1.00  0.00    -0.171 NA
HETATM    2  C1  UNL     1      10.547  44.008   3.417  1.00  0.00     0.192 C 
HETATM    3  N2  UNL     1       9.124  43.873   3.471  1.00  0.00    -0.216 N 
ATOM      4  H2  UNL     1       8.576  44.287   4.225  1.00  0.00     0.191 HD
ENDROOT
BRANCH   3   5
HETATM    5  S1  UNL     1       8.392  42.994   2.220  1.00  0.00     0.273 S 
HETATM    6  O1  UNL     1       9.405  42.132   1.508  1.00  0.00    -0.200 OA
HETATM    7  O2  UNL     1       7.374  42.057   2.857  1.00  0.00    -0.200 OA
BRANCH   5   8
HETATM    8  C2  UNL     1       7.604  44.009   1.040  1.00  0.00     0.110 A 
HETATM    9  C3  UNL     1       6.251  44.182   1.028  1.00  0.00     0.063 A 
HETATM   10  C4  UNL     1       5.668  45.005   0.052  1.00  0.00     0.104 A 
HETATM   11  C5  UNL     1       6.431  45.652  -0.899  1.00  0.00     0.038 A 
HETATM   12  C6  UNL     1       7.793  45.482  -0.888  1.00  0.00     0.035 A 
HETATM   13  C7  UNL     1       8.402  44.660   0.078  1.00  0.00     0.073 A 
BRANCH  10  14
HETATM   14  N3  UNL     1       4.256  45.163   0.012  1.00  0.00    -0.116 N 
HETATM   15  O3  UNL     1       3.724  46.005  -0.742  1.00  0.00    -0.532 OA
HETATM   16  O4  UNL     1       3.452  44.381   0.791  1.00  0.00    -0.532 OA
ENDBRANCH  10  14
BRANCH  13  17
HETATM   17  N4  UNL     1       9.803  44.529   0.066  1.00  0.00    -0.285 N 
ATOM     18  H4  UNL     1      10.223  43.718  -0.388  1.00  0.00     0.188 HD
BRANCH  17  19
HETATM   19  N5  UNL     1      10.629  45.474   0.657  1.00  0.00    -0.242 N 
ATOM     20  H5  UNL     1      10.247  46.065   1.395  1.00  0.00     0.208 HD
BRANCH  19  21
HETATM   21  N6  UNL     1      11.859  45.635   0.309  1.00  0.00    -0.278 N 
ATOM     22  H6  UNL     1      12.485  44.829   0.317  1.00  0.00     0.189 HD
BRANCH  21  23
HETATM   23  C8  UNL     1      12.373  46.908  -0.087  1.00  0.00     0.161 A 
HETATM   24  C9  UNL     1      11.818  47.652  -1.135  1.00  0.00     0.157 A 
HETATM   25  N10 UNL     1      12.548  48.808  -1.167  1.00  0.00    -0.249 N 
HETATM   26  O6  UNL     1      13.446  48.785  -0.247  1.00  0.00    -0.193 OA
ATOM     27  H10 UNL     1      12.403  49.575  -1.824  1.00  0.00     0.195 HD
HETATM   28  C12 UNL     1      13.394  47.673   0.431  1.00  0.00     0.335 A 
HETATM   29  O7  UNL     1      14.144  47.327   1.409  1.00  0.00    -0.255 OA
BRANCH  24  30
HETATM   30  C10 UNL     1      10.767  47.278  -2.090  1.00  0.00     0.279 C 
HETATM   31  O5  UNL     1      10.582  46.230  -2.621  1.00  0.00    -0.265 OA
HETATM   32  N7  UNL     1       9.813  48.423  -2.407  1.00  0.00    -0.296 N 
HETATM   33  C11 UNL     1       8.851  48.246  -3.231  1.00  0.00     0.188 C 
ATOM     34  H7  UNL     1       9.941  49.332  -1.962  1.00  0.00     0.171 HD
HETATM   35  N8  UNL     1       7.846  48.062  -4.092  1.00  0.00    -0.373 N 
HETATM   36  N9  UNL     1       8.098  49.789  -2.902  1.00  0.00    -0.064 NA
ATOM     37  H82 UNL     1       8.285  47.162  -4.285  1.00  0.00     0.158 HD
ATOM     38  H81 UNL     1       7.079  47.921  -4.749  1.00  0.00     0.158 HD
ENDBRANCH  24  30
ENDBRANCH  21  23
ENDBRANCH  19  21
ENDBRANCH  17  19
ENDBRANCH  13  17
ENDBRANCH   5   8
ENDBRANCH   3   5
TORSDOF 8
ENDMDL
MODEL 2
REMARK VINA RESULT: -7.207618157      2.862      7.055
REMARK  8 active torsions:
REMARK  status: ('A' for Active; 'I' for Inactive)
REMARK    1  A    between atoms: N2_3  and  S1_5 
REMARK    2  A    between atoms: S1_5  and  C2_8 
REMARK    3  A    between atoms: C4_10  and  N3_11 
REMARK    4  A    between atoms: C7_16  and  N4_17 
REMARK    5  A    between atoms: N4_17  and  N5_19 
REMARK    6  A    between atoms: N5_19  and  N6_21 
REMARK    7  A    between atoms: N6_21  and  C8_23 
REMARK    8  A    between atoms: C9_24  and  C10_25 
REMARK       I    between atoms: C10_25  and  N7_27 
REMARK       I    between atoms: N7_27  and  C11_29 
ROOT
HETATM    1  N1  UNL     1       9.335  49.013  -1.942  1.00  0.00    -0.171 NA
HETATM    2  C1  UNL     1       9.447  47.885  -2.170  1.00  0.00     0.192 C 
HETATM    3  N2  UNL     1       9.572  46.483  -2.428  1.00  0.00    -0.216 N 
ATOM      4  H2  UNL     1       9.924  46.133  -3.320  1.00  0.00     0.191 HD
ENDROOT
BRANCH   3   5
HETATM    5  S1  UNL     1       9.108  45.433  -1.182  1.00  0.00     0.273 S 
HETATM    6  O1  UNL     1       9.492  44.012  -1.507  1.00  0.00    -0.200 OA
HETATM    7  O2  UNL     1       9.885  45.834   0.065  1.00  0.00    -0.200 OA
BRANCH   5   8
HETATM    8  C2  UNL     1       7.395  45.480  -0.851  1.00  0.00     0.110 A 
HETATM    9  C3  UNL     1       6.545  46.274  -1.564  1.00  0.00     0.063 A 
HETATM   10  C4  UNL     1       5.177  46.277  -1.252  1.00  0.00     0.104 A 
HETATM   11  C5  UNL     1       4.664  45.492  -0.239  1.00  0.00     0.038 A 
HETATM   12  C6  UNL     1       5.516  44.691   0.479  1.00  0.00     0.035 A 
HETATM   13  C7  UNL     1       6.892  44.671   0.188  1.00  0.00     0.073 A 
BRANCH  10  14
HETATM   14  N3  UNL     1       4.291  47.127  -1.968  1.00  0.00    -0.116 N 
HETATM   15  O3  UNL     1       3.093  47.238  -1.631  1.00  0.00    -0.532 OA
HETATM   16  O4  UNL     1       4.741  47.852  -3.034  1.00  0.00    -0.532 OA
ENDBRANCH  10  14
BRANCH  13  17
HETATM   17  N4  UNL     1       7.728  43.820   0.935  1.00  0.00    -0.285 N 
ATOM     18  H4  UNL     1       7.920  42.881   0.586  1.00  0.00     0.188 HD
BRANCH  17  19
HETATM   19  N5  UNL     1       8.297  44.225   2.133  1.00  0.00    -0.242 N 
ATOM     20  H5  UNL     1       7.777  44.870   2.729  1.00  0.00     0.208 HD
BRANCH  19  21
HETATM   21  N6  UNL     1       9.456  43.818   2.523  1.00  0.00    -0.278 N 
ATOM     22  H6  UNL     1      10.256  44.445   2.434  1.00  0.00     0.189 HD
BRANCH  21  23
HETATM   23  C8  UNL     1       9.653  42.515   3.076  1.00  0.00     0.161 A 
HETATM   24  C9  UNL     1       8.941  42.054   4.190  1.00  0.00     0.157 A 
HETATM   25  N10 UNL     1       9.375  40.769   4.373  1.00  0.00    -0.249 N 
HETATM   26  O6  UNL     1      10.248  40.470   3.478  1.00  0.00    -0.193 OA
ATOM     27  H10 UNL     1       9.054  40.142   5.110  1.00  0.00     0.195 HD
HETATM   28  C12 UNL     1      10.459  41.474   2.674  1.00  0.00     0.335 A 
HETATM   29  O7  UNL     1      11.266  41.515   1.681  1.00  0.00    -0.255 OA
BRANCH  24  30
HETATM   30  C10 UNL     1       8.014  42.776   5.070  1.00  0.00     0.279 C 
HETATM   31  O5  UNL     1       7.690  43.920   5.032  1.00  0.00    -0.265 OA
HETATM   32  N7  UNL     1       7.413  41.894   6.158  1.00  0.00    -0.296 N 
HETATM   33  C11 UNL     1       6.593  42.391   7.004  1.00  0.00     0.188 C 
ATOM     34  H7  UNL     1       7.665  40.908   6.211  1.00  0.00     0.171 HD
HETATM   35  N8  UNL     1       5.736  42.909   7.889  1.00  0.00    -0.373 N 
HETATM   36  N9  UNL     1       6.164  40.848   7.705  1.00  0.00    -0.064 NA
ATOM     37  H82 UNL     1       5.986  43.809   7.480  1.00  0.00     0.158 HD
ATOM     38  H81 UNL     1       5.082  43.305   8.564  1.00  0.00     0.158 HD
ENDBRANCH  24  30
ENDBRANCH  21  23
ENDBRANCH  19  21
ENDBRANCH  17  19
ENDBRANCH  13  17
ENDBRANCH   5   8
ENDBRANCH   3   5
TORSDOF 8
ENDMDL
MODEL 3
REMARK VINA RESULT: -7.111666817      1.894      2.478
REMARK  8 active torsions:
REMARK  status: ('A' for Active; 'I' for Inactive)
REMARK    1  A    between atoms: N2_3  and  S1_5 
REMARK    2  A    between atoms: S1_5  and  C2_8 
REMARK    3  A    between atoms: C4_10  and  N3_11 
REMARK    4  A    between atoms: C7_16  and  N4_17 
REMARK    5  A    between atoms: N4_17  and  N5_19 
REMARK    6  A    between atoms: N5_19  and  N6_21 
REMARK    7  A    between atoms: N6_21  and  C8_23 
REMARK    8  A    between atoms: C9_24  and  C10_25 
REMARK       I    between atoms: C10_25  and  N7_27 
REMARK       I    between atoms: N7_27  and  C11_29 
ROOT
HETATM    1  N1  UNL     1      11.576  44.413   2.845  1.00  0.00    -0.171 NA
HETATM    2  C1  UNL     1      10.454  44.189   3.015  1.00  0.00     0.192 C 
HETATM    3  N2  UNL     1       9.066  43.896   3.203  1.00  0.00    -0.216 N 
ATOM      4  H2  UNL     1       8.565  44.193   4.040  1.00  0.00     0.191 HD
ENDROOT
BRANCH   3   5
HETATM    5  S1  UNL     1       8.296  43.032   1.965  1.00  0.00     0.273 S 
HETATM    6  O1  UNL     1       9.297  42.246   1.156  1.00  0.00    -0.200 OA
HETATM    7  O2  UNL     1       7.363  42.024   2.626  1.00  0.00    -0.200 OA
BRANCH   5   8
HETATM    8  C2  UNL     1       7.388  44.053   0.880  1.00  0.00     0.110 A 
HETATM    9  C3  UNL     1       6.032  44.169   0.966  1.00  0.00     0.063 A 
HETATM   10  C4  UNL     1       5.351  45.001   0.063  1.00  0.00     0.104 A 
HETATM   11  C5  UNL     1       6.021  45.712  -0.913  1.00  0.00     0.038 A 
HETATM   12  C6  UNL     1       7.385  45.598  -1.000  1.00  0.00     0.035 A 
HETATM   13  C7  UNL     1       8.091  44.770  -0.109  1.00  0.00     0.073 A 
BRANCH  10  14
HETATM   14  N3  UNL     1       3.935  45.101   0.125  1.00  0.00    -0.116 N 
HETATM   15  O3  UNL     1       3.322  45.969  -0.532  1.00  0.00    -0.532 OA
HETATM   16  O4  UNL     1       3.214  44.234   0.896  1.00  0.00    -0.532 OA
ENDBRANCH  10  14
BRANCH  13  17
HETATM   17  N4  UNL     1       9.493  44.698  -0.220  1.00  0.00    -0.285 N 
ATOM     18  H4  UNL     1       9.922  43.831  -0.546  1.00  0.00     0.188 HD
BRANCH  17  19
HETATM   19  N5  UNL     1      10.306  45.774   0.101  1.00  0.00    -0.242 N 
ATOM     20  H5  UNL     1      10.314  46.111   1.064  1.00  0.00     0.208 HD
BRANCH  19  21
HETATM   21  N6  UNL     1      11.051  46.365  -0.769  1.00  0.00    -0.278 N 
ATOM     22  H6  UNL     1      12.030  46.090  -0.849  1.00  0.00     0.189 HD
BRANCH  21  23
HETATM   23  C8  UNL     1      10.546  47.394  -1.623  1.00  0.00     0.161 A 
HETATM   24  C9  UNL     1      10.012  47.127  -2.889  1.00  0.00     0.157 A 
HETATM   25  N10 UNL     1       9.602  48.345  -3.358  1.00  0.00    -0.249 N 
HETATM   26  O6  UNL     1       9.849  49.256  -2.485  1.00  0.00    -0.193 OA
ATOM     27  H10 UNL     1       9.166  48.507  -4.265  1.00  0.00     0.195 HD
HETATM   28  C12 UNL     1      10.416  48.750  -1.426  1.00  0.00     0.335 A 
HETATM   29  O7  UNL     1      10.796  49.377  -0.377  1.00  0.00    -0.255 OA
BRANCH  24  30
HETATM   30  C10 UNL     1       9.977  45.866  -3.641  1.00  0.00     0.279 C 
HETATM   31  O5  UNL     1      10.026  44.751  -3.228  1.00  0.00    -0.265 OA
HETATM   32  N7  UNL     1       9.860  46.071  -5.146  1.00  0.00    -0.296 N 
HETATM   33  C11 UNL     1       9.827  45.061  -5.930  1.00  0.00     0.188 C 
ATOM     34  H7  UNL     1       9.808  47.014  -5.530  1.00  0.00     0.171 HD
HETATM   35  N8  UNL     1       9.793  44.005  -6.748  1.00  0.00    -0.373 N 
HETATM   36  N9  UNL     1       9.444  45.999  -7.353  1.00  0.00    -0.064 NA
ATOM     37  H82 UNL     1      10.017  43.457  -5.918  1.00  0.00     0.158 HD
ATOM     38  H81 UNL     1       9.766  43.199  -7.373  1.00  0.00     0.158 HD
ENDBRANCH  24  30
ENDBRANCH  21  23
ENDBRANCH  19  21
ENDBRANCH  17  19
ENDBRANCH  13  17
ENDBRANCH   5   8
ENDBRANCH   3   5
TORSDOF 8
ENDMDL
MODEL 4
REMARK VINA RESULT: -7.096948035      2.425      5.338
REMARK  8 active torsions:
REMARK  status: ('A' for Active; 'I' for Inactive)
REMARK    1  A    between atoms: N2_3  and  S1_5 
REMARK    2  A    between atoms: S1_5  and  C2_8 
REMARK    3  A    between atoms: C4_10  and  N3_11 
REMARK    4  A    between atoms: C7_16  and  N4_17 
REMARK    5  A    between atoms: N4_17  and  N5_19 
REMARK    6  A    between atoms: N5_19  and  N6_21 
REMARK    7  A    between atoms: N6_21  and  C8_23 
REMARK    8  A    between atoms: C9_24  and  C10_25 
REMARK       I    between atoms: C10_25  and  N7_27 
REMARK       I    between atoms: N7_27  and  C11_29 
ROOT
HETATM    1  N1  UNL     1       9.586  45.416  -4.737  1.00  0.00    -0.171 NA
HETATM    2  C1  UNL     1       9.620  45.879  -3.679  1.00  0.00     0.192 C 
HETATM    3  N2  UNL     1       9.657  46.427  -2.357  1.00  0.00    -0.216 N 
ATOM      4  H2  UNL     1       9.957  47.387  -2.185  1.00  0.00     0.191 HD
ENDROOT
BRANCH   3   5
HETATM    5  S1  UNL     1       9.180  45.404  -1.094  1.00  0.00     0.273 S 
HETATM    6  O1  UNL     1       9.582  43.978  -1.378  1.00  0.00    -0.200 OA
HETATM    7  O2  UNL     1       9.933  45.841   0.156  1.00  0.00    -0.200 OA
BRANCH   5   8
HETATM    8  C2  UNL     1       7.462  45.444  -0.793  1.00  0.00     0.110 A 
HETATM    9  C3  UNL     1       6.626  46.255  -1.502  1.00  0.00     0.063 A 
HETATM   10  C4  UNL     1       5.252  46.253  -1.215  1.00  0.00     0.104 A 
HETATM   11  C5  UNL     1       4.720  45.444  -0.230  1.00  0.00     0.038 A 
HETATM   12  C6  UNL     1       5.558  44.626   0.483  1.00  0.00     0.035 A 
HETATM   13  C7  UNL     1       6.940  44.611   0.217  1.00  0.00     0.073 A 
BRANCH  10  14
HETATM   14  N3  UNL     1       4.379  47.120  -1.927  1.00  0.00    -0.116 N 
HETATM   15  O3  UNL     1       3.193  47.276  -1.566  1.00  0.00    -0.532 OA
HETATM   16  O4  UNL     1       4.830  47.813  -3.014  1.00  0.00    -0.532 OA
ENDBRANCH  10  14
BRANCH  13  17
HETATM   17  N4  UNL     1       7.762  43.742   0.959  1.00  0.00    -0.285 N 
ATOM     18  H4  UNL     1       7.937  42.801   0.605  1.00  0.00     0.188 HD
BRANCH  17  19
HETATM   19  N5  UNL     1       8.339  44.130   2.158  1.00  0.00    -0.242 N 
ATOM     20  H5  UNL     1       7.742  44.531   2.882  1.00  0.00     0.208 HD
BRANCH  19  21
HETATM   21  N6  UNL     1       9.600  44.006   2.393  1.00  0.00    -0.278 N 
ATOM     22  H6  UNL     1      10.103  44.785   2.819  1.00  0.00     0.189 HD
BRANCH  21  23
HETATM   23  C8  UNL     1      10.315  42.810   2.075  1.00  0.00     0.161 A 
HETATM   24  C9  UNL     1      11.662  42.816   1.697  1.00  0.00     0.157 A 
HETATM   25  N10 UNL     1      11.982  41.496   1.528  1.00  0.00    -0.249 N 
HETATM   26  O6  UNL     1      10.957  40.761   1.777  1.00  0.00    -0.193 OA
ATOM     27  H10 UNL     1      12.898  41.147   1.247  1.00  0.00     0.195 HD
HETATM   28  C12 UNL     1       9.927  41.489   2.106  1.00  0.00     0.335 A 
HETATM   29  O7  UNL     1       8.754  41.078   2.410  1.00  0.00    -0.255 OA
BRANCH  24  30
HETATM   30  C10 UNL     1      12.549  43.952   1.416  1.00  0.00     0.279 C 
HETATM   31  O5  UNL     1      13.287  44.521   2.156  1.00  0.00    -0.265 OA
HETATM   32  N7  UNL     1      12.475  44.425  -0.030  1.00  0.00    -0.296 N 
HETATM   33  C11 UNL     1      13.187  45.414  -0.418  1.00  0.00     0.188 C 
ATOM     34  H7  UNL     1      11.858  43.952  -0.690  1.00  0.00     0.171 HD
HETATM   35  N8  UNL     1      13.931  46.447  -0.823  1.00  0.00    -0.373 N 
HETATM   36  N9  UNL     1      12.802  45.210  -2.111  1.00  0.00    -0.064 NA
ATOM     37  H82 UNL     1      14.156  46.567   0.164  1.00  0.00     0.158 HD
ATOM     38  H81 UNL     1      14.499  47.236  -1.133  1.00  0.00     0.158 HD
ENDBRANCH  24  30
ENDBRANCH  21  23
ENDBRANCH  19  21
ENDBRANCH  17  19
ENDBRANCH  13  17
ENDBRANCH   5   8
ENDBRANCH   3   5
TORSDOF 8
ENDMDL
MODEL 5
REMARK VINA RESULT: -7.089709999      2.560      6.263
REMARK  8 active torsions:
REMARK  status: ('A' for Active; 'I' for Inactive)
REMARK    1  A    between atoms: N2_3  and  S1_5 
REMARK    2  A    between atoms: S1_5  and  C2_8 
REMARK    3  A    between atoms: C4_10  and  N3_11 
REMARK    4  A    between atoms: C7_16  and  N4_17 
REMARK    5  A    between atoms: N4_17  and  N5_19 
REMARK    6  A    between atoms: N5_19  and  N6_21 
REMARK    7  A    between atoms: N6_21  and  C8_23 
REMARK    8  A    between atoms: C9_24  and  C10_25 
REMARK       I    between atoms: C10_25  and  N7_27 
REMARK       I    between atoms: N7_27  and  C11_29 
ROOT
HETATM    1  N1  UNL     1      11.314  47.995  -0.514  1.00  0.00    -0.171 NA
HETATM    2  C1  UNL     1      10.581  48.374  -1.324  1.00  0.00     0.192 C 
HETATM    3  N2  UNL     1       9.664  48.815  -2.330  1.00  0.00    -0.216 N 
ATOM      4  H2  UNL     1       9.516  49.807  -2.520  1.00  0.00     0.191 HD
ENDROOT
BRANCH   3   5
HETATM    5  S1  UNL     1       8.837  47.612  -3.190  1.00  0.00     0.273 S 
HETATM    6  O1  UNL     1       8.311  48.152  -4.496  1.00  0.00    -0.200 OA
HETATM    7  O2  UNL     1       9.844  46.520  -3.529  1.00  0.00    -0.200 OA
BRANCH   5   8
HETATM    8  C2  UNL     1       7.502  46.929  -2.297  1.00  0.00     0.110 A 
HETATM    9  C3  UNL     1       6.218  47.346  -2.491  1.00  0.00     0.063 A 
HETATM   10  C4  UNL     1       5.182  46.766  -1.741  1.00  0.00     0.104 A 
HETATM   11  C5  UNL     1       5.429  45.776  -0.810  1.00  0.00     0.038 A 
HETATM   12  C6  UNL     1       6.719  45.353  -0.615  1.00  0.00     0.035 A 
HETATM   13  C7  UNL     1       7.776  45.920  -1.352  1.00  0.00     0.073 A 
BRANCH  10  14
HETATM   14  N3  UNL     1       3.846  47.219  -1.913  1.00  0.00    -0.116 N 
HETATM   15  O3  UNL     1       2.886  46.597  -1.411  1.00  0.00    -0.532 OA
HETATM   16  O4  UNL     1       3.589  48.358  -2.621  1.00  0.00    -0.532 OA
ENDBRANCH  10  14
BRANCH  13  17
HETATM   17  N4  UNL     1       9.082  45.443  -1.135  1.00  0.00    -0.285 N 
ATOM     18  H4  UNL     1       9.617  45.081  -1.925  1.00  0.00     0.188 HD
BRANCH  17  19
HETATM   19  N5  UNL     1       9.662  45.452   0.124  1.00  0.00    -0.242 N 
ATOM     20  H5  UNL     1      10.117  46.306   0.448  1.00  0.00     0.208 HD
BRANCH  19  21
HETATM   21  N6  UNL     1       9.649  44.424   0.902  1.00  0.00    -0.278 N 
ATOM     22  H6  UNL     1       8.936  43.708   0.762  1.00  0.00     0.189 HD
BRANCH  21  23
HETATM   23  C8  UNL     1      10.603  44.258   1.953  1.00  0.00     0.161 A 
HETATM   24  C9  UNL     1      10.239  43.857   3.244  1.00  0.00     0.157 A 
HETATM   25  N10 UNL     1      11.421  43.771   3.928  1.00  0.00    -0.249 N 
HETATM   26  O6  UNL     1      12.400  44.077   3.152  1.00  0.00    -0.193 OA
ATOM     27  H10 UNL     1      11.513  43.503   4.907  1.00  0.00     0.195 HD
HETATM   28  C12 UNL     1      11.974  44.381   1.958  1.00  0.00     0.335 A 
HETATM   29  O7  UNL     1      12.681  44.735   0.951  1.00  0.00    -0.255 OA
BRANCH  24  30
HETATM   30  C10 UNL     1       8.902  43.669   3.822  1.00  0.00     0.279 C 
HETATM   31  O5  UNL     1       7.851  43.632   3.267  1.00  0.00    -0.265 OA
HETATM   32  N7  UNL     1       8.924  43.503   5.336  1.00  0.00    -0.296 N 
HETATM   33  C11 UNL     1       7.830  43.339   5.978  1.00  0.00     0.188 C 
ATOM     34  H7  UNL     1       9.811  43.522   5.838  1.00  0.00     0.171 HD
HETATM   35  N8  UNL     1       6.687  43.168   6.648  1.00  0.00    -0.373 N 
HETATM   36  N9  UNL     1       8.612  42.980   7.499  1.00  0.00    -0.064 NA
ATOM     37  H82 UNL     1       6.230  43.377   5.761  1.00  0.00     0.158 HD
ATOM     38  H81 UNL     1       5.814  43.036   7.160  1.00  0.00     0.158 HD
ENDBRANCH  24  30
ENDBRANCH  21  23
ENDBRANCH  19  21
ENDBRANCH  17  19
ENDBRANCH  13  17
ENDBRANCH   5   8
ENDBRANCH   3   5
TORSDOF 8
ENDMDL
