MODEL 1
REMARK VINA RESULT: -6.410920634      0.000      0.000
REMARK  8 active torsions:
REMARK  status: ('A' for Active; 'I' for Inactive)
REMARK       I    between atoms: N2_3  and  C2_5 
REMARK    1  A    between atoms: C2_5  and  C3_7 
REMARK    2  A    between atoms: C5_9  and  N3_10 
REMARK    3  A    between atoms: N3_10  and  C6_12 
REMARK    4  A    between atoms: C6_12  and  C7_13 
REMARK    5  A    between atoms: N4_15  and  C9_16 
REMARK    6  A    between atoms: C10_17  and  N5_18 
REMARK    7  A    between atoms: C15_26  and  N7_27 
REMARK    8  A    between atoms: C16_32  and  N9_33 
ROOT
HETATM    1  N1  UNL     1       2.797  47.713  -2.283  1.00  0.00    -0.172 NA
HETATM    2  C1  UNL     1       3.771  47.188  -1.949  1.00  0.00     0.184 C 
HETATM    3  N2  UNL     1       4.951  46.573  -1.531  1.00  0.00    -0.258 N 
ATOM      4  H2  UNL     1       5.828  46.817  -1.991  1.00  0.00     0.181 HD
HETATM    5  C2  UNL     1       4.966  45.621  -0.487  1.00  0.00     0.283 C 
HETATM    6  O1  UNL     1       3.894  45.301   0.095  1.00  0.00    -0.265 OA
ENDROOT
BRANCH   5   7
HETATM    7  C3  UNL     1       6.222  45.013  -0.090  1.00  0.00     0.127 A 
HETATM    8  C4  UNL     1       7.445  45.256  -0.677  1.00  0.00     0.095 A 
HETATM    9  C5  UNL     1       8.352  44.453   0.019  1.00  0.00     0.168 A 
HETATM   10  O3  UNL     1       7.680  43.797   0.945  1.00  0.00    -0.220 OA
HETATM   11  N12 UNL     1       6.434  44.124   0.883  1.00  0.00    -0.254 N 
ATOM     12  H12 UNL     1       5.708  43.753   1.495  1.00  0.00     0.195 HD
BRANCH   9  13
HETATM   13  N3  UNL     1       9.736  44.360  -0.220  1.00  0.00    -0.363 N 
ATOM     14  H3  UNL     1      10.119  43.478  -0.561  1.00  0.00     0.162 HD
BRANCH  13  15
HETATM   15  C6  UNL     1      10.622  45.460  -0.003  1.00  0.00     0.181 C 
BRANCH  15  16
HETATM   16  C7  UNL     1      10.960  46.142  -1.272  1.00  0.00     0.062 A 
HETATM   17  C8  UNL     1      11.069  47.497  -1.482  1.00  0.00     0.146 A 
HETATM   18  N4  UNL     1      11.398  47.698  -2.789  1.00  0.00    -0.244 N 
HETATM   19  N10 UNL     1      11.481  46.500  -3.332  1.00  0.00    -0.236 N 
HETATM   20  N11 UNL     1      11.220  45.548  -2.435  1.00  0.00    -0.287 N 
ATOM     21  H10 UNL     1      11.714  46.324  -4.309  1.00  0.00     0.209 HD
ATOM     22  H11 UNL     1      11.220  44.543  -2.610  1.00  0.00     0.188 HD
BRANCH  18  23
HETATM   23  C9  UNL     1      11.598  48.998  -3.338  1.00  0.00     0.145 A 
HETATM   24  C10 UNL     1      10.547  49.736  -3.831  1.00  0.00     0.152 A 
HETATM   25  N6  UNL     1      10.815  50.979  -4.327  1.00  0.00    -0.174 N 
HETATM   26  C15 UNL     1      12.031  51.530  -4.367  1.00  0.00     0.679 A 
ATOM     27  H6  UNL     1      10.034  51.525  -4.692  1.00  0.00     0.186 HD
HETATM   28  N8  UNL     1      13.064  50.806  -3.885  1.00  0.00    -0.175 N 
HETATM   29  C16 UNL     1      12.853  49.578  -3.386  1.00  0.00     0.147 A 
ATOM     30  H8  UNL     1      14.008  51.194  -3.899  1.00  0.00     0.186 HD
BRANCH  24  31
HETATM   31  N5  UNL     1       9.237  49.223  -3.832  1.00  0.00    -0.361 N 
HETATM   32  C11 UNL     1       8.788  48.435  -4.957  1.00  0.00     0.150 C 
HETATM   33  C12 UNL     1       8.018  47.261  -4.323  1.00  0.00     0.187 C 
HETATM   34  O2  UNL     1       6.887  47.826  -3.785  1.00  0.00    -0.388 OA
HETATM   35  C13 UNL     1       7.136  48.603  -2.686  1.00  0.00     0.187 C 
HETATM   36  C14 UNL     1       8.360  49.450  -2.733  1.00  0.00     0.150 C 
ENDBRANCH  24  31
BRANCH  26  37
HETATM   37  N7  UNL     1      12.264  52.708  -4.841  1.00  0.00    -0.234 N 
ATOM     38  H72 UNL     1      11.627  53.468  -4.605  1.00  0.00     0.174 HD
ATOM     39  H71 UNL     1      13.057  52.925  -5.444  1.00  0.00     0.174 HD
ENDBRANCH  26  37
BRANCH  29  40
HETATM   40  N9  UNL     1      13.861  48.917  -2.937  1.00  0.00    -0.383 N 
ATOM     41  H92 UNL     1      13.888  48.687  -1.943  1.00  0.00     0.157 HD
ATOM     42  H91 UNL     1      14.600  48.645  -3.585  1.00  0.00     0.157 HD
ENDBRANCH  29  40
ENDBRANCH  18  23
ENDBRANCH  15  16
ENDBRANCH  13  15
ENDBRANCH   9  13
ENDBRANCH   5   7
TORSDOF 8
ENDMDL
MODEL 2
REMARK VINA RESULT: -6.387552550      2.098      3.136
REMARK  8 active torsions:
REMARK  status: ('A' for Active; 'I' for Inactive)
REMARK       I    between atoms: N2_3  and  C2_5 
REMARK    1  A    between atoms: C2_5  and  C3_7 
REMARK    2  A    between atoms: C5_9  and  N3_10 
REMARK    3  A    between atoms: N3_10  and  C6_12 
REMARK    4  A    between atoms: C6_12  and  C7_13 
REMARK    5  A    between atoms: N4_15  and  C9_16 
REMARK    6  A    between atoms: C10_17  and  N5_18 
REMARK    7  A    between atoms: C15_26  and  N7_27 
REMARK    8  A    between atoms: C16_32  and  N9_33 
ROOT
HETATM    1  N1  UNL     1       2.856  47.764  -2.292  1.00  0.00    -0.172 NA
HETATM    2  C1  UNL     1       3.820  47.225  -1.950  1.00  0.00     0.184 C 
HETATM    3  N2  UNL     1       4.987  46.593  -1.520  1.00  0.00    -0.258 N 
ATOM      4  H2  UNL     1       5.874  46.836  -1.961  1.00  0.00     0.181 HD
HETATM    5  C2  UNL     1       4.974  45.625  -0.491  1.00  0.00     0.283 C 
HETATM    6  O1  UNL     1       3.890  45.306   0.067  1.00  0.00    -0.265 OA
ENDROOT
BRANCH   5   7
HETATM    7  C3  UNL     1       6.218  44.999  -0.081  1.00  0.00     0.127 A 
HETATM    8  C4  UNL     1       7.461  45.275  -0.610  1.00  0.00     0.095 A 
HETATM    9  C5  UNL     1       8.345  44.439   0.076  1.00  0.00     0.168 A 
HETATM   10  O3  UNL     1       7.642  43.733   0.940  1.00  0.00    -0.220 OA
HETATM   11  N12 UNL     1       6.398  44.061   0.850  1.00  0.00    -0.254 N 
ATOM     12  H12 UNL     1       5.652  43.656   1.415  1.00  0.00     0.195 HD
BRANCH   9  13
HETATM   13  N3  UNL     1       9.737  44.361  -0.118  1.00  0.00    -0.363 N 
ATOM     14  H3  UNL     1      10.155  43.456  -0.334  1.00  0.00     0.162 HD
BRANCH  13  15
HETATM   15  C6  UNL     1      10.583  45.509  -0.024  1.00  0.00     0.181 C 
BRANCH  15  16
HETATM   16  C7  UNL     1      10.954  46.019  -1.363  1.00  0.00     0.062 A 
HETATM   17  C8  UNL     1      10.441  45.619  -2.574  1.00  0.00     0.146 A 
HETATM   18  N4  UNL     1      11.054  46.342  -3.554  1.00  0.00    -0.244 N 
HETATM   19  N10 UNL     1      11.901  47.143  -2.939  1.00  0.00    -0.236 N 
HETATM   20  N11 UNL     1      11.857  46.964  -1.618  1.00  0.00    -0.287 N 
ATOM     21  H10 UNL     1      12.511  47.811  -3.411  1.00  0.00     0.209 HD
ATOM     22  H11 UNL     1      12.417  47.463  -0.926  1.00  0.00     0.188 HD
BRANCH  18  23
HETATM   23  C9  UNL     1      10.744  46.180  -4.935  1.00  0.00     0.145 A 
HETATM   24  C10 UNL     1       9.824  46.988  -5.562  1.00  0.00     0.152 A 
HETATM   25  N6  UNL     1       9.591  46.782  -6.891  1.00  0.00    -0.174 N 
HETATM   26  C15 UNL     1      10.196  45.847  -7.627  1.00  0.00     0.679 A 
ATOM     27  H6  UNL     1       8.909  47.383  -7.354  1.00  0.00     0.186 HD
HETATM   28  N8  UNL     1      11.098  45.051  -7.013  1.00  0.00    -0.175 N 
HETATM   29  C16 UNL     1      11.363  45.213  -5.707  1.00  0.00     0.147 A 
ATOM     30  H8  UNL     1      11.580  44.324  -7.543  1.00  0.00     0.186 HD
BRANCH  24  31
HETATM   31  N5  UNL     1       9.138  47.993  -4.854  1.00  0.00    -0.361 N 
HETATM   32  C11 UNL     1       7.923  47.655  -4.149  1.00  0.00     0.150 C 
HETATM   33  C12 UNL     1       8.042  48.389  -2.800  1.00  0.00     0.187 C 
HETATM   34  O2  UNL     1       7.937  49.724  -3.110  1.00  0.00    -0.388 OA
HETATM   35  C13 UNL     1       9.028  50.215  -3.776  1.00  0.00     0.187 C 
HETATM   36  C14 UNL     1       9.637  49.326  -4.804  1.00  0.00     0.150 C 
ENDBRANCH  24  31
BRANCH  26  37
HETATM   37  N7  UNL     1       9.961  45.667  -8.884  1.00  0.00    -0.234 N 
ATOM     38  H72 UNL     1      10.410  44.885  -9.360  1.00  0.00     0.174 HD
ATOM     39  H71 UNL     1       9.346  46.266  -9.433  1.00  0.00     0.174 HD
ENDBRANCH  26  37
BRANCH  29  40
HETATM   40  N9  UNL     1      12.226  44.436  -5.156  1.00  0.00    -0.383 N 
ATOM     41  H92 UNL     1      12.715  44.765  -4.322  1.00  0.00     0.157 HD
ATOM     42  H91 UNL     1      12.397  43.518  -5.566  1.00  0.00     0.157 HD
ENDBRANCH  29  40
ENDBRANCH  18  23
ENDBRANCH  15  16
ENDBRANCH  13  15
ENDBRANCH   9  13
ENDBRANCH   5   7
TORSDOF 8
ENDMDL
MODEL 3
REMARK VINA RESULT: -6.287001499      1.080      1.145
REMARK  8 active torsions:
REMARK  status: ('A' for Active; 'I' for Inactive)
REMARK       I    between atoms: N2_3  and  C2_5 
REMARK    1  A    between atoms: C2_5  and  C3_7 
REMARK    2  A    between atoms: C5_9  and  N3_10 
REMARK    3  A    between atoms: N3_10  and  C6_12 
REMARK    4  A    between atoms: C6_12  and  C7_13 
REMARK    5  A    between atoms: N4_15  and  C9_16 
REMARK    6  A    between atoms: C10_17  and  N5_18 
REMARK    7  A    between atoms: C15_26  and  N7_27 
REMARK    8  A    between atoms: C16_32  and  N9_33 
ROOT
HETATM    1  N1  UNL     1       2.939  48.040  -2.609  1.00  0.00    -0.172 NA
HETATM    2  C1  UNL     1       3.824  47.441  -2.168  1.00  0.00     0.184 C 
HETATM    3  N2  UNL     1       4.895  46.735  -1.620  1.00  0.00    -0.258 N 
ATOM      4  H2  UNL     1       5.836  46.910  -1.972  1.00  0.00     0.181 HD
HETATM    5  C2  UNL     1       4.712  45.783  -0.592  1.00  0.00     0.283 C 
HETATM    6  O1  UNL     1       3.557  45.547  -0.143  1.00  0.00    -0.265 OA
ENDROOT
BRANCH   5   7
HETATM    7  C3  UNL     1       5.862  45.078  -0.056  1.00  0.00     0.127 A 
HETATM    8  C4  UNL     1       7.145  45.156  -0.551  1.00  0.00     0.095 A 
HETATM    9  C5  UNL     1       7.904  44.313   0.264  1.00  0.00     0.168 A 
HETATM   10  O3  UNL     1       7.096  43.791   1.166  1.00  0.00    -0.220 OA
HETATM   11  N12 UNL     1       5.901  44.238   0.980  1.00  0.00    -0.254 N 
ATOM     12  H12 UNL     1       5.094  43.984   1.549  1.00  0.00     0.195 HD
BRANCH   9  13
HETATM   13  N3  UNL     1       9.285  44.064   0.147  1.00  0.00    -0.363 N 
ATOM     14  H3  UNL     1       9.608  43.098   0.082  1.00  0.00     0.162 HD
BRANCH  13  15
HETATM   15  C6  UNL     1      10.249  45.118   0.116  1.00  0.00     0.181 C 
BRANCH  15  16
HETATM   16  C7  UNL     1      10.592  45.497  -1.273  1.00  0.00     0.062 A 
HETATM   17  C8  UNL     1      11.117  46.694  -1.700  1.00  0.00     0.146 A 
HETATM   18  N4  UNL     1      11.284  46.625  -3.051  1.00  0.00    -0.244 N 
HETATM   19  N10 UNL     1      10.870  45.427  -3.409  1.00  0.00    -0.236 N 
HETATM   20  N11 UNL     1      10.448  44.730  -2.352  1.00  0.00    -0.287 N 
ATOM     21  H10 UNL     1      10.871  45.077  -4.367  1.00  0.00     0.209 HD
ATOM     22  H11 UNL     1      10.080  43.779  -2.369  1.00  0.00     0.188 HD
BRANCH  18  23
HETATM   23  C9  UNL     1      11.822  47.703  -3.813  1.00  0.00     0.145 A 
HETATM   24  C10 UNL     1      11.016  48.703  -4.307  1.00  0.00     0.152 A 
HETATM   25  N6  UNL     1      11.606  49.710  -5.015  1.00  0.00    -0.174 N 
HETATM   26  C15 UNL     1      12.916  49.792  -5.262  1.00  0.00     0.679 A 
ATOM     27  H6  UNL     1      11.007  50.451  -5.379  1.00  0.00     0.186 HD
HETATM   28  N8  UNL     1      13.708  48.810  -4.780  1.00  0.00    -0.175 N 
HETATM   29  C16 UNL     1      13.177  47.797  -4.077  1.00  0.00     0.147 A 
ATOM     30  H8  UNL     1      14.714  48.838  -4.950  1.00  0.00     0.186 HD
BRANCH  24  31
HETATM   31  N5  UNL     1       9.625  48.686  -4.096  1.00  0.00    -0.361 N 
HETATM   32  C11 UNL     1       8.774  48.016  -5.052  1.00  0.00     0.150 C 
HETATM   33  C12 UNL     1       7.757  47.244  -4.190  1.00  0.00     0.187 C 
HETATM   34  O2  UNL     1       6.976  48.213  -3.607  1.00  0.00    -0.388 OA
HETATM   35  C13 UNL     1       7.634  48.940  -2.652  1.00  0.00     0.187 C 
HETATM   36  C14 UNL     1       9.050  49.296  -2.944  1.00  0.00     0.150 C 
ENDBRANCH  24  31
BRANCH  26  37
HETATM   37  N7  UNL     1      13.455  50.752  -5.935  1.00  0.00    -0.234 N 
ATOM     38  H72 UNL     1      12.861  51.509  -6.273  1.00  0.00     0.174 HD
ATOM     39  H71 UNL     1      14.451  50.799  -6.150  1.00  0.00     0.174 HD
ENDBRANCH  26  37
BRANCH  29  40
HETATM   40  N9  UNL     1      13.961  46.879  -3.635  1.00  0.00    -0.383 N 
ATOM     41  H92 UNL     1      14.843  46.718  -4.122  1.00  0.00     0.157 HD
ATOM     42  H91 UNL     1      13.679  46.341  -2.816  1.00  0.00     0.157 HD
ENDBRANCH  29  40
ENDBRANCH  18  23
ENDBRANCH  15  16
ENDBRANCH  13  15
ENDBRANCH   9  13
ENDBRANCH   5   7
TORSDOF 8
ENDMDL
MODEL 4
REMARK VINA RESULT: -6.200751538      1.793      2.253
REMARK  8 active torsions:
REMARK  status: ('A' for Active; 'I' for Inactive)
REMARK       I    between atoms: N2_3  and  C2_5 
REMARK    1  A    between atoms: C2_5  and  C3_7 
REMARK    2  A    between atoms: C5_9  and  N3_10 
REMARK    3  A    between atoms: N3_10  and  C6_12 
REMARK    4  A    between atoms: C6_12  and  C7_13 
REMARK    5  A    between atoms: N4_15  and  C9_16 
REMARK    6  A    between atoms: C10_17  and  N5_18 
REMARK    7  A    between atoms: C15_26  and  N7_27 
REMARK    8  A    between atoms: C16_32  and  N9_33 
ROOT
HETATM    1  N1  UNL     1       3.036  48.065  -2.649  1.00  0.00    -0.172 NA
HETATM    2  C1  UNL     1       3.910  47.461  -2.192  1.00  0.00     0.184 C 
HETATM    3  N2  UNL     1       4.967  46.750  -1.624  1.00  0.00    -0.258 N 
ATOM      4  H2  UNL     1       5.918  46.935  -1.944  1.00  0.00     0.181 HD
HETATM    5  C2  UNL     1       4.757  45.779  -0.619  1.00  0.00     0.283 C 
HETATM    6  O1  UNL     1       3.591  45.530  -0.210  1.00  0.00    -0.265 OA
ENDROOT
BRANCH   5   7
HETATM    7  C3  UNL     1       5.894  45.069  -0.061  1.00  0.00     0.127 A 
HETATM    8  C4  UNL     1       7.180  45.111  -0.555  1.00  0.00     0.095 A 
HETATM    9  C5  UNL     1       7.922  44.278   0.285  1.00  0.00     0.168 A 
HETATM   10  O3  UNL     1       7.103  43.795   1.199  1.00  0.00    -0.220 OA
HETATM   11  N12 UNL     1       5.916  44.258   0.998  1.00  0.00    -0.254 N 
ATOM     12  H12 UNL     1       5.103  44.033   1.572  1.00  0.00     0.195 HD
BRANCH   9  13
HETATM   13  N3  UNL     1       9.298  44.002   0.179  1.00  0.00    -0.363 N 
ATOM     14  H3  UNL     1       9.603  43.242  -0.430  1.00  0.00     0.162 HD
BRANCH  13  15
HETATM   15  C6  UNL     1      10.282  44.751   0.895  1.00  0.00     0.181 C 
BRANCH  15  16
HETATM   16  C7  UNL     1      10.898  45.791   0.041  1.00  0.00     0.062 A 
HETATM   17  C8  UNL     1      11.239  45.680  -1.286  1.00  0.00     0.146 A 
HETATM   18  N4  UNL     1      11.775  46.867  -1.687  1.00  0.00    -0.244 N 
HETATM   19  N10 UNL     1      11.752  47.652  -0.630  1.00  0.00    -0.236 N 
HETATM   20  N11 UNL     1      11.227  47.024   0.423  1.00  0.00    -0.287 N 
ATOM     21  H10 UNL     1      12.090  48.615  -0.618  1.00  0.00     0.209 HD
ATOM     22  H11 UNL     1      11.101  47.418   1.355  1.00  0.00     0.188 HD
BRANCH  18  23
HETATM   23  C9  UNL     1      12.227  47.093  -3.020  1.00  0.00     0.145 A 
HETATM   24  C10 UNL     1      11.397  47.634  -3.975  1.00  0.00     0.152 A 
HETATM   25  N6  UNL     1      11.905  47.836  -5.225  1.00  0.00    -0.174 N 
HETATM   26  C15 UNL     1      13.157  47.542  -5.587  1.00  0.00     0.679 A 
ATOM     27  H6  UNL     1      11.288  48.238  -5.931  1.00  0.00     0.186 HD
HETATM   28  N8  UNL     1      13.972  47.009  -4.652  1.00  0.00    -0.175 N 
HETATM   29  C16 UNL     1      13.520  46.792  -3.407  1.00  0.00     0.147 A 
ATOM     30  H8  UNL     1      14.935  46.771  -4.892  1.00  0.00     0.186 HD
BRANCH  24  31
HETATM   31  N5  UNL     1      10.062  47.964  -3.675  1.00  0.00    -0.361 N 
HETATM   32  C11 UNL     1       9.762  49.266  -3.126  1.00  0.00     0.150 C 
HETATM   33  C12 UNL     1       8.499  49.722  -3.881  1.00  0.00     0.187 C 
HETATM   34  O2  UNL     1       7.499  48.889  -3.438  1.00  0.00    -0.388 OA
HETATM   35  C13 UNL     1       7.625  47.601  -3.887  1.00  0.00     0.187 C 
HETATM   36  C14 UNL     1       9.005  47.042  -3.928  1.00  0.00     0.150 C 
ENDBRANCH  24  31
BRANCH  26  37
HETATM   37  N7  UNL     1      13.619  47.740  -6.776  1.00  0.00    -0.234 N 
ATOM     38  H72 UNL     1      13.017  47.547  -7.576  1.00  0.00     0.174 HD
ATOM     39  H71 UNL     1      14.561  48.082  -6.965  1.00  0.00     0.174 HD
ENDBRANCH  26  37
BRANCH  29  40
HETATM   40  N9  UNL     1      14.324  46.281  -2.543  1.00  0.00    -0.383 N 
ATOM     41  H92 UNL     1      14.462  46.770  -1.658  1.00  0.00     0.157 HD
ATOM     42  H91 UNL     1      14.799  45.407  -2.768  1.00  0.00     0.157 HD
ENDBRANCH  29  40
ENDBRANCH  18  23
ENDBRANCH  15  16
ENDBRANCH  13  15
ENDBRANCH   9  13
ENDBRANCH   5   7
TORSDOF 8
ENDMDL
MODEL 5
REMARK VINA RESULT: -6.130410918      1.300      1.588
REMARK  8 active torsions:
REMARK  status: ('A' for Active; 'I' for Inactive)
REMARK       I    between atoms: N2_3  and  C2_5 
REMARK    1  A    between atoms: C2_5  and  C3_7 
REMARK    2  A    between atoms: C5_9  and  N3_10 
REMARK    3  A    between atoms: N3_10  and  C6_12 
REMARK    4  A    between atoms: C6_12  and  C7_13 
REMARK    5  A    between atoms: N4_15  and  C9_16 
REMARK    6  A    between atoms: C10_17  and  N5_18 
REMARK    7  A    between atoms: C15_26  and  N7_27 
REMARK    8  A    between atoms: C16_32  and  N9_33 
ROOT
HETATM    1  N1  UNL     1       2.831  48.054  -2.641  1.00  0.00    -0.172 NA
HETATM    2  C1  UNL     1       3.695  47.443  -2.176  1.00  0.00     0.184 C 
HETATM    3  N2  UNL     1       4.742  46.724  -1.597  1.00  0.00    -0.258 N 
ATOM      4  H2  UNL     1       5.695  46.888  -1.922  1.00  0.00     0.181 HD
HETATM    5  C2  UNL     1       4.517  45.775  -0.575  1.00  0.00     0.283 C 
HETATM    6  O1  UNL     1       3.348  45.553  -0.160  1.00  0.00    -0.265 OA
ENDROOT
BRANCH   5   7
HETATM    7  C3  UNL     1       5.643  45.056  -0.007  1.00  0.00     0.127 A 
HETATM    8  C4  UNL     1       6.943  45.125  -0.459  1.00  0.00     0.095 A 
HETATM    9  C5  UNL     1       7.667  44.270   0.374  1.00  0.00     0.168 A 
HETATM   10  O3  UNL     1       6.825  43.749   1.245  1.00  0.00    -0.220 OA
HETATM   11  N12 UNL     1       5.641  44.208   1.024  1.00  0.00    -0.254 N 
ATOM     12  H12 UNL     1       4.813  43.957   1.564  1.00  0.00     0.195 HD
BRANCH   9  13
HETATM   13  N3  UNL     1       9.049  44.009   0.301  1.00  0.00    -0.363 N 
ATOM     14  H3  UNL     1       9.639  44.252   1.097  1.00  0.00     0.162 HD
BRANCH  13  15
HETATM   15  C6  UNL     1       9.651  43.415  -0.850  1.00  0.00     0.181 C 
BRANCH  15  16
HETATM   16  C7  UNL     1      10.398  44.414  -1.647  1.00  0.00     0.062 A 
HETATM   17  C8  UNL     1      10.717  45.700  -1.276  1.00  0.00     0.146 A 
HETATM   18  N4  UNL     1      11.409  46.276  -2.299  1.00  0.00    -0.244 N 
HETATM   19  N10 UNL     1      11.494  45.361  -3.242  1.00  0.00    -0.236 N 
HETATM   20  N11 UNL     1      10.891  44.231  -2.870  1.00  0.00    -0.287 N 
ATOM     21  H10 UNL     1      11.960  45.497  -4.140  1.00  0.00     0.209 HD
ATOM     22  H11 UNL     1      10.820  43.378  -3.424  1.00  0.00     0.188 HD
BRANCH  18  23
HETATM   23  C9  UNL     1      11.901  47.613  -2.235  1.00  0.00     0.145 A 
HETATM   24  C10 UNL     1      11.136  48.678  -2.651  1.00  0.00     0.152 A 
HETATM   25  N6  UNL     1      11.670  49.930  -2.544  1.00  0.00    -0.174 N 
HETATM   26  C15 UNL     1      12.887  50.192  -2.063  1.00  0.00     0.679 A 
ATOM     27  H6  UNL     1      11.101  50.718  -2.853  1.00  0.00     0.186 HD
HETATM   28  N8  UNL     1      13.640  49.147  -1.655  1.00  0.00    -0.175 N 
HETATM   29  C16 UNL     1      13.161  47.896  -1.739  1.00  0.00     0.147 A 
ATOM     30  H8  UNL     1      14.576  49.309  -1.282  1.00  0.00     0.186 HD
BRANCH  24  31
HETATM   31  N5  UNL     1       9.846  48.484  -3.178  1.00  0.00    -0.361 N 
HETATM   32  C11 UNL     1       9.698  48.114  -4.567  1.00  0.00     0.150 C 
HETATM   33  C12 UNL     1       8.614  47.021  -4.563  1.00  0.00     0.187 C 
HETATM   34  O2  UNL     1       7.453  47.672  -4.223  1.00  0.00    -0.388 OA
HETATM   35  C13 UNL     1       7.420  48.081  -2.916  1.00  0.00     0.187 C 
HETATM   36  C14 UNL     1       8.690  48.622  -2.357  1.00  0.00     0.150 C 
ENDBRANCH  24  31
BRANCH  26  37
HETATM   37  N7  UNL     1      13.375  51.384  -1.971  1.00  0.00    -0.234 N 
ATOM     38  H72 UNL     1      12.924  52.140  -2.484  1.00  0.00     0.174 HD
ATOM     39  H71 UNL     1      14.194  51.615  -1.409  1.00  0.00     0.174 HD
ENDBRANCH  26  37
BRANCH  29  40
HETATM   40  N9  UNL     1      13.906  46.926  -1.343  1.00  0.00    -0.383 N 
ATOM     41  H92 UNL     1      13.518  46.254  -0.681  1.00  0.00     0.157 HD
ATOM     42  H91 UNL     1      14.859  46.859  -1.700  1.00  0.00     0.157 HD
ENDBRANCH  29  40
ENDBRANCH  18  23
ENDBRANCH  15  16
ENDBRANCH  13  15
ENDBRANCH   9  13
ENDBRANCH   5   7
TORSDOF 8
ENDMDL
