MODEL 1
REMARK VINA RESULT: -5.100839273      0.000      0.000
REMARK  9 active torsions:
REMARK  status: ('A' for Active; 'I' for Inactive)
REMARK    1  A    between atoms: C2_2  and  N1_3 
REMARK    2  A    between atoms: C2_2  and  C10_27 
REMARK    3  A    between atoms: C4_8  and  N3_9 
REMARK    4  A    between atoms: C5_14  and  N5_15 
REMARK    5  A    between atoms: N5_15  and  N6_16 
REMARK    6  A    between atoms: N8_29  and  C12_30 
REMARK    7  A    between atoms: C12_30  and  C13_31 
REMARK    8  A    between atoms: C13_31  and  S1_32 
REMARK    9  A    between atoms: S1_32  and  C14_33 
ROOT
HETATM    1  C14 UNL     1      13.714  45.918   0.197  1.00  0.00     0.197 C 
HETATM    2  C15 UNL     1      12.445  46.450   0.635  1.00  0.00     0.069 C 
HETATM    3  N9  UNL     1      11.449  46.874   1.006  1.00  0.00    -0.197 NA
ENDROOT
BRANCH   1   4
HETATM    4  S1  UNL     1      14.471  46.756  -1.188  1.00  0.00    -0.153 SA
BRANCH   4   5
HETATM    5  C13 UNL     1      14.257  48.524  -1.195  1.00  0.00     0.096 C 
BRANCH   5   6
HETATM    6  C12 UNL     1      13.493  48.991  -2.407  1.00  0.00     0.160 C 
BRANCH   6   7
HETATM    7  N8  UNL     1      12.066  48.734  -2.168  1.00  0.00    -0.286 N 
HETATM    8  C11 UNL     1      11.280  48.026  -3.037  1.00  0.00     0.140 A 
HETATM    9  C10 UNL     1      10.014  47.993  -2.491  1.00  0.00     0.066 A 
HETATM   10  N11 UNL     1      10.058  48.654  -1.352  1.00  0.00    -0.287 N 
HETATM   11  N10 UNL     1      11.291  49.086  -1.184  1.00  0.00    -0.241 N 
ATOM     12  H11 UNL     1       9.276  48.804  -0.713  1.00  0.00     0.188 HD
ATOM     13  H10 UNL     1      11.601  49.631  -0.379  1.00  0.00     0.208 HD
BRANCH   9  14
HETATM   14  C2  UNL     1       8.819  47.314  -3.140  1.00  0.00     0.132 C 
HETATM   15  C1  UNL     1       7.954  48.385  -3.756  1.00  0.00     0.039 C 
BRANCH  14  16
HETATM   16  N1  UNL     1       8.228  46.471  -2.250  1.00  0.00    -0.364 N 
HETATM   17  C3  UNL     1       8.102  45.598  -1.461  1.00  0.00     0.153 C 
HETATM   18  N2  UNL     1       6.849  45.392  -0.940  1.00  0.00    -0.174 N 
HETATM   19  C7  UNL     1       9.165  44.812  -1.066  1.00  0.00     0.147 C 
HETATM   20  C4  UNL     1       6.498  44.846   0.249  1.00  0.00     0.680 C 
ATOM     21  H2  UNL     1       6.074  45.691  -1.531  1.00  0.00     0.186 HD
HETATM   22  N4  UNL     1       7.247  44.327   1.225  1.00  0.00    -0.160 N 
HETATM   23  C5  UNL     1       8.617  44.170   1.301  1.00  0.00     0.246 C 
ATOM     24  H4  UNL     1       6.729  43.997   2.039  1.00  0.00     0.187 HD
HETATM   25  C6  UNL     1       9.378  44.140   0.127  1.00  0.00     0.129 C 
HETATM   26  N7  UNL     1      10.416  43.235   0.495  1.00  0.00    -0.362 N 
HETATM   27  C9  UNL     1      11.612  43.033  -0.314  1.00  0.00     0.293 C 
ATOM     28  H7  UNL     1      10.317  42.705   1.362  1.00  0.00     0.162 HD
HETATM   29  O2  UNL     1      11.256  43.015  -1.683  1.00  0.00    -0.348 OA
HETATM   30  C8  UNL     1      11.305  44.279  -2.258  1.00  0.00     0.347 C 
HETATM   31  O1  UNL     1      10.003  44.844  -2.163  1.00  0.00    -0.320 OA
ATOM     32  H1  UNL     1       7.269  46.818  -2.287  1.00  0.00     0.162 HD
BRANCH  20  33
HETATM   33  N3  UNL     1       5.199  44.832   0.463  1.00  0.00    -0.234 N 
ATOM     34  H32 UNL     1       4.759  45.748   0.554  1.00  0.00     0.174 HD
ATOM     35  H31 UNL     1       4.801  43.895   0.511  1.00  0.00     0.174 HD
ENDBRANCH  20  33
BRANCH  23  36
HETATM   36  N5  UNL     1       9.177  44.075   2.331  1.00  0.00    -0.311 NA
BRANCH  36  37
HETATM   37  N6  UNL     1       9.785  43.983   3.450  1.00  0.00    -0.278 N 
ATOM     38  H62 UNL     1       9.579  43.800   2.467  1.00  0.00     0.191 HD
ATOM     39  H61 UNL     1      10.265  43.915   4.346  1.00  0.00     0.191 HD
ENDBRANCH  36  37
ENDBRANCH  23  36
ENDBRANCH  14  16
ENDBRANCH   9  14
ENDBRANCH   6   7
ENDBRANCH   5   6
ENDBRANCH   4   5
ENDBRANCH   1   4
TORSDOF 9
ENDMDL
MODEL 2
REMARK VINA RESULT: -4.958484890      7.259     10.563
REMARK  9 active torsions:
REMARK  status: ('A' for Active; 'I' for Inactive)
REMARK    1  A    between atoms: C2_2  and  N1_3 
REMARK    2  A    between atoms: C2_2  and  C10_27 
REMARK    3  A    between atoms: C4_8  and  N3_9 
REMARK    4  A    between atoms: C5_14  and  N5_15 
REMARK    5  A    between atoms: N5_15  and  N6_16 
REMARK    6  A    between atoms: N8_29  and  C12_30 
REMARK    7  A    between atoms: C12_30  and  C13_31 
REMARK    8  A    between atoms: C13_31  and  S1_32 
REMARK    9  A    between atoms: S1_32  and  C14_33 
ROOT
HETATM    1  C14 UNL     1       5.693  47.186  -2.317  1.00  0.00     0.197 C 
HETATM    2  C15 UNL     1       4.333  47.670  -2.338  1.00  0.00     0.069 C 
HETATM    3  N9  UNL     1       3.252  48.046  -2.331  1.00  0.00    -0.197 NA
ENDROOT
BRANCH   1   4
HETATM    4  S1  UNL     1       6.950  48.380  -2.749  1.00  0.00    -0.153 SA
BRANCH   4   5
HETATM    5  C13 UNL     1       8.144  47.806  -3.938  1.00  0.00     0.096 C 
BRANCH   5   6
HETATM    6  C12 UNL     1       9.216  48.834  -4.195  1.00  0.00     0.160 C 
BRANCH   6   7
HETATM    7  N8  UNL     1       8.951  49.446  -5.504  1.00  0.00    -0.286 N 
HETATM    8  C11 UNL     1       8.409  50.695  -5.647  1.00  0.00     0.140 A 
HETATM    9  C10 UNL     1       8.303  50.930  -7.002  1.00  0.00     0.066 A 
HETATM   10  N11 UNL     1       8.763  49.864  -7.625  1.00  0.00    -0.287 N 
HETATM   11  N10 UNL     1       9.142  48.995  -6.709  1.00  0.00    -0.241 N 
ATOM     12  H11 UNL     1       8.818  49.735  -8.635  1.00  0.00     0.188 HD
ATOM     13  H10 UNL     1       9.537  48.079  -6.921  1.00  0.00     0.208 HD
BRANCH   9  14
HETATM   14  C2  UNL     1       7.735  52.202  -7.608  1.00  0.00     0.132 C 
HETATM   15  C1  UNL     1       8.457  52.462  -8.907  1.00  0.00     0.039 C 
BRANCH  14  16
HETATM   16  N1  UNL     1       7.744  53.199  -6.681  1.00  0.00    -0.364 N 
HETATM   17  C3  UNL     1       7.373  54.115  -6.030  1.00  0.00     0.153 C 
HETATM   18  N2  UNL     1       8.242  54.623  -5.097  1.00  0.00    -0.174 N 
HETATM   19  C7  UNL     1       6.114  54.658  -6.186  1.00  0.00     0.147 C 
HETATM   20  C4  UNL     1       7.970  55.290  -3.950  1.00  0.00     0.680 C 
ATOM     21  H2  UNL     1       9.231  54.478  -5.296  1.00  0.00     0.186 HD
HETATM   22  N4  UNL     1       6.806  55.672  -3.419  1.00  0.00    -0.160 N 
HETATM   23  C5  UNL     1       5.521  55.520  -3.901  1.00  0.00     0.246 C 
ATOM     24  H4  UNL     1       6.877  56.149  -2.521  1.00  0.00     0.187 HD
HETATM   25  C6  UNL     1       5.312  55.322  -5.270  1.00  0.00     0.129 C 
HETATM   26  N7  UNL     1       4.065  55.986  -5.458  1.00  0.00    -0.362 N 
HETATM   27  C9  UNL     1       3.288  55.874  -6.686  1.00  0.00     0.293 C 
ATOM     28  H7  UNL     1       3.702  56.565  -4.701  1.00  0.00     0.162 HD
HETATM   29  O2  UNL     1       4.159  55.906  -7.800  1.00  0.00    -0.348 OA
HETATM   30  C8  UNL     1       4.585  54.637  -8.173  1.00  0.00     0.347 C 
HETATM   31  O1  UNL     1       5.817  54.386  -7.507  1.00  0.00    -0.320 OA
ATOM     32  H1  UNL     1       8.681  53.076  -6.297  1.00  0.00     0.162 HD
BRANCH  20  33
HETATM   33  N3  UNL     1       9.041  55.606  -3.254  1.00  0.00    -0.234 N 
ATOM     34  H32 UNL     1       9.569  56.408  -3.601  1.00  0.00     0.174 HD
ATOM     35  H31 UNL     1       9.204  55.000  -2.451  1.00  0.00     0.174 HD
ENDBRANCH  20  33
BRANCH  23  36
HETATM   36  N5  UNL     1       4.583  55.535  -3.190  1.00  0.00    -0.311 NA
BRANCH  36  37
HETATM   37  N6  UNL     1       3.564  55.541  -2.422  1.00  0.00    -0.278 N 
ATOM     38  H62 UNL     1       4.141  55.293  -3.226  1.00  0.00     0.191 HD
ATOM     39  H61 UNL     1       2.754  55.551  -1.803  1.00  0.00     0.191 HD
ENDBRANCH  36  37
ENDBRANCH  23  36
ENDBRANCH  14  16
ENDBRANCH   9  14
ENDBRANCH   6   7
ENDBRANCH   5   6
ENDBRANCH   4   5
ENDBRANCH   1   4
TORSDOF 9
ENDMDL
MODEL 3
REMARK VINA RESULT: -4.739639480      2.676      4.408
REMARK  9 active torsions:
REMARK  status: ('A' for Active; 'I' for Inactive)
REMARK    1  A    between atoms: C2_2  and  N1_3 
REMARK    2  A    between atoms: C2_2  and  C10_27 
REMARK    3  A    between atoms: C4_8  and  N3_9 
REMARK    4  A    between atoms: C5_14  and  N5_15 
REMARK    5  A    between atoms: N5_15  and  N6_16 
REMARK    6  A    between atoms: N8_29  and  C12_30 
REMARK    7  A    between atoms: C12_30  and  C13_31 
REMARK    8  A    between atoms: C13_31  and  S1_32 
REMARK    9  A    between atoms: S1_32  and  C14_33 
ROOT
HETATM    1  C14 UNL     1      11.972  50.350  -3.334  1.00  0.00     0.197 C 
HETATM    2  C15 UNL     1      11.693  48.940  -3.470  1.00  0.00     0.069 C 
HETATM    3  N9  UNL     1      11.460  47.823  -3.556  1.00  0.00    -0.197 NA
ENDROOT
BRANCH   1   4
HETATM    4  S1  UNL     1      11.406  51.388  -4.673  1.00  0.00    -0.153 SA
BRANCH   4   5
HETATM    5  C13 UNL     1       9.668  51.776  -4.628  1.00  0.00     0.096 C 
BRANCH   5   6
HETATM    6  C12 UNL     1       8.914  51.097  -5.742  1.00  0.00     0.160 C 
BRANCH   6   7
HETATM    7  N8  UNL     1       8.730  49.688  -5.371  1.00  0.00    -0.286 N 
HETATM    8  C11 UNL     1       8.120  49.296  -4.210  1.00  0.00     0.140 A 
HETATM    9  C10 UNL     1       8.132  47.916  -4.200  1.00  0.00     0.066 A 
HETATM   10  N11 UNL     1       8.724  47.519  -5.308  1.00  0.00    -0.287 N 
HETATM   11  N10 UNL     1       9.071  48.593  -5.987  1.00  0.00    -0.241 N 
ATOM     12  H11 UNL     1       8.883  46.552  -5.591  1.00  0.00     0.188 HD
ATOM     13  H10 UNL     1       9.551  48.570  -6.887  1.00  0.00     0.208 HD
BRANCH   9  14
HETATM   14  C2  UNL     1       7.563  47.063  -3.079  1.00  0.00     0.132 C 
HETATM   15  C1  UNL     1       6.485  47.862  -2.389  1.00  0.00     0.039 C 
BRANCH  14  16
HETATM   16  N1  UNL     1       8.575  46.584  -2.305  1.00  0.00    -0.364 N 
HETATM   17  C3  UNL     1       9.141  45.943  -1.487  1.00  0.00     0.153 C 
HETATM   18  N2  UNL     1      10.488  46.154  -1.337  1.00  0.00    -0.174 N 
HETATM   19  C7  UNL     1       8.485  45.009  -0.710  1.00  0.00     0.147 C 
HETATM   20  C4  UNL     1      11.439  45.307  -0.875  1.00  0.00     0.680 C 
ATOM     21  H2  UNL     1      10.820  47.078  -1.611  1.00  0.00     0.186 HD
HETATM   22  N4  UNL     1      11.343  44.060  -0.407  1.00  0.00    -0.160 N 
HETATM   23  C5  UNL     1      10.229  43.264  -0.231  1.00  0.00     0.246 C 
ATOM     24  H4  UNL     1      12.228  43.630  -0.139  1.00  0.00     0.187 HD
HETATM   25  C6  UNL     1       8.966  43.855  -0.112  1.00  0.00     0.129 C 
HETATM   26  N7  UNL     1       8.324  42.954   0.786  1.00  0.00    -0.362 N 
HETATM   27  C9  UNL     1       6.892  42.998   1.060  1.00  0.00     0.293 C 
ATOM     28  H7  UNL     1       8.890  42.247   1.257  1.00  0.00     0.162 HD
HETATM   29  O2  UNL     1       6.474  44.345   1.159  1.00  0.00    -0.348 OA
HETATM   30  C8  UNL     1       6.067  44.863  -0.064  1.00  0.00     0.347 C 
HETATM   31  O1  UNL     1       7.194  45.497  -0.656  1.00  0.00    -0.320 OA
ATOM     32  H1  UNL     1       9.352  47.138  -2.666  1.00  0.00     0.162 HD
BRANCH  20  33
HETATM   33  N3  UNL     1      12.654  45.812  -0.898  1.00  0.00    -0.234 N 
ATOM     34  H32 UNL     1      12.828  46.569  -0.236  1.00  0.00     0.174 HD
ATOM     35  H31 UNL     1      13.269  45.375  -1.584  1.00  0.00     0.174 HD
ENDBRANCH  20  33
BRANCH  23  36
HETATM   36  N5  UNL     1      10.301  42.091  -0.193  1.00  0.00    -0.311 NA
BRANCH  36  37
HETATM   37  N6  UNL     1      10.371  40.817  -0.158  1.00  0.00    -0.278 N 
ATOM     38  H62 UNL     1      10.262  41.768   0.194  1.00  0.00     0.191 HD
ATOM     39  H61 UNL     1      10.429  39.799  -0.139  1.00  0.00     0.191 HD
ENDBRANCH  36  37
ENDBRANCH  23  36
ENDBRANCH  14  16
ENDBRANCH   9  14
ENDBRANCH   6   7
ENDBRANCH   5   6
ENDBRANCH   4   5
ENDBRANCH   1   4
TORSDOF 9
ENDMDL
MODEL 4
REMARK VINA RESULT: -4.515737240      5.726      9.196
REMARK  9 active torsions:
REMARK  status: ('A' for Active; 'I' for Inactive)
REMARK    1  A    between atoms: C2_2  and  N1_3 
REMARK    2  A    between atoms: C2_2  and  C10_27 
REMARK    3  A    between atoms: C4_8  and  N3_9 
REMARK    4  A    between atoms: C5_14  and  N5_15 
REMARK    5  A    between atoms: N5_15  and  N6_16 
REMARK    6  A    between atoms: N8_29  and  C12_30 
REMARK    7  A    between atoms: C12_30  and  C13_31 
REMARK    8  A    between atoms: C13_31  and  S1_32 
REMARK    9  A    between atoms: S1_32  and  C14_33 
ROOT
HETATM    1  C14 UNL     1       6.964  44.227   0.726  1.00  0.00     0.197 C 
HETATM    2  C15 UNL     1       5.769  44.851   0.209  1.00  0.00     0.069 C 
HETATM    3  N9  UNL     1       4.816  45.354  -0.177  1.00  0.00    -0.197 NA
ENDROOT
BRANCH   1   4
HETATM    4  S1  UNL     1       8.479  44.616  -0.138  1.00  0.00    -0.153 SA
BRANCH   4   5
HETATM    5  C13 UNL     1       8.312  45.847  -1.414  1.00  0.00     0.096 C 
BRANCH   5   6
HETATM    6  C12 UNL     1       9.573  46.654  -1.581  1.00  0.00     0.160 C 
BRANCH   6   7
HETATM    7  N8  UNL     1       9.246  47.846  -2.375  1.00  0.00    -0.286 N 
HETATM    8  C11 UNL     1      10.138  48.446  -3.222  1.00  0.00     0.140 A 
HETATM    9  C10 UNL     1       9.488  49.524  -3.786  1.00  0.00     0.066 A 
HETATM   10  N11 UNL     1       8.268  49.553  -3.289  1.00  0.00    -0.287 N 
HETATM   11  N10 UNL     1       8.150  48.543  -2.451  1.00  0.00    -0.241 N 
ATOM     12  H11 UNL     1       7.543  50.235  -3.515  1.00  0.00     0.188 HD
ATOM     13  H10 UNL     1       7.302  48.334  -1.925  1.00  0.00     0.208 HD
BRANCH   9  14
HETATM   14  C2  UNL     1      10.121  50.480  -4.783  1.00  0.00     0.132 C 
HETATM   15  C1  UNL     1      11.620  50.358  -4.656  1.00  0.00     0.039 C 
BRANCH  14  16
HETATM   16  N1  UNL     1       9.583  51.722  -4.637  1.00  0.00    -0.364 N 
HETATM   17  C3  UNL     1       9.010  52.723  -4.902  1.00  0.00     0.153 C 
HETATM   18  N2  UNL     1       8.913  53.676  -3.919  1.00  0.00    -0.174 N 
HETATM   19  C7  UNL     1       8.450  52.937  -6.145  1.00  0.00     0.147 C 
HETATM   20  C4  UNL     1       7.977  54.641  -3.754  1.00  0.00     0.680 C 
ATOM     21  H2  UNL     1       9.649  53.655  -3.214  1.00  0.00     0.186 HD
HETATM   22  N4  UNL     1       6.919  54.964  -4.501  1.00  0.00    -0.160 N 
HETATM   23  C5  UNL     1       6.474  54.420  -5.690  1.00  0.00     0.246 C 
ATOM     24  H4  UNL     1       6.352  55.730  -4.138  1.00  0.00     0.187 HD
HETATM   25  C6  UNL     1       7.366  53.720  -6.509  1.00  0.00     0.129 C 
HETATM   26  N7  UNL     1       6.858  54.035  -7.802  1.00  0.00    -0.362 N 
HETATM   27  C9  UNL     1       7.307  53.359  -9.014  1.00  0.00     0.293 C 
ATOM     28  H7  UNL     1       6.150  54.765  -7.884  1.00  0.00     0.162 HD
HETATM   29  O2  UNL     1       8.706  53.158  -8.950  1.00  0.00    -0.348 OA
HETATM   30  C8  UNL     1       9.038  51.940  -8.369  1.00  0.00     0.347 C 
HETATM   31  O1  UNL     1       9.239  52.169  -6.979  1.00  0.00    -0.320 OA
ATOM     32  H1  UNL     1       9.843  51.915  -3.669  1.00  0.00     0.162 HD
BRANCH  20  33
HETATM   33  N3  UNL     1       8.154  55.372  -2.674  1.00  0.00    -0.234 N 
ATOM     34  H32 UNL     1       8.507  54.872  -1.858  1.00  0.00     0.174 HD
ATOM     35  H31 UNL     1       7.910  56.354  -2.799  1.00  0.00     0.174 HD
ENDBRANCH  20  33
BRANCH  23  36
HETATM   36  N5  UNL     1       5.353  54.511  -6.036  1.00  0.00    -0.311 NA
BRANCH  36  37
HETATM   37  N6  UNL     1       4.140  54.607  -6.421  1.00  0.00    -0.278 N 
ATOM     38  H62 UNL     1       5.155  54.536  -6.500  1.00  0.00     0.191 HD
ATOM     39  H61 UNL     1       3.169  54.683  -6.720  1.00  0.00     0.191 HD
ENDBRANCH  36  37
ENDBRANCH  23  36
ENDBRANCH  14  16
ENDBRANCH   9  14
ENDBRANCH   6   7
ENDBRANCH   5   6
ENDBRANCH   4   5
ENDBRANCH   1   4
TORSDOF 9
ENDMDL
MODEL 5
REMARK VINA RESULT: -4.515296715      2.632      4.254
REMARK  9 active torsions:
REMARK  status: ('A' for Active; 'I' for Inactive)
REMARK    1  A    between atoms: C2_2  and  N1_3 
REMARK    2  A    between atoms: C2_2  and  C10_27 
REMARK    3  A    between atoms: C4_8  and  N3_9 
REMARK    4  A    between atoms: C5_14  and  N5_15 
REMARK    5  A    between atoms: N5_15  and  N6_16 
REMARK    6  A    between atoms: N8_29  and  C12_30 
REMARK    7  A    between atoms: C12_30  and  C13_31 
REMARK    8  A    between atoms: C13_31  and  S1_32 
REMARK    9  A    between atoms: S1_32  and  C14_33 
ROOT
HETATM    1  C14 UNL     1      12.710  48.121  -4.491  1.00  0.00     0.197 C 
HETATM    2  C15 UNL     1      11.753  48.566  -3.506  1.00  0.00     0.069 C 
HETATM    3  N9  UNL     1      11.014  48.929  -2.711  1.00  0.00    -0.197 NA
ENDROOT
BRANCH   1   4
HETATM    4  S1  UNL     1      12.384  48.627  -6.174  1.00  0.00    -0.153 SA
BRANCH   4   5
HETATM    5  C13 UNL     1      11.205  47.612  -7.040  1.00  0.00     0.096 C 
BRANCH   5   6
HETATM    6  C12 UNL     1       9.922  48.353  -7.312  1.00  0.00     0.160 C 
BRANCH   6   7
HETATM    7  N8  UNL     1       9.212  48.512  -6.036  1.00  0.00    -0.286 N 
HETATM    8  C11 UNL     1       8.787  47.452  -5.281  1.00  0.00     0.140 A 
HETATM    9  C10 UNL     1       8.165  47.980  -4.169  1.00  0.00     0.066 A 
HETATM   10  N11 UNL     1       8.225  49.292  -4.269  1.00  0.00    -0.287 N 
HETATM   11  N10 UNL     1       8.852  49.583  -5.390  1.00  0.00    -0.241 N 
ATOM     12  H11 UNL     1       7.852  49.964  -3.597  1.00  0.00     0.188 HD
ATOM     13  H10 UNL     1       9.033  50.533  -5.714  1.00  0.00     0.208 HD
BRANCH   9  14
HETATM   14  C2  UNL     1       7.532  47.147  -3.067  1.00  0.00     0.132 C 
HETATM   15  C1  UNL     1       6.400  47.947  -2.472  1.00  0.00     0.039 C 
BRANCH  14  16
HETATM   16  N1  UNL     1       8.495  46.700  -2.215  1.00  0.00    -0.364 N 
HETATM   17  C3  UNL     1       9.014  46.079  -1.352  1.00  0.00     0.153 C 
HETATM   18  N2  UNL     1      10.339  46.332  -1.099  1.00  0.00    -0.174 N 
HETATM   19  C7  UNL     1       8.329  45.128  -0.624  1.00  0.00     0.147 C 
HETATM   20  C4  UNL     1      11.276  45.516  -0.561  1.00  0.00     0.680 C 
ATOM     21  H2  UNL     1      10.663  47.265  -1.351  1.00  0.00     0.186 HD
HETATM   22  N4  UNL     1      11.182  44.268  -0.095  1.00  0.00    -0.160 N 
HETATM   23  C5  UNL     1      10.082  43.438  -0.002  1.00  0.00     0.246 C 
ATOM     24  H4  UNL     1      12.056  43.865   0.243  1.00  0.00     0.187 HD
HETATM   25  C6  UNL     1       8.797  43.990   0.015  1.00  0.00     0.129 C 
HETATM   26  N7  UNL     1       8.114  43.072   0.865  1.00  0.00    -0.362 N 
HETATM   27  C9  UNL     1       6.665  43.073   1.026  1.00  0.00     0.293 C 
ATOM     28  H7  UNL     1       8.663  42.384   1.381  1.00  0.00     0.162 HD
HETATM   29  O2  UNL     1       6.199  44.407   1.087  1.00  0.00    -0.348 OA
HETATM   30  C8  UNL     1       5.873  44.909  -0.167  1.00  0.00     0.347 C 
HETATM   31  O1  UNL     1       7.023  45.576  -0.673  1.00  0.00    -0.320 OA
ATOM     32  H1  UNL     1       9.280  47.277  -2.516  1.00  0.00     0.162 HD
BRANCH  20  33
HETATM   33  N3  UNL     1      12.474  46.058  -0.491  1.00  0.00    -0.234 N 
ATOM     34  H32 UNL     1      12.504  47.072  -0.595  1.00  0.00     0.174 HD
ATOM     35  H31 UNL     1      13.223  45.382  -0.341  1.00  0.00     0.174 HD
ENDBRANCH  20  33
BRANCH  23  36
HETATM   36  N5  UNL     1      10.187  42.267   0.046  1.00  0.00    -0.311 NA
BRANCH  36  37
HETATM   37  N6  UNL     1      10.290  40.997   0.100  1.00  0.00    -0.278 N 
ATOM     38  H62 UNL     1      10.046  41.910  -0.283  1.00  0.00     0.191 HD
ATOM     39  H61 UNL     1      10.376  39.982   0.150  1.00  0.00     0.191 HD
ENDBRANCH  36  37
ENDBRANCH  23  36
ENDBRANCH  14  16
ENDBRANCH   9  14
ENDBRANCH   6   7
ENDBRANCH   5   6
ENDBRANCH   4   5
ENDBRANCH   1   4
TORSDOF 9
ENDMDL
