MODEL 1
REMARK VINA RESULT: -4.971383730      0.000      0.000
REMARK  4 active torsions:
REMARK  status: ('A' for Active; 'I' for Inactive)
REMARK    1  A    between atoms: C3_3  and  C4_4 
REMARK    2  A    between atoms: C5_5  and  C6_6 
REMARK       I    between atoms: C6_6  and  N1_8 
REMARK    3  A    between atoms: N1_8  and  C7_10 
REMARK    4  A    between atoms: C7_10  and  C8_11 
ROOT
HETATM    1  C1  UNL     1      77.190  62.539 -11.151  1.00  0.00     0.113 C 
HETATM    2  C2  UNL     1      77.885  63.829 -10.999  1.00  0.00    -0.097 C 
HETATM    3  C3  UNL     1      78.461  64.889 -10.854  1.00  0.00    -0.015 C 
ENDROOT
BRANCH   3   4
HETATM    4  C4  UNL     1      79.145  66.120 -10.663  1.00  0.00    -0.005 C 
HETATM    5  C5  UNL     1      79.734  67.161 -10.483  1.00  0.00     0.009 C 
BRANCH   5   6
HETATM    6  C6  UNL     1      80.447  68.385 -10.251  1.00  0.00     0.298 C 
HETATM    7  O1  UNL     1      80.583  69.201 -11.197  1.00  0.00    -0.258 OA
HETATM    8  N1  UNL     1      81.012  68.718  -8.991  1.00  0.00    -0.340 N 
ATOM      9  H1  UNL     1      80.909  68.066  -8.214  1.00  0.00     0.164 HD
BRANCH   8  10
HETATM   10  C7  UNL     1      81.721  69.946  -8.781  1.00  0.00     0.218 C 
BRANCH  10  11
HETATM   11  C8  UNL     1      83.183  69.769  -8.941  1.00  0.00    -0.087 C 
HETATM   12  C9  UNL     1      84.368  69.618  -9.084  1.00  0.00    -0.109 C 
HETATM   13  C10 UNL     1      85.808  69.439  -9.242  1.00  0.00     0.112 C 
ENDBRANCH  10  11
ENDBRANCH   8  10
ENDBRANCH   5   6
ENDBRANCH   3   4
TORSDOF 4
ENDMDL
MODEL 2
REMARK VINA RESULT: -4.940628778      5.073      6.522
REMARK  4 active torsions:
REMARK  status: ('A' for Active; 'I' for Inactive)
REMARK    1  A    between atoms: C3_3  and  C4_4 
REMARK    2  A    between atoms: C5_5  and  C6_6 
REMARK       I    between atoms: C6_6  and  N1_8 
REMARK    3  A    between atoms: N1_8  and  C7_10 
REMARK    4  A    between atoms: C7_10  and  C8_11 
ROOT
HETATM    1  C1  UNL     1      79.739  70.380  -7.291  1.00  0.00     0.113 C 
HETATM    2  C2  UNL     1      81.071  70.110  -7.858  1.00  0.00    -0.097 C 
HETATM    3  C3  UNL     1      82.168  69.869  -8.321  1.00  0.00    -0.015 C 
ENDROOT
BRANCH   3   4
HETATM    4  C4  UNL     1      83.445  69.561  -8.863  1.00  0.00    -0.005 C 
HETATM    5  C5  UNL     1      84.532  69.282  -9.314  1.00  0.00     0.009 C 
BRANCH   5   6
HETATM    6  C6  UNL     1      85.818  68.926  -9.844  1.00  0.00     0.298 C 
HETATM    7  O1  UNL     1      86.683  69.824 -10.003  1.00  0.00    -0.258 OA
HETATM    8  N1  UNL     1      86.161  67.595 -10.199  1.00  0.00    -0.340 N 
ATOM      9  H1  UNL     1      85.470  66.855 -10.075  1.00  0.00     0.164 HD
BRANCH   8  10
HETATM   10  C7  UNL     1      87.451  67.260 -10.727  1.00  0.00     0.218 C 
BRANCH  10  11
HETATM   11  C8  UNL     1      87.952  65.979 -10.180  1.00  0.00    -0.087 C 
HETATM   12  C9  UNL     1      88.348  64.937  -9.726  1.00  0.00    -0.109 C 
HETATM   13  C10 UNL     1      88.842  63.675  -9.183  1.00  0.00     0.112 C 
ENDBRANCH  10  11
ENDBRANCH   8  10
ENDBRANCH   5   6
ENDBRANCH   3   4
TORSDOF 4
ENDMDL
MODEL 3
REMARK VINA RESULT: -4.486343200      1.478      6.987
REMARK  4 active torsions:
REMARK  status: ('A' for Active; 'I' for Inactive)
REMARK    1  A    between atoms: C3_3  and  C4_4 
REMARK    2  A    between atoms: C5_5  and  C6_6 
REMARK       I    between atoms: C6_6  and  N1_8 
REMARK    3  A    between atoms: N1_8  and  C7_10 
REMARK    4  A    between atoms: C7_10  and  C8_11 
ROOT
HETATM    1  C1  UNL     1      86.846  69.563  -9.468  1.00  0.00     0.113 C 
HETATM    2  C2  UNL     1      85.423  69.276  -9.715  1.00  0.00    -0.097 C 
HETATM    3  C3  UNL     1      84.254  69.022  -9.927  1.00  0.00    -0.015 C 
ENDROOT
BRANCH   3   4
HETATM    4  C4  UNL     1      82.893  68.700 -10.179  1.00  0.00    -0.005 C 
HETATM    5  C5  UNL     1      81.740  68.411 -10.405  1.00  0.00     0.009 C 
BRANCH   5   6
HETATM    6  C6  UNL     1      80.380  68.044 -10.682  1.00  0.00     0.298 C 
HETATM    7  O1  UNL     1      79.483  68.920 -10.600  1.00  0.00    -0.258 OA
HETATM    8  N1  UNL     1      79.999  66.726 -11.047  1.00  0.00    -0.340 N 
ATOM      9  H1  UNL     1      80.716  66.004 -11.118  1.00  0.00     0.164 HD
BRANCH   8  10
HETATM   10  C7  UNL     1      78.634  66.381 -11.319  1.00  0.00     0.218 C 
BRANCH  10  11
HETATM   11  C8  UNL     1      78.247  65.114 -10.657  1.00  0.00    -0.087 C 
HETATM   12  C9  UNL     1      77.917  64.088 -10.122  1.00  0.00    -0.109 C 
HETATM   13  C10 UNL     1      77.532  62.841  -9.467  1.00  0.00     0.112 C 
ENDBRANCH  10  11
ENDBRANCH   8  10
ENDBRANCH   5   6
ENDBRANCH   3   4
TORSDOF 4
ENDMDL
MODEL 4
REMARK VINA RESULT: -4.481580401      1.691      7.074
REMARK  4 active torsions:
REMARK  status: ('A' for Active; 'I' for Inactive)
REMARK    1  A    between atoms: C3_3  and  C4_4 
REMARK    2  A    between atoms: C5_5  and  C6_6 
REMARK       I    between atoms: C6_6  and  N1_8 
REMARK    3  A    between atoms: N1_8  and  C7_10 
REMARK    4  A    between atoms: C7_10  and  C8_11 
ROOT
HETATM    1  C1  UNL     1      87.248  69.807 -11.423  1.00  0.00     0.113 C 
HETATM    2  C2  UNL     1      85.838  69.456 -11.180  1.00  0.00    -0.097 C 
HETATM    3  C3  UNL     1      84.673  69.165 -10.998  1.00  0.00    -0.015 C 
ENDROOT
BRANCH   3   4
HETATM    4  C4  UNL     1      83.309  68.815 -10.809  1.00  0.00    -0.005 C 
HETATM    5  C5  UNL     1      82.145  68.516 -10.668  1.00  0.00     0.009 C 
BRANCH   5   6
HETATM    6  C6  UNL     1      80.764  68.153 -10.525  1.00  0.00     0.298 C 
HETATM    7  O1  UNL     1      79.986  68.933  -9.921  1.00  0.00    -0.258 OA
HETATM    8  N1  UNL     1      80.231  66.941 -11.040  1.00  0.00    -0.340 N 
ATOM      9  H1  UNL     1      80.850  66.297 -11.533  1.00  0.00     0.164 HD
BRANCH   8  10
HETATM   10  C7  UNL     1      78.848  66.596 -10.886  1.00  0.00     0.218 C 
BRANCH  10  11
HETATM   11  C8  UNL     1      78.624  65.141 -11.045  1.00  0.00    -0.087 C 
HETATM   12  C9  UNL     1      78.428  63.961 -11.170  1.00  0.00    -0.109 C 
HETATM   13  C10 UNL     1      78.205  62.526 -11.323  1.00  0.00     0.112 C 
ENDBRANCH  10  11
ENDBRANCH   8  10
ENDBRANCH   5   6
ENDBRANCH   3   4
TORSDOF 4
ENDMDL
MODEL 5
REMARK VINA RESULT: -4.351928312      1.279      1.684
REMARK  4 active torsions:
REMARK  status: ('A' for Active; 'I' for Inactive)
REMARK    1  A    between atoms: C3_3  and  C4_4 
REMARK    2  A    between atoms: C5_5  and  C6_6 
REMARK       I    between atoms: C6_6  and  N1_8 
REMARK    3  A    between atoms: N1_8  and  C7_10 
REMARK    4  A    between atoms: C7_10  and  C8_11 
ROOT
HETATM    1  C1  UNL     1      77.640  63.602 -11.444  1.00  0.00     0.113 C 
HETATM    2  C2  UNL     1      78.431  64.785 -11.063  1.00  0.00    -0.097 C 
HETATM    3  C3  UNL     1      79.096  65.748 -10.738  1.00  0.00    -0.015 C 
ENDROOT
BRANCH   3   4
HETATM    4  C4  UNL     1      79.892  66.860 -10.351  1.00  0.00    -0.005 C 
HETATM    5  C5  UNL     1      80.578  67.795 -10.008  1.00  0.00     0.009 C 
BRANCH   5   6
HETATM    6  C6  UNL     1      81.407  68.889  -9.587  1.00  0.00     0.298 C 
HETATM    7  O1  UNL     1      80.868  69.977  -9.267  1.00  0.00    -0.258 OA
HETATM    8  N1  UNL     1      82.823  68.796  -9.516  1.00  0.00    -0.340 N 
ATOM      9  H1  UNL     1      83.275  67.919  -9.772  1.00  0.00     0.164 HD
BRANCH   8  10
HETATM   10  C7  UNL     1      83.634  69.900  -9.094  1.00  0.00     0.218 C 
BRANCH  10  11
HETATM   11  C8  UNL     1      84.920  69.947  -9.825  1.00  0.00    -0.087 C 
HETATM   12  C9  UNL     1      85.964  70.000 -10.422  1.00  0.00    -0.109 C 
HETATM   13  C10 UNL     1      87.231  70.049 -11.147  1.00  0.00     0.112 C 
ENDBRANCH  10  11
ENDBRANCH   8  10
ENDBRANCH   5   6
ENDBRANCH   3   4
TORSDOF 4
ENDMDL
