MODEL 1
REMARK VINA RESULT: -5.811813263      0.000      0.000
REMARK  7 active torsions:
REMARK  status: ('A' for Active; 'I' for Inactive)
REMARK    1  A    between atoms: N1_1  and  N2_4 
REMARK    2  A    between atoms: N2_4  and  C1_6 
REMARK    3  A    between atoms: C1_6  and  C5_16 
REMARK    4  A    between atoms: C2_7  and  O1_8 
REMARK    5  A    between atoms: C2_7  and  C3_10 
REMARK    6  A    between atoms: C3_10  and  O2_11 
REMARK    7  A    between atoms: C3_10  and  C4_13 
ROOT
HETATM    1  C1  UNL     1       8.058  13.658  37.386  1.00  0.00     0.090 C 
HETATM    2  C2  UNL     1       7.906  12.971  36.176  1.00  0.00     0.109 C 
ENDROOT
BRANCH   1   3
HETATM    3  N2  UNL     1       7.415  13.201  38.465  1.00  0.00    -0.304 N 
ATOM      4  H2  UNL     1       7.973  12.717  39.169  1.00  0.00     0.186 HD
BRANCH   3   5
HETATM    5  N1  UNL     1       6.078  13.327  38.708  1.00  0.00    -0.345 N 
ATOM      6  H12 UNL     1       5.490  12.559  38.386  1.00  0.00     0.176 HD
ATOM      7  H11 UNL     1       5.630  14.114  39.177  1.00  0.00     0.176 HD
ENDBRANCH   3   5
ENDBRANCH   1   3
BRANCH   1   8
HETATM    8  C5  UNL     1       8.899  14.869  37.684  1.00  0.00     0.002 A 
HETATM    9  C6  UNL     1       9.960  14.788  38.553  1.00  0.00     0.021 A 
HETATM   10  C7  UNL     1      10.696  15.918  38.760  1.00  0.00     0.050 A 
HETATM   11  S1  UNL     1       9.950  17.076  37.784  1.00  0.00    -0.113 SA
HETATM   12  C8  UNL     1       8.706  16.097  37.123  1.00  0.00     0.063 A 
ENDBRANCH   1   8
BRANCH   2  13
HETATM   13  O1  UNL     1       7.148  11.893  36.250  1.00  0.00    -0.359 OA
ATOM     14  H1  UNL     1       7.233  11.300  35.513  1.00  0.00     0.217 HD
ENDBRANCH   2  13
BRANCH   2  15
HETATM   15  C3  UNL     1       8.419  13.209  34.842  1.00  0.00     0.265 C 
BRANCH  15  16
HETATM   16  O2  UNL     1       8.598  11.910  34.179  1.00  0.00    -0.380 OA
ATOM     17  H2  UNL     1       7.814  11.393  34.321  1.00  0.00     0.211 HD
ENDBRANCH  15  16
BRANCH  15  18
HETATM   18  C4  UNL     1       7.404  13.846  33.932  1.00  0.00     0.266 C 
HETATM   19  N3  UNL     1       7.452  15.252  33.677  1.00  0.00    -0.059 NA
HETATM   20  O3  UNL     1       6.490  13.222  33.363  1.00  0.00    -0.274 OA
ENDBRANCH  15  18
ENDBRANCH   2  15
TORSDOF 7
ENDMDL
MODEL 2
REMARK VINA RESULT: -5.772407331      0.483      1.051
REMARK  7 active torsions:
REMARK  status: ('A' for Active; 'I' for Inactive)
REMARK    1  A    between atoms: N1_1  and  N2_4 
REMARK    2  A    between atoms: N2_4  and  C1_6 
REMARK    3  A    between atoms: C1_6  and  C5_16 
REMARK    4  A    between atoms: C2_7  and  O1_8 
REMARK    5  A    between atoms: C2_7  and  C3_10 
REMARK    6  A    between atoms: C3_10  and  O2_11 
REMARK    7  A    between atoms: C3_10  and  C4_13 
ROOT
HETATM    1  C1  UNL     1       8.110  13.648  37.350  1.00  0.00     0.090 C 
HETATM    2  C2  UNL     1       7.907  12.981  36.137  1.00  0.00     0.109 C 
ENDROOT
BRANCH   1   3
HETATM    3  N2  UNL     1       7.468  13.209  38.437  1.00  0.00    -0.304 N 
ATOM      4  H2  UNL     1       8.030  12.760  39.160  1.00  0.00     0.186 HD
BRANCH   3   5
HETATM    5  N1  UNL     1       6.125  13.310  38.664  1.00  0.00    -0.345 N 
ATOM      6  H12 UNL     1       5.721  14.240  38.556  1.00  0.00     0.176 HD
ATOM      7  H11 UNL     1       5.507  12.543  38.928  1.00  0.00     0.176 HD
ENDBRANCH   3   5
ENDBRANCH   1   3
BRANCH   1   8
HETATM    8  C5  UNL     1       9.007  14.819  37.643  1.00  0.00     0.002 A 
HETATM    9  C6  UNL     1       8.703  16.072  37.168  1.00  0.00     0.021 A 
HETATM   10  C7  UNL     1       9.547  17.094  37.491  1.00  0.00     0.050 A 
HETATM   11  S1  UNL     1      10.739  16.357  38.432  1.00  0.00    -0.113 SA
HETATM   12  C8  UNL     1      10.142  14.750  38.398  1.00  0.00     0.063 A 
ENDBRANCH   1   8
BRANCH   2  13
HETATM   13  O1  UNL     1       7.104  11.935  36.216  1.00  0.00    -0.359 OA
ATOM     14  H1  UNL     1       6.938  11.503  35.387  1.00  0.00     0.217 HD
ENDBRANCH   2  13
BRANCH   2  15
HETATM   15  C3  UNL     1       8.406  13.209  34.796  1.00  0.00     0.265 C 
BRANCH  15  16
HETATM   16  O2  UNL     1       8.566  11.906  34.136  1.00  0.00    -0.380 OA
ATOM     17  H2  UNL     1       8.055  11.265  34.615  1.00  0.00     0.211 HD
ENDBRANCH  15  16
BRANCH  15  18
HETATM   18  C4  UNL     1       7.385  13.851  33.896  1.00  0.00     0.266 C 
HETATM   19  N3  UNL     1       7.439  15.256  33.638  1.00  0.00    -0.059 NA
HETATM   20  O3  UNL     1       6.461  13.232  33.338  1.00  0.00    -0.274 OA
ENDBRANCH  15  18
ENDBRANCH   2  15
TORSDOF 7
ENDMDL
MODEL 3
REMARK VINA RESULT: -5.671195620      2.511      2.918
REMARK  7 active torsions:
REMARK  status: ('A' for Active; 'I' for Inactive)
REMARK    1  A    between atoms: N1_1  and  N2_4 
REMARK    2  A    between atoms: N2_4  and  C1_6 
REMARK    3  A    between atoms: C1_6  and  C5_16 
REMARK    4  A    between atoms: C2_7  and  O1_8 
REMARK    5  A    between atoms: C2_7  and  C3_10 
REMARK    6  A    between atoms: C3_10  and  O2_11 
REMARK    7  A    between atoms: C3_10  and  C4_13 
ROOT
HETATM    1  C1  UNL     1      10.142  14.095  35.771  1.00  0.00     0.090 C 
HETATM    2  C2  UNL     1       9.054  13.860  34.923  1.00  0.00     0.109 C 
ENDROOT
BRANCH   1   3
HETATM    3  N2  UNL     1      11.361  13.730  35.364  1.00  0.00    -0.304 N 
ATOM      4  H2  UNL     1      12.101  14.430  35.425  1.00  0.00     0.186 HD
BRANCH   3   5
HETATM    5  N1  UNL     1      11.703  12.503  34.873  1.00  0.00    -0.345 N 
ATOM      6  H12 UNL     1      12.075  11.837  35.549  1.00  0.00     0.176 HD
ATOM      7  H11 UNL     1      11.616  12.206  33.901  1.00  0.00     0.176 HD
ENDBRANCH   3   5
ENDBRANCH   1   3
BRANCH   1   8
HETATM    8  C5  UNL     1      10.159  14.757  37.122  1.00  0.00     0.002 A 
HETATM    9  C6  UNL     1       9.540  14.169  38.199  1.00  0.00     0.021 A 
HETATM   10  C7  UNL     1       9.615  14.811  39.400  1.00  0.00     0.050 A 
HETATM   11  S1  UNL     1      10.517  16.198  39.066  1.00  0.00    -0.113 SA
HETATM   12  C8  UNL     1      10.787  15.938  37.393  1.00  0.00     0.063 A 
ENDBRANCH   1   8
BRANCH   2  13
HETATM   13  O1  UNL     1       9.373  13.319  33.761  1.00  0.00    -0.359 OA
ATOM     14  H1  UNL     1       8.661  13.288  33.133  1.00  0.00     0.217 HD
ENDBRANCH   2  13
BRANCH   2  15
HETATM   15  C3  UNL     1       7.631  14.094  35.065  1.00  0.00     0.265 C 
BRANCH  15  16
HETATM   16  O2  UNL     1       7.428  15.511  35.393  1.00  0.00    -0.380 OA
ATOM     17  H2  UNL     1       8.258  15.961  35.297  1.00  0.00     0.211 HD
ENDBRANCH  15  16
BRANCH  15  18
HETATM   18  C4  UNL     1       6.893  14.005  33.756  1.00  0.00     0.266 C 
HETATM   19  N3  UNL     1       6.837  15.137  32.886  1.00  0.00    -0.059 NA
HETATM   20  O3  UNL     1       6.304  12.984  33.357  1.00  0.00    -0.274 OA
ENDBRANCH  15  18
ENDBRANCH   2  15
TORSDOF 7
ENDMDL
MODEL 4
REMARK VINA RESULT: -5.618947507      2.811      3.696
REMARK  7 active torsions:
REMARK  status: ('A' for Active; 'I' for Inactive)
REMARK    1  A    between atoms: N1_1  and  N2_4 
REMARK    2  A    between atoms: N2_4  and  C1_6 
REMARK    3  A    between atoms: C1_6  and  C5_16 
REMARK    4  A    between atoms: C2_7  and  O1_8 
REMARK    5  A    between atoms: C2_7  and  C3_10 
REMARK    6  A    between atoms: C3_10  and  O2_11 
REMARK    7  A    between atoms: C3_10  and  C4_13 
ROOT
HETATM    1  C1  UNL     1       7.273  14.394  34.815  1.00  0.00     0.090 C 
HETATM    2  C2  UNL     1       8.280  13.442  34.625  1.00  0.00     0.109 C 
ENDROOT
BRANCH   1   3
HETATM    3  N2  UNL     1       6.418  14.629  33.814  1.00  0.00    -0.304 N 
ATOM      4  H2  UNL     1       5.434  14.418  33.983  1.00  0.00     0.186 HD
BRANCH   3   5
HETATM    5  N1  UNL     1       6.746  15.127  32.586  1.00  0.00    -0.345 N 
ATOM      6  H12 UNL     1       7.614  15.660  32.536  1.00  0.00     0.176 HD
ATOM      7  H11 UNL     1       6.203  15.008  31.731  1.00  0.00     0.176 HD
ENDBRANCH   3   5
ENDBRANCH   1   3
BRANCH   1   8
HETATM    8  C5  UNL     1       6.965  15.212  36.039  1.00  0.00     0.002 A 
HETATM    9  C6  UNL     1       7.890  16.094  36.544  1.00  0.00     0.021 A 
HETATM   10  C7  UNL     1       7.538  16.821  37.643  1.00  0.00     0.050 A 
HETATM   11  S1  UNL     1       5.965  16.310  37.983  1.00  0.00    -0.113 SA
HETATM   12  C8  UNL     1       5.780  15.172  36.714  1.00  0.00     0.063 A 
ENDBRANCH   1   8
BRANCH   2  13
HETATM   13  O1  UNL     1       8.248  12.837  33.452  1.00  0.00    -0.359 OA
ATOM     14  H1  UNL     1       8.825  12.086  33.381  1.00  0.00     0.217 HD
ENDBRANCH   2  13
BRANCH   2  15
HETATM   15  C3  UNL     1       9.365  12.981  35.468  1.00  0.00     0.265 C 
BRANCH  15  16
HETATM   16  O2  UNL     1       9.870  11.716  34.917  1.00  0.00    -0.380 OA
ATOM     17  H2  UNL     1      10.759  11.858  34.615  1.00  0.00     0.211 HD
ENDBRANCH  15  16
BRANCH  15  18
HETATM   18  C4  UNL     1      10.594  13.842  35.357  1.00  0.00     0.266 C 
HETATM   19  N3  UNL     1      11.335  13.881  34.135  1.00  0.00    -0.059 NA
HETATM   20  O3  UNL     1      11.035  14.549  36.281  1.00  0.00    -0.274 OA
ENDBRANCH  15  18
ENDBRANCH   2  15
TORSDOF 7
ENDMDL
MODEL 5
REMARK VINA RESULT: -5.433938395      1.036      1.070
REMARK  7 active torsions:
REMARK  status: ('A' for Active; 'I' for Inactive)
REMARK    1  A    between atoms: N1_1  and  N2_4 
REMARK    2  A    between atoms: N2_4  and  C1_6 
REMARK    3  A    between atoms: C1_6  and  C5_16 
REMARK    4  A    between atoms: C2_7  and  O1_8 
REMARK    5  A    between atoms: C2_7  and  C3_10 
REMARK    6  A    between atoms: C3_10  and  O2_11 
REMARK    7  A    between atoms: C3_10  and  C4_13 
ROOT
HETATM    1  C1  UNL     1       7.258  13.673  37.827  1.00  0.00     0.090 C 
HETATM    2  C2  UNL     1       7.536  12.811  36.760  1.00  0.00     0.109 C 
ENDROOT
BRANCH   1   3
HETATM    3  N2  UNL     1       6.368  13.287  38.746  1.00  0.00    -0.304 N 
ATOM      4  H2  UNL     1       6.734  12.855  39.595  1.00  0.00     0.186 HD
BRANCH   3   5
HETATM    5  N1  UNL     1       5.013  13.419  38.648  1.00  0.00    -0.345 N 
ATOM      6  H12 UNL     1       4.596  13.113  37.770  1.00  0.00     0.176 HD
ATOM      7  H11 UNL     1       4.398  13.794  39.370  1.00  0.00     0.176 HD
ENDBRANCH   3   5
ENDBRANCH   1   3
BRANCH   1   8
HETATM    8  C5  UNL     1       7.858  15.018  38.134  1.00  0.00     0.002 A 
HETATM    9  C6  UNL     1       9.055  15.116  38.802  1.00  0.00     0.021 A 
HETATM   10  C7  UNL     1       9.554  16.365  39.027  1.00  0.00     0.050 A 
HETATM   11  S1  UNL     1       8.407  17.393  38.337  1.00  0.00    -0.113 SA
HETATM   12  C8  UNL     1       7.303  16.210  37.770  1.00  0.00     0.063 A 
ENDBRANCH   1   8
BRANCH   2  13
HETATM   13  O1  UNL     1       6.892  11.659  36.805  1.00  0.00    -0.359 OA
ATOM     14  H1  UNL     1       6.889  11.244  37.659  1.00  0.00     0.217 HD
ENDBRANCH   2  13
BRANCH   2  15
HETATM   15  C3  UNL     1       8.399  12.930  35.602  1.00  0.00     0.265 C 
BRANCH  15  16
HETATM   16  O2  UNL     1       8.900  11.591  35.261  1.00  0.00    -0.380 OA
ATOM     17  H2  UNL     1       9.788  11.514  35.588  1.00  0.00     0.211 HD
ENDBRANCH  15  16
BRANCH  15  18
HETATM   18  C4  UNL     1       7.644  13.271  34.346  1.00  0.00     0.266 C 
HETATM   19  N3  UNL     1       7.778  14.567  33.758  1.00  0.00    -0.059 NA
HETATM   20  O3  UNL     1       6.882  12.484  33.756  1.00  0.00    -0.274 OA
ENDBRANCH  15  18
ENDBRANCH   2  15
TORSDOF 7
ENDMDL
