MODEL 1
REMARK VINA RESULT: -5.342640432      0.000      0.000
REMARK  8 active torsions:
REMARK  status: ('A' for Active; 'I' for Inactive)
REMARK    1  A    between atoms: C2_2  and  C3_3 
REMARK    2  A    between atoms: C3_3  and  N1_4 
REMARK    3  A    between atoms: C6_8  and  C7_9 
REMARK    4  A    between atoms: N2_10  and  O2_12 
REMARK    5  A    between atoms: O2_12  and  C8_13 
REMARK    6  A    between atoms: C8_13  and  N3_14 
REMARK    7  A    between atoms: C8_13  and  N4_18 
REMARK    8  A    between atoms: C9_24  and  N6_25 
ROOT
HETATM    1  N1  UNL     1       8.637  13.433  35.842  1.00  0.00    -0.144 N 
HETATM    2  C4  UNL     1       9.817  14.060  35.731  1.00  0.00     0.264 A 
HETATM    3  O1  UNL     1      10.412  14.050  34.644  1.00  0.00    -0.267 OA
HETATM    4  C5  UNL     1      10.381  14.715  36.804  1.00  0.00     0.106 A 
HETATM    5  C6  UNL     1       9.743  14.746  38.036  1.00  0.00     0.071 A 
HETATM    6  N5  UNL     1       8.565  14.104  38.096  1.00  0.00    -0.190 N 
ATOM      7  H5  UNL     1       8.057  14.099  38.981  1.00  0.00     0.184 HD
HETATM    8  C9  UNL     1       8.020  13.464  37.036  1.00  0.00     0.681 A 
ENDROOT
BRANCH   5   9
HETATM    9  C7  UNL     1      10.323  15.429  39.166  1.00  0.00     0.144 C 
HETATM   10  N2  UNL     1      11.318  16.208  39.006  1.00  0.00    -0.272 N 
ATOM     11  H2  UNL     1      11.679  16.325  38.059  1.00  0.00     0.193 HD
BRANCH  10  12
HETATM   12  O2  UNL     1      11.939  16.900  40.007  1.00  0.00    -0.220 OA
BRANCH  12  13
HETATM   13  C8  UNL     1      12.983  17.795  39.861  1.00  0.00     0.542 C 
BRANCH  13  14
HETATM   14  N3  UNL     1      14.232  17.051  39.840  1.00  0.00    -0.025 N 
ATOM     15  H33 UNL     1      14.121  16.090  40.164  1.00  0.00     0.279 HD
ATOM     16  H32 UNL     1      14.547  16.843  38.892  1.00  0.00     0.279 HD
ATOM     17  H31 UNL     1      14.928  17.567  40.379  1.00  0.00     0.279 HD
ENDBRANCH  13  14
BRANCH  13  18
HETATM   18  N4  UNL     1      12.937  18.584  38.655  1.00  0.00    -0.025 N 
ATOM     19  H43 UNL     1      12.758  17.986  37.848  1.00  0.00     0.279 HD
ATOM     20  H42 UNL     1      12.094  19.157  38.639  1.00  0.00     0.279 HD
ATOM     21  H41 UNL     1      13.761  19.162  38.492  1.00  0.00     0.279 HD
ENDBRANCH  13  18
ENDBRANCH  12  13
ENDBRANCH  10  12
ENDBRANCH   5   9
BRANCH   8  22
HETATM   22  N6  UNL     1       6.885  12.854  37.121  1.00  0.00    -0.234 N 
ATOM     23  H62 UNL     1       6.813  11.841  37.024  1.00  0.00     0.174 HD
ATOM     24  H61 UNL     1       6.063  13.433  37.291  1.00  0.00     0.174 HD
ENDBRANCH   8  22
BRANCH   1  25
HETATM   25  C3  UNL     1       8.029  12.741  34.731  1.00  0.00     0.177 C 
BRANCH  25  26
HETATM   26  C2  UNL     1       7.520  13.635  33.683  1.00  0.00    -0.016 C 
HETATM   27  C1  UNL     1       6.658  14.618  33.919  1.00  0.00     0.008 C 
ENDBRANCH  25  26
ENDBRANCH   1  25
TORSDOF 8
ENDMDL
MODEL 2
REMARK VINA RESULT: -5.069406646      2.549      3.322
REMARK  8 active torsions:
REMARK  status: ('A' for Active; 'I' for Inactive)
REMARK    1  A    between atoms: C2_2  and  C3_3 
REMARK    2  A    between atoms: C3_3  and  N1_4 
REMARK    3  A    between atoms: C6_8  and  C7_9 
REMARK    4  A    between atoms: N2_10  and  O2_12 
REMARK    5  A    between atoms: O2_12  and  C8_13 
REMARK    6  A    between atoms: C8_13  and  N3_14 
REMARK    7  A    between atoms: C8_13  and  N4_18 
REMARK    8  A    between atoms: C9_24  and  N6_25 
ROOT
HETATM    1  N1  UNL     1       8.629  13.399  36.026  1.00  0.00    -0.144 N 
HETATM    2  C4  UNL     1       9.709  14.183  36.144  1.00  0.00     0.264 A 
HETATM    3  O1  UNL     1      10.391  14.436  35.140  1.00  0.00    -0.267 OA
HETATM    4  C5  UNL     1      10.078  14.712  37.362  1.00  0.00     0.106 A 
HETATM    5  C6  UNL     1       9.339  14.450  38.506  1.00  0.00     0.071 A 
HETATM    6  N5  UNL     1       8.266  13.660  38.336  1.00  0.00    -0.190 N 
ATOM      7  H5  UNL     1       7.690  13.438  39.149  1.00  0.00     0.184 HD
HETATM    8  C9  UNL     1       7.913  13.145  37.135  1.00  0.00     0.681 A 
ENDROOT
BRANCH   5   9
HETATM    9  C7  UNL     1       9.715  14.999  39.786  1.00  0.00     0.144 C 
HETATM   10  N2  UNL     1       9.528  14.330  40.853  1.00  0.00    -0.272 N 
ATOM     11  H2  UNL     1       9.109  13.405  40.764  1.00  0.00     0.193 HD
BRANCH  10  12
HETATM   12  O2  UNL     1       9.848  14.758  42.111  1.00  0.00    -0.220 OA
BRANCH  12  13
HETATM   13  C8  UNL     1       9.384  14.229  43.301  1.00  0.00     0.542 C 
BRANCH  13  14
HETATM   14  N3  UNL     1       8.095  13.601  43.058  1.00  0.00    -0.025 N 
ATOM     15  H33 UNL     1       7.327  14.100  43.508  1.00  0.00     0.279 HD
ATOM     16  H32 UNL     1       7.785  13.707  42.093  1.00  0.00     0.279 HD
ATOM     17  H31 UNL     1       8.150  12.624  43.347  1.00  0.00     0.279 HD
ENDBRANCH  13  14
BRANCH  13  18
HETATM   18  N4  UNL     1      10.240  13.230  43.890  1.00  0.00    -0.025 N 
ATOM     19  H43 UNL     1       9.898  12.294  43.667  1.00  0.00     0.279 HD
ATOM     20  H42 UNL     1      11.140  13.207  43.411  1.00  0.00     0.279 HD
ATOM     21  H41 UNL     1      10.377  13.325  44.897  1.00  0.00     0.279 HD
ENDBRANCH  13  18
ENDBRANCH  12  13
ENDBRANCH  10  12
ENDBRANCH   5   9
BRANCH   8  22
HETATM   22  N6  UNL     1       6.876  12.389  37.000  1.00  0.00    -0.234 N 
ATOM     23  H62 UNL     1       6.943  11.456  36.593  1.00  0.00     0.174 HD
ATOM     24  H61 UNL     1       5.985  12.768  37.319  1.00  0.00     0.174 HD
ENDBRANCH   8  22
BRANCH   1  25
HETATM   25  C3  UNL     1       8.224  12.835  34.760  1.00  0.00     0.177 C 
BRANCH  25  26
HETATM   26  C2  UNL     1       7.704  13.825  33.810  1.00  0.00    -0.016 C 
HETATM   27  C1  UNL     1       6.664  14.610  34.071  1.00  0.00     0.008 C 
ENDBRANCH  25  26
ENDBRANCH   1  25
TORSDOF 8
ENDMDL
MODEL 3
REMARK VINA RESULT: -5.046399918      2.038      6.964
REMARK  8 active torsions:
REMARK  status: ('A' for Active; 'I' for Inactive)
REMARK    1  A    between atoms: C2_2  and  C3_3 
REMARK    2  A    between atoms: C3_3  and  N1_4 
REMARK    3  A    between atoms: C6_8  and  C7_9 
REMARK    4  A    between atoms: N2_10  and  O2_12 
REMARK    5  A    between atoms: O2_12  and  C8_13 
REMARK    6  A    between atoms: C8_13  and  N3_14 
REMARK    7  A    between atoms: C8_13  and  N4_18 
REMARK    8  A    between atoms: C9_24  and  N6_25 
ROOT
HETATM    1  N1  UNL     1      11.618  16.619  40.562  1.00  0.00    -0.144 N 
HETATM    2  C4  UNL     1      10.634  15.728  40.748  1.00  0.00     0.264 A 
HETATM    3  O1  UNL     1      10.313  15.407  41.901  1.00  0.00    -0.267 OA
HETATM    4  C5  UNL     1       9.973  15.161  39.680  1.00  0.00     0.106 A 
HETATM    5  C6  UNL     1      10.306  15.497  38.375  1.00  0.00     0.071 A 
HETATM    6  N5  UNL     1      11.297  16.394  38.242  1.00  0.00    -0.190 N 
ATOM      7  H5  UNL     1      11.579  16.672  37.302  1.00  0.00     0.184 HD
HETATM    8  C9  UNL     1      11.940  16.944  39.298  1.00  0.00     0.681 A 
ENDROOT
BRANCH   5   9
HETATM    9  C7  UNL     1       9.621  14.911  37.250  1.00  0.00     0.144 C 
HETATM   10  N2  UNL     1      10.189  14.846  36.112  1.00  0.00    -0.272 N 
ATOM     11  H2  UNL     1      11.134  15.222  36.035  1.00  0.00     0.193 HD
BRANCH  10  12
HETATM   12  O2  UNL     1       9.628  14.313  34.986  1.00  0.00    -0.220 OA
BRANCH  12  13
HETATM   13  C8  UNL     1       9.952  13.101  34.403  1.00  0.00     0.542 C 
BRANCH  13  14
HETATM   14  N3  UNL     1      11.346  12.806  34.690  1.00  0.00    -0.025 N 
ATOM     15  H33 UNL     1      11.618  13.082  35.634  1.00  0.00     0.279 HD
ATOM     16  H32 UNL     1      11.523  11.806  34.780  1.00  0.00     0.279 HD
ATOM     17  H31 UNL     1      11.926  13.243  33.973  1.00  0.00     0.279 HD
ENDBRANCH  13  14
BRANCH  13  18
HETATM   18  N4  UNL     1       9.174  11.981  34.870  1.00  0.00    -0.025 N 
ATOM     19  H43 UNL     1       9.783  11.281  35.296  1.00  0.00     0.279 HD
ATOM     20  H42 UNL     1       8.620  12.249  35.683  1.00  0.00     0.279 HD
ATOM     21  H41 UNL     1       8.580  11.549  34.162  1.00  0.00     0.279 HD
ENDBRANCH  13  18
ENDBRANCH  12  13
ENDBRANCH  10  12
ENDBRANCH   5   9
BRANCH   8  22
HETATM   22  N6  UNL     1      12.889  17.804  39.141  1.00  0.00    -0.234 N 
ATOM     23  H62 UNL     1      13.795  17.691  39.598  1.00  0.00     0.174 HD
ATOM     24  H61 UNL     1      12.692  18.603  38.539  1.00  0.00     0.174 HD
ENDBRANCH   8  22
BRANCH   1  25
HETATM   25  C3  UNL     1      12.322  17.225  41.666  1.00  0.00     0.177 C 
BRANCH  25  26
HETATM   26  C2  UNL     1      13.421  16.404  42.190  1.00  0.00    -0.016 C 
HETATM   27  C1  UNL     1      13.497  16.011  43.456  1.00  0.00     0.008 C 
ENDBRANCH  25  26
ENDBRANCH   1  25
TORSDOF 8
ENDMDL
MODEL 4
REMARK VINA RESULT: -4.994078886      3.784      6.586
REMARK  8 active torsions:
REMARK  status: ('A' for Active; 'I' for Inactive)
REMARK    1  A    between atoms: C2_2  and  C3_3 
REMARK    2  A    between atoms: C3_3  and  N1_4 
REMARK    3  A    between atoms: C6_8  and  C7_9 
REMARK    4  A    between atoms: N2_10  and  O2_12 
REMARK    5  A    between atoms: O2_12  and  C8_13 
REMARK    6  A    between atoms: C8_13  and  N3_14 
REMARK    7  A    between atoms: C8_13  and  N4_18 
REMARK    8  A    between atoms: C9_24  and  N6_25 
ROOT
HETATM    1  N1  UNL     1       8.582  14.305  36.865  1.00  0.00    -0.144 N 
HETATM    2  C4  UNL     1       8.723  14.839  38.086  1.00  0.00     0.264 A 
HETATM    3  O1  UNL     1       9.646  15.639  38.298  1.00  0.00    -0.267 OA
HETATM    4  C5  UNL     1       7.862  14.513  39.111  1.00  0.00     0.106 A 
HETATM    5  C6  UNL     1       6.818  13.621  38.909  1.00  0.00     0.071 A 
HETATM    6  N5  UNL     1       6.719  13.114  37.669  1.00  0.00    -0.190 N 
ATOM      7  H5  UNL     1       5.968  12.454  37.472  1.00  0.00     0.184 HD
HETATM    8  C9  UNL     1       7.571  13.441  36.670  1.00  0.00     0.681 A 
ENDROOT
BRANCH   5   9
HETATM    9  C7  UNL     1       5.910  13.274  39.974  1.00  0.00     0.144 C 
HETATM   10  N2  UNL     1       4.651  13.362  39.802  1.00  0.00    -0.272 N 
ATOM     11  H2  UNL     1       4.321  13.684  38.892  1.00  0.00     0.193 HD
BRANCH  10  12
HETATM   12  O2  UNL     1       3.709  13.059  40.743  1.00  0.00    -0.220 OA
BRANCH  12  13
HETATM   13  C8  UNL     1       2.564  12.309  40.547  1.00  0.00     0.542 C 
BRANCH  13  14
HETATM   14  N3  UNL     1       2.238  12.322  39.130  1.00  0.00    -0.025 N 
ATOM     15  H33 UNL     1       3.068  12.341  38.538  1.00  0.00     0.279 HD
ATOM     16  H32 UNL     1       1.857  11.433  38.809  1.00  0.00     0.279 HD
ATOM     17  H31 UNL     1       1.609  13.105  38.949  1.00  0.00     0.279 HD
ENDBRANCH  13  14
BRANCH  13  18
HETATM   18  N4  UNL     1       2.673  10.928  40.946  1.00  0.00    -0.025 N 
ATOM     19  H43 UNL     1       1.755  10.481  40.930  1.00  0.00     0.279 HD
ATOM     20  H42 UNL     1       3.145  10.387  40.223  1.00  0.00     0.279 HD
ATOM     21  H41 UNL     1       3.122  10.779  41.850  1.00  0.00     0.279 HD
ENDBRANCH  13  18
ENDBRANCH  12  13
ENDBRANCH  10  12
ENDBRANCH   5   9
BRANCH   8  22
HETATM   22  N6  UNL     1       7.453  12.939  35.487  1.00  0.00    -0.234 N 
ATOM     23  H62 UNL     1       7.287  13.527  34.670  1.00  0.00     0.174 HD
ATOM     24  H61 UNL     1       7.533  11.925  35.407  1.00  0.00     0.174 HD
ENDBRANCH   8  22
BRANCH   1  25
HETATM   25  C3  UNL     1       9.473  14.632  35.777  1.00  0.00     0.177 C 
BRANCH  25  26
HETATM   26  C2  UNL     1      10.758  13.923  35.830  1.00  0.00    -0.016 C 
HETATM   27  C1  UNL     1      11.080  12.936  35.001  1.00  0.00     0.008 C 
ENDBRANCH  25  26
ENDBRANCH   1  25
TORSDOF 8
ENDMDL
MODEL 5
REMARK VINA RESULT: -4.984740528      3.977      6.945
REMARK  8 active torsions:
REMARK  status: ('A' for Active; 'I' for Inactive)
REMARK    1  A    between atoms: C2_2  and  C3_3 
REMARK    2  A    between atoms: C3_3  and  N1_4 
REMARK    3  A    between atoms: C6_8  and  C7_9 
REMARK    4  A    between atoms: N2_10  and  O2_12 
REMARK    5  A    between atoms: O2_12  and  C8_13 
REMARK    6  A    between atoms: C8_13  and  N3_14 
REMARK    7  A    between atoms: C8_13  and  N4_18 
REMARK    8  A    between atoms: C9_24  and  N6_25 
ROOT
HETATM    1  N1  UNL     1       8.238  14.639  36.629  1.00  0.00    -0.144 N 
HETATM    2  C4  UNL     1       8.146  14.390  37.943  1.00  0.00     0.264 A 
HETATM    3  O1  UNL     1       9.178  14.186  38.598  1.00  0.00    -0.267 OA
HETATM    4  C5  UNL     1       6.924  14.355  38.578  1.00  0.00     0.106 A 
HETATM    5  C6  UNL     1       5.748  14.578  37.876  1.00  0.00     0.071 A 
HETATM    6  N5  UNL     1       5.893  14.823  36.563  1.00  0.00    -0.190 N 
ATOM      7  H5  UNL     1       5.058  14.993  36.004  1.00  0.00     0.184 HD
HETATM    8  C9  UNL     1       7.099  14.855  35.949  1.00  0.00     0.681 A 
ENDROOT
BRANCH   5   9
HETATM    9  C7  UNL     1       4.463  14.545  38.531  1.00  0.00     0.144 C 
HETATM   10  N2  UNL     1       3.699  13.535  38.398  1.00  0.00    -0.272 N 
ATOM     11  H2  UNL     1       4.031  12.765  37.817  1.00  0.00     0.193 HD
BRANCH  10  12
HETATM   12  O2  UNL     1       2.467  13.405  38.974  1.00  0.00    -0.220 OA
BRANCH  12  13
HETATM   13  C8  UNL     1       2.025  12.339  39.736  1.00  0.00     0.542 C 
BRANCH  13  14
HETATM   14  N3  UNL     1       1.609  11.271  38.842  1.00  0.00    -0.025 N 
ATOM     15  H33 UNL     1       1.169  11.622  37.991  1.00  0.00     0.279 HD
ATOM     16  H32 UNL     1       2.399  10.796  38.405  1.00  0.00     0.279 HD
ATOM     17  H31 UNL     1       1.005  10.630  39.358  1.00  0.00     0.279 HD
ENDBRANCH  13  14
BRANCH  13  18
HETATM   18  N4  UNL     1       3.013  11.786  40.628  1.00  0.00    -0.025 N 
ATOM     19  H43 UNL     1       2.818  12.066  41.590  1.00  0.00     0.279 HD
ATOM     20  H42 UNL     1       2.890  10.777  40.711  1.00  0.00     0.279 HD
ATOM     21  H41 UNL     1       3.979  12.006  40.384  1.00  0.00     0.279 HD
ENDBRANCH  13  18
ENDBRANCH  12  13
ENDBRANCH  10  12
ENDBRANCH   5   9
BRANCH   8  22
HETATM   22  N6  UNL     1       7.210  15.094  34.686  1.00  0.00    -0.234 N 
ATOM     23  H62 UNL     1       8.114  15.071  34.214  1.00  0.00     0.174 HD
ATOM     24  H61 UNL     1       6.350  15.307  34.180  1.00  0.00     0.174 HD
ENDBRANCH   8  22
BRANCH   1  25
HETATM   25  C3  UNL     1       9.508  14.681  35.944  1.00  0.00     0.177 C 
BRANCH  25  26
HETATM   26  C2  UNL     1       9.931  13.384  35.401  1.00  0.00    -0.016 C 
HETATM   27  C1  UNL     1      11.181  13.118  35.039  1.00  0.00     0.008 C 
ENDBRANCH  25  26
ENDBRANCH   1  25
TORSDOF 8
ENDMDL
