MODEL 1
REMARK VINA RESULT: -5.878090980      0.000      0.000
REMARK  7 active torsions:
REMARK  status: ('A' for Active; 'I' for Inactive)
REMARK    1  A    between atoms: N2_3  and  C2_5 
REMARK    2  A    between atoms: C2_5  and  N3_6 
REMARK    3  A    between atoms: N3_6  and  C3_9 
REMARK    4  A    between atoms: C3_9  and  N4_10 
REMARK    5  A    between atoms: C3_9  and  C4_14 
REMARK       I    between atoms: C4_14  and  N5_16 
REMARK    6  A    between atoms: N5_16  and  N6_18 
REMARK    7  A    between atoms: C5_20  and  C6_21 
ROOT
HETATM    1  N1  UNL     1       6.847  15.184  32.608  1.00  0.00    -0.172 NA
HETATM    2  C1  UNL     1       6.849  14.385  33.471  1.00  0.00     0.178 C 
HETATM    3  N2  UNL     1       6.828  13.445  34.490  1.00  0.00    -0.304 N 
ATOM      4  H2  UNL     1       6.086  13.452  35.189  1.00  0.00     0.173 HD
ENDROOT
BRANCH   3   5
HETATM    5  C2  UNL     1       7.885  12.448  34.540  1.00  0.00     0.367 C 
BRANCH   5   6
HETATM    6  N3  UNL     1       9.099  12.925  33.935  1.00  0.00    -0.021 N 
ATOM      7  H32 UNL     1       9.404  12.320  33.172  1.00  0.00     0.282 HD
ATOM      8  H31 UNL     1       8.946  13.779  33.401  1.00  0.00     0.282 HD
BRANCH   6   9
HETATM    9  C3  UNL     1      10.112  13.090  34.913  1.00  0.00     0.474 C 
BRANCH   9  10
HETATM   10  N4  UNL     1      11.448  13.210  34.293  1.00  0.00    -0.041 N 
ATOM     11  H43 UNL     1      12.177  12.841  34.903  1.00  0.00     0.277 HD
ATOM     12  H42 UNL     1      11.556  12.565  33.511  1.00  0.00     0.277 HD
ATOM     13  H41 UNL     1      11.644  14.172  34.014  1.00  0.00     0.277 HD
ENDBRANCH   9  10
BRANCH   9  14
HETATM   14  C4  UNL     1       9.980  14.235  35.824  1.00  0.00     0.294 C 
HETATM   15  O1  UNL     1       9.470  15.297  35.422  1.00  0.00    -0.267 OA
HETATM   16  N5  UNL     1      10.435  14.111  37.145  1.00  0.00    -0.267 N 
ATOM     17  H5  UNL     1      10.852  13.238  37.466  1.00  0.00     0.190 HD
BRANCH  16  18
HETATM   18  N6  UNL     1      10.313  15.184  38.006  1.00  0.00    -0.313 N 
HETATM   19  C5  UNL     1       9.669  15.258  39.088  1.00  0.00     0.084 C 
ATOM     20  H6  UNL     1      10.810  16.031  37.730  1.00  0.00     0.185 HD
BRANCH  19  21
HETATM   21  C6  UNL     1       8.910  14.089  39.589  1.00  0.00     0.025 C 
HETATM   22  C7  UNL     1       9.106  13.949  41.070  1.00  0.00     0.010 C 
HETATM   23  C8  UNL     1       7.705  14.024  41.670  1.00  0.00     0.001 C 
HETATM   24  C9  UNL     1       6.825  13.501  40.527  1.00  0.00     0.001 C 
HETATM   25  C10 UNL     1       7.424  14.242  39.365  1.00  0.00     0.010 C 
ENDBRANCH  19  21
ENDBRANCH  16  18
ENDBRANCH   9  14
ENDBRANCH   6   9
ENDBRANCH   5   6
ENDBRANCH   3   5
TORSDOF 7
ENDMDL
MODEL 2
REMARK VINA RESULT: -5.875313899      1.855      2.816
REMARK  7 active torsions:
REMARK  status: ('A' for Active; 'I' for Inactive)
REMARK    1  A    between atoms: N2_3  and  C2_5 
REMARK    2  A    between atoms: C2_5  and  N3_6 
REMARK    3  A    between atoms: N3_6  and  C3_9 
REMARK    4  A    between atoms: C3_9  and  N4_10 
REMARK    5  A    between atoms: C3_9  and  C4_14 
REMARK       I    between atoms: C4_14  and  N5_16 
REMARK    6  A    between atoms: N5_16  and  N6_18 
REMARK    7  A    between atoms: C5_20  and  C6_21 
ROOT
HETATM    1  N1  UNL     1       6.919  15.090  32.785  1.00  0.00    -0.172 NA
HETATM    2  C1  UNL     1       6.920  14.159  33.503  1.00  0.00     0.178 C 
HETATM    3  N2  UNL     1       6.899  13.058  34.346  1.00  0.00    -0.304 N 
ATOM      4  H2  UNL     1       6.045  12.796  34.838  1.00  0.00     0.173 HD
ENDROOT
BRANCH   3   5
HETATM    5  C2  UNL     1       8.118  12.285  34.514  1.00  0.00     0.367 C 
BRANCH   5   6
HETATM    6  N3  UNL     1       9.287  13.047  34.169  1.00  0.00    -0.021 N 
ATOM      7  H32 UNL     1       9.873  12.556  33.494  1.00  0.00     0.282 HD
ATOM      8  H31 UNL     1       9.054  13.863  33.605  1.00  0.00     0.282 HD
BRANCH   6   9
HETATM    9  C3  UNL     1      10.012  13.403  35.335  1.00  0.00     0.474 C 
BRANCH   9  10
HETATM   10  N4  UNL     1      11.430  13.681  35.025  1.00  0.00    -0.041 N 
ATOM     11  H43 UNL     1      11.974  12.821  34.964  1.00  0.00     0.277 HD
ATOM     12  H42 UNL     1      11.546  14.009  34.067  1.00  0.00     0.277 HD
ATOM     13  H41 UNL     1      11.837  14.335  35.695  1.00  0.00     0.277 HD
ENDBRANCH   9  10
BRANCH   9  14
HETATM   14  C4  UNL     1       9.525  14.562  36.095  1.00  0.00     0.294 C 
HETATM   15  O1  UNL     1       9.395  15.666  35.537  1.00  0.00    -0.267 OA
HETATM   16  N5  UNL     1       9.210  14.402  37.453  1.00  0.00    -0.267 N 
ATOM     17  H5  UNL     1       9.320  13.494  37.904  1.00  0.00     0.190 HD
BRANCH  16  18
HETATM   18  N6  UNL     1       8.751  15.487  38.173  1.00  0.00    -0.313 N 
HETATM   19  C5  UNL     1       9.367  16.193  39.017  1.00  0.00     0.084 C 
ATOM     20  H6  UNL     1       7.781  15.754  37.999  1.00  0.00     0.185 HD
BRANCH  19  21
HETATM   21  C6  UNL     1      10.781  15.898  39.349  1.00  0.00     0.025 C 
HETATM   22  C7  UNL     1      11.685  16.839  38.608  1.00  0.00     0.010 C 
HETATM   23  C8  UNL     1      12.485  17.562  39.688  1.00  0.00     0.001 C 
HETATM   24  C9  UNL     1      12.505  16.537  40.829  1.00  0.00     0.001 C 
HETATM   25  C10 UNL     1      11.068  16.094  40.819  1.00  0.00     0.010 C 
ENDBRANCH  19  21
ENDBRANCH  16  18
ENDBRANCH   9  14
ENDBRANCH   6   9
ENDBRANCH   5   6
ENDBRANCH   3   5
TORSDOF 7
ENDMDL
MODEL 3
REMARK VINA RESULT: -5.698524591      2.209      2.836
REMARK  7 active torsions:
REMARK  status: ('A' for Active; 'I' for Inactive)
REMARK    1  A    between atoms: N2_3  and  C2_5 
REMARK    2  A    between atoms: C2_5  and  N3_6 
REMARK    3  A    between atoms: N3_6  and  C3_9 
REMARK    4  A    between atoms: C3_9  and  N4_10 
REMARK    5  A    between atoms: C3_9  and  C4_14 
REMARK       I    between atoms: C4_14  and  N5_16 
REMARK    6  A    between atoms: N5_16  and  N6_18 
REMARK    7  A    between atoms: C5_20  and  C6_21 
ROOT
HETATM    1  N1  UNL     1       6.907  15.107  32.849  1.00  0.00    -0.172 NA
HETATM    2  C1  UNL     1       6.915  14.136  33.513  1.00  0.00     0.178 C 
HETATM    3  N2  UNL     1       6.904  12.986  34.288  1.00  0.00    -0.304 N 
ATOM      4  H2  UNL     1       6.023  12.572  34.592  1.00  0.00     0.173 HD
ENDROOT
BRANCH   3   5
HETATM    5  C2  UNL     1       8.175  12.383  34.657  1.00  0.00     0.367 C 
BRANCH   5   6
HETATM    6  N3  UNL     1       9.288  13.222  34.305  1.00  0.00    -0.021 N 
ATOM      7  H32 UNL     1       9.877  12.789  33.594  1.00  0.00     0.282 HD
ATOM      8  H31 UNL     1       8.992  14.043  33.779  1.00  0.00     0.282 HD
BRANCH   6   9
HETATM    9  C3  UNL     1      10.030  13.576  35.460  1.00  0.00     0.474 C 
BRANCH   9  10
HETATM   10  N4  UNL     1      11.480  13.383  35.251  1.00  0.00    -0.041 N 
ATOM     11  H43 UNL     1      11.929  14.242  34.933  1.00  0.00     0.277 HD
ATOM     12  H42 UNL     1      11.973  13.266  36.135  1.00  0.00     0.277 HD
ATOM     13  H41 UNL     1      11.665  12.606  34.615  1.00  0.00     0.277 HD
ENDBRANCH   9  10
BRANCH   9  14
HETATM   14  C4  UNL     1       9.869  14.947  35.962  1.00  0.00     0.294 C 
HETATM   15  O1  UNL     1       9.237  15.786  35.295  1.00  0.00    -0.267 OA
HETATM   16  N5  UNL     1      10.437  15.292  37.198  1.00  0.00    -0.267 N 
ATOM     17  H5  UNL     1      10.954  14.599  37.738  1.00  0.00     0.190 HD
BRANCH  16  18
HETATM   18  N6  UNL     1      10.288  16.579  37.675  1.00  0.00    -0.313 N 
HETATM   19  C5  UNL     1      10.734  17.082  38.742  1.00  0.00     0.084 C 
ATOM     20  H6  UNL     1       9.743  17.208  37.085  1.00  0.00     0.185 HD
BRANCH  19  21
HETATM   21  C6  UNL     1      11.540  16.261  39.676  1.00  0.00     0.025 C 
HETATM   22  C7  UNL     1      12.851  16.939  39.950  1.00  0.00     0.010 C 
HETATM   23  C8  UNL     1      12.890  17.142  41.462  1.00  0.00     0.001 C 
HETATM   24  C9  UNL     1      12.007  15.997  41.975  1.00  0.00     0.001 C 
HETATM   25  C10 UNL     1      10.857  16.091  41.012  1.00  0.00     0.010 C 
ENDBRANCH  19  21
ENDBRANCH  16  18
ENDBRANCH   9  14
ENDBRANCH   6   9
ENDBRANCH   5   6
ENDBRANCH   3   5
TORSDOF 7
ENDMDL
MODEL 4
REMARK VINA RESULT: -5.642761378      1.459      3.201
REMARK  7 active torsions:
REMARK  status: ('A' for Active; 'I' for Inactive)
REMARK    1  A    between atoms: N2_3  and  C2_5 
REMARK    2  A    between atoms: C2_5  and  N3_6 
REMARK    3  A    between atoms: N3_6  and  C3_9 
REMARK    4  A    between atoms: C3_9  and  N4_10 
REMARK    5  A    between atoms: C3_9  and  C4_14 
REMARK       I    between atoms: C4_14  and  N5_16 
REMARK    6  A    between atoms: N5_16  and  N6_18 
REMARK    7  A    between atoms: C5_20  and  C6_21 
ROOT
HETATM    1  N1  UNL     1      11.422  14.024  34.998  1.00  0.00    -0.172 NA
HETATM    2  C1  UNL     1      10.619  13.179  34.846  1.00  0.00     0.178 C 
HETATM    3  N2  UNL     1       9.689  12.166  34.664  1.00  0.00    -0.304 N 
ATOM      4  H2  UNL     1       9.914  11.349  34.097  1.00  0.00     0.173 HD
ENDROOT
BRANCH   3   5
HETATM    5  C2  UNL     1       8.387  12.294  35.298  1.00  0.00     0.367 C 
BRANCH   5   6
HETATM    6  N3  UNL     1       7.368  12.670  34.357  1.00  0.00    -0.021 N 
ATOM      7  H32 UNL     1       7.372  12.068  33.534  1.00  0.00     0.282 HD
ATOM      8  H31 UNL     1       6.434  12.451  34.702  1.00  0.00     0.282 HD
BRANCH   6   9
HETATM    9  C3  UNL     1       7.492  14.039  34.008  1.00  0.00     0.474 C 
BRANCH   9  10
HETATM   10  N4  UNL     1       6.455  14.445  33.036  1.00  0.00    -0.041 N 
ATOM     11  H43 UNL     1       5.886  13.650  32.745  1.00  0.00     0.277 HD
ATOM     12  H42 UNL     1       5.728  15.006  33.479  1.00  0.00     0.277 HD
ATOM     13  H41 UNL     1       6.864  14.927  32.235  1.00  0.00     0.277 HD
ENDBRANCH   9  10
BRANCH   9  14
HETATM   14  C4  UNL     1       7.429  15.015  35.105  1.00  0.00     0.294 C 
HETATM   15  O1  UNL     1       8.245  15.952  35.155  1.00  0.00    -0.267 OA
HETATM   16  N5  UNL     1       6.438  14.871  36.088  1.00  0.00    -0.267 N 
ATOM     17  H5  UNL     1       5.773  14.099  36.040  1.00  0.00     0.190 HD
BRANCH  16  18
HETATM   18  N6  UNL     1       6.373  15.785  37.121  1.00  0.00    -0.313 N 
HETATM   19  C5  UNL     1       6.945  15.748  38.245  1.00  0.00     0.084 C 
ATOM     20  H6  UNL     1       5.782  16.600  36.953  1.00  0.00     0.185 HD
BRANCH  19  21
HETATM   21  C6  UNL     1       7.827  14.612  38.598  1.00  0.00     0.025 C 
HETATM   22  C7  UNL     1       9.263  14.995  38.384  1.00  0.00     0.010 C 
HETATM   23  C8  UNL     1       9.933  14.817  39.743  1.00  0.00     0.001 C 
HETATM   24  C9  UNL     1       9.073  13.729  40.399  1.00  0.00     0.001 C 
HETATM   25  C10 UNL     1       7.697  14.229  40.054  1.00  0.00     0.010 C 
ENDBRANCH  19  21
ENDBRANCH  16  18
ENDBRANCH   9  14
ENDBRANCH   6   9
ENDBRANCH   5   6
ENDBRANCH   3   5
TORSDOF 7
ENDMDL
MODEL 5
REMARK VINA RESULT: -5.474538339      1.419      1.899
REMARK  7 active torsions:
REMARK  status: ('A' for Active; 'I' for Inactive)
REMARK    1  A    between atoms: N2_3  and  C2_5 
REMARK    2  A    between atoms: C2_5  and  N3_6 
REMARK    3  A    between atoms: N3_6  and  C3_9 
REMARK    4  A    between atoms: C3_9  and  N4_10 
REMARK    5  A    between atoms: C3_9  and  C4_14 
REMARK       I    between atoms: C4_14  and  N5_16 
REMARK    6  A    between atoms: N5_16  and  N6_18 
REMARK    7  A    between atoms: C5_20  and  C6_21 
ROOT
HETATM    1  N1  UNL     1       6.855  15.218  32.720  1.00  0.00    -0.172 NA
HETATM    2  C1  UNL     1       6.877  14.426  33.589  1.00  0.00     0.178 C 
HETATM    3  N2  UNL     1       6.879  13.494  34.616  1.00  0.00    -0.304 N 
ATOM      4  H2  UNL     1       6.186  13.540  35.362  1.00  0.00     0.173 HD
ENDROOT
BRANCH   3   5
HETATM    5  C2  UNL     1       7.891  12.449  34.606  1.00  0.00     0.367 C 
BRANCH   5   6
HETATM    6  N3  UNL     1       9.134  12.913  34.054  1.00  0.00    -0.021 N 
ATOM      7  H32 UNL     1       9.465  12.306  33.304  1.00  0.00     0.282 HD
ATOM      8  H31 UNL     1       9.013  13.770  33.515  1.00  0.00     0.282 HD
BRANCH   6   9
HETATM    9  C3  UNL     1      10.107  13.066  35.075  1.00  0.00     0.474 C 
BRANCH   9  10
HETATM   10  N4  UNL     1      11.478  13.010  34.527  1.00  0.00    -0.041 N 
ATOM     11  H43 UNL     1      11.920  12.111  34.719  1.00  0.00     0.277 HD
ATOM     12  H42 UNL     1      11.472  12.968  33.508  1.00  0.00     0.277 HD
ATOM     13  H41 UNL     1      12.047  13.786  34.866  1.00  0.00     0.277 HD
ENDBRANCH   9  10
BRANCH   9  14
HETATM   14  C4  UNL     1      10.039  14.292  35.881  1.00  0.00     0.294 C 
HETATM   15  O1  UNL     1       9.926  15.400  35.327  1.00  0.00    -0.267 OA
HETATM   16  N5  UNL     1      10.103  14.192  37.280  1.00  0.00    -0.267 N 
ATOM     17  H5  UNL     1      10.197  13.280  37.727  1.00  0.00     0.190 HD
BRANCH  16  18
HETATM   18  N6  UNL     1      10.039  15.340  38.044  1.00  0.00    -0.313 N 
HETATM   19  C5  UNL     1       9.021  15.932  38.495  1.00  0.00     0.084 C 
ATOM     20  H6  UNL     1      10.936  15.768  38.275  1.00  0.00     0.185 HD
BRANCH  19  21
HETATM   21  C6  UNL     1       7.665  15.401  38.223  1.00  0.00     0.025 C 
HETATM   22  C7  UNL     1       6.803  15.556  39.441  1.00  0.00     0.010 C 
HETATM   23  C8  UNL     1       5.619  16.407  38.990  1.00  0.00     0.001 C 
HETATM   24  C9  UNL     1       5.525  16.080  37.494  1.00  0.00     0.001 C 
HETATM   25  C10 UNL     1       6.976  16.155  37.110  1.00  0.00     0.010 C 
ENDBRANCH  19  21
ENDBRANCH  16  18
ENDBRANCH   9  14
ENDBRANCH   6   9
ENDBRANCH   5   6
ENDBRANCH   3   5
TORSDOF 7
ENDMDL
