MODEL 1
REMARK VINA RESULT: -8.336791734      0.000      0.000
REMARK  0 active torsions:
REMARK  status: ('A' for Active; 'I' for Inactive)
ROOT
HETATM    1  O1  UNL     1     117.768  41.766  63.217  1.00  0.00    -0.267 OA
HETATM    2  C1  UNL     1     117.873  41.650  64.454  1.00  0.00     0.259 A 
HETATM    3  N1  UNL     1     117.476  42.700  65.200  1.00  0.00    -0.333 N 
ATOM      4  H1  UNL     1     117.114  43.533  64.737  1.00  0.00     0.168 HD
HETATM    5  C2  UNL     1     117.549  42.670  66.543  1.00  0.00     0.091 A 
HETATM    6  C3  UNL     1     118.037  41.548  67.176  1.00  0.00     0.018 A 
HETATM    7  C4  UNL     1     118.449  40.459  66.400  1.00  0.00     0.022 A 
HETATM    8  C5  UNL     1     118.371  40.497  65.023  1.00  0.00     0.078 A 
HETATM    9  C6  UNL     1     118.801  39.367  64.255  1.00  0.00     0.149 C 
HETATM   10  N2  UNL     1     118.644  38.167  64.767  1.00  0.00    -0.271 N 
ATOM     11  H2  UNL     1     118.217  38.135  65.693  1.00  0.00     0.190 HD
HETATM   12  N3  UNL     1     118.986  36.915  64.208  1.00  0.00    -0.227 N 
ATOM     13  H3  UNL     1     118.880  36.081  64.786  1.00  0.00     0.205 HD
HETATM   14  N4  UNL     1     119.466  36.759  62.900  1.00  0.00     0.005 NA
HETATM   15  N5  UNL     1     118.742  37.625  62.083  1.00  0.00     0.006 NA
HETATM   16  N6  UNL     1     119.359  38.830  61.833  1.00  0.00    -0.009 NA
HETATM   17  N7  UNL     1     119.383  39.642  62.972  1.00  0.00    -0.270 N 
ATOM     18  H7  UNL     1     119.871  40.533  62.879  1.00  0.00     0.185 HD
ENDROOT
TORSDOF 0
ENDMDL
MODEL 2
REMARK VINA RESULT: -7.179066927      1.540      1.726
REMARK  0 active torsions:
REMARK  status: ('A' for Active; 'I' for Inactive)
ROOT
HETATM    1  O1  UNL     1     116.273  40.610  64.738  1.00  0.00    -0.267 OA
HETATM    2  C1  UNL     1     117.009  41.143  65.591  1.00  0.00     0.259 A 
HETATM    3  N1  UNL     1     116.397  41.795  66.600  1.00  0.00    -0.333 N 
ATOM      4  H1  UNL     1     115.378  41.828  66.628  1.00  0.00     0.168 HD
HETATM    5  C2  UNL     1     117.105  42.401  67.570  1.00  0.00     0.091 A 
HETATM    6  C3  UNL     1     118.481  42.361  67.539  1.00  0.00     0.018 A 
HETATM    7  C4  UNL     1     119.114  41.684  66.491  1.00  0.00     0.022 A 
HETATM    8  C5  UNL     1     118.382  41.064  65.499  1.00  0.00     0.078 A 
HETATM    9  C6  UNL     1     119.059  40.381  64.438  1.00  0.00     0.149 C 
HETATM   10  N2  UNL     1     120.205  39.795  64.703  1.00  0.00    -0.271 N 
ATOM     11  H2  UNL     1     120.530  39.875  65.666  1.00  0.00     0.190 HD
HETATM   12  N3  UNL     1     121.049  39.068  63.832  1.00  0.00    -0.227 N 
ATOM     13  H3  UNL     1     121.955  38.758  64.183  1.00  0.00     0.205 HD
HETATM   14  N4  UNL     1     120.705  38.752  62.510  1.00  0.00     0.005 NA
HETATM   15  N5  UNL     1     119.357  38.402  62.500  1.00  0.00     0.006 NA
HETATM   16  N6  UNL     1     118.501  39.422  62.150  1.00  0.00    -0.009 NA
HETATM   17  N7  UNL     1     118.423  40.395  63.151  1.00  0.00    -0.270 N 
ATOM     18  H7  UNL     1     117.846  41.210  62.942  1.00  0.00     0.185 HD
ENDROOT
TORSDOF 0
ENDMDL
MODEL 3
REMARK VINA RESULT: -7.007377407      1.391      1.603
REMARK  0 active torsions:
REMARK  status: ('A' for Active; 'I' for Inactive)
ROOT
HETATM    1  O1  UNL     1     116.832  41.719  61.981  1.00  0.00    -0.267 OA
HETATM    2  C1  UNL     1     116.668  41.962  63.193  1.00  0.00     0.259 A 
HETATM    3  N1  UNL     1     115.898  43.025  63.501  1.00  0.00    -0.333 N 
ATOM      4  H1  UNL     1     115.488  43.580  62.750  1.00  0.00     0.168 HD
HETATM    5  C2  UNL     1     115.661  43.368  64.780  1.00  0.00     0.091 A 
HETATM    6  C3  UNL     1     116.212  42.625  65.800  1.00  0.00     0.018 A 
HETATM    7  C4  UNL     1     117.010  41.522  65.478  1.00  0.00     0.022 A 
HETATM    8  C5  UNL     1     117.249  41.176  64.164  1.00  0.00     0.078 A 
HETATM    9  C6  UNL     1     118.072  40.042  63.866  1.00  0.00     0.149 C 
HETATM   10  N2  UNL     1     118.054  39.022  64.693  1.00  0.00    -0.271 N 
ATOM     11  H2  UNL     1     117.439  39.120  65.502  1.00  0.00     0.190 HD
HETATM   12  N3  UNL     1     118.770  37.806  64.614  1.00  0.00    -0.227 N 
ATOM     13  H3  UNL     1     118.708  37.155  65.397  1.00  0.00     0.205 HD
HETATM   14  N4  UNL     1     119.563  37.447  63.514  1.00  0.00     0.005 NA
HETATM   15  N5  UNL     1     118.885  37.842  62.363  1.00  0.00     0.006 NA
HETATM   16  N6  UNL     1     119.278  39.059  61.854  1.00  0.00    -0.009 NA
HETATM   17  N7  UNL     1     118.866  40.117  62.672  1.00  0.00    -0.270 N 
ATOM     18  H7  UNL     1     119.165  41.049  62.387  1.00  0.00     0.185 HD
ENDROOT
TORSDOF 0
ENDMDL
MODEL 4
REMARK VINA RESULT: -6.871714627      2.158      4.753
REMARK  0 active torsions:
REMARK  status: ('A' for Active; 'I' for Inactive)
ROOT
HETATM    1  O1  UNL     1     120.311  41.532  63.683  1.00  0.00    -0.267 OA
HETATM    2  C1  UNL     1     119.987  40.337  63.539  1.00  0.00     0.259 A 
HETATM    3  N1  UNL     1     120.512  39.687  62.481  1.00  0.00    -0.333 N 
ATOM      4  H1  UNL     1     121.140  40.185  61.850  1.00  0.00     0.168 HD
HETATM    5  C2  UNL     1     120.223  38.395  62.242  1.00  0.00     0.091 A 
HETATM    6  C3  UNL     1     119.375  37.716  63.088  1.00  0.00     0.018 A 
HETATM    7  C4  UNL     1     118.832  38.392  64.186  1.00  0.00     0.022 A 
HETATM    8  C5  UNL     1     119.132  39.717  64.426  1.00  0.00     0.078 A 
HETATM    9  C6  UNL     1     118.559  40.383  65.557  1.00  0.00     0.149 C 
HETATM   10  N2  UNL     1     118.328  39.682  66.644  1.00  0.00    -0.271 N 
ATOM     11  H2  UNL     1     118.581  38.695  66.594  1.00  0.00     0.190 HD
HETATM   12  N3  UNL     1     117.775  40.110  67.872  1.00  0.00    -0.227 N 
ATOM     13  H3  UNL     1     117.577  39.408  68.585  1.00  0.00     0.205 HD
HETATM   14  N4  UNL     1     117.484  41.451  68.162  1.00  0.00     0.005 NA
HETATM   15  N5  UNL     1     118.521  42.225  67.646  1.00  0.00     0.006 NA
HETATM   16  N6  UNL     1     118.274  42.764  66.404  1.00  0.00    -0.009 NA
HETATM   17  N7  UNL     1     118.275  41.782  65.407  1.00  0.00    -0.270 N 
ATOM     18  H7  UNL     1     118.047  42.098  64.464  1.00  0.00     0.185 HD
ENDROOT
TORSDOF 0
ENDMDL
MODEL 5
REMARK VINA RESULT: -6.684756384      2.283      3.135
REMARK  0 active torsions:
REMARK  status: ('A' for Active; 'I' for Inactive)
ROOT
HETATM    1  O1  UNL     1     116.365  42.604  66.836  1.00  0.00    -0.267 OA
HETATM    2  C1  UNL     1     116.851  42.064  67.849  1.00  0.00     0.259 A 
HETATM    3  N1  UNL     1     116.382  42.479  69.043  1.00  0.00    -0.333 N 
ATOM      4  H1  UNL     1     115.664  43.203  69.075  1.00  0.00     0.168 HD
HETATM    5  C2  UNL     1     116.844  41.956  70.194  1.00  0.00     0.091 A 
HETATM    6  C3  UNL     1     117.813  40.979  70.160  1.00  0.00     0.018 A 
HETATM    7  C4  UNL     1     118.298  40.550  68.920  1.00  0.00     0.022 A 
HETATM    8  C5  UNL     1     117.821  41.090  67.744  1.00  0.00     0.078 A 
HETATM    9  C6  UNL     1     118.338  40.632  66.489  1.00  0.00     0.149 C 
HETATM   10  N2  UNL     1     118.711  39.376  66.388  1.00  0.00    -0.271 N 
ATOM     11  H2  UNL     1     118.600  38.814  67.232  1.00  0.00     0.190 HD
HETATM   12  N3  UNL     1     119.246  38.700  65.268  1.00  0.00    -0.227 N 
ATOM     13  H3  UNL     1     119.572  37.741  65.392  1.00  0.00     0.205 HD
HETATM   14  N4  UNL     1     119.353  39.278  63.996  1.00  0.00     0.005 NA
HETATM   15  N5  UNL     1     118.196  40.021  63.775  1.00  0.00     0.006 NA
HETATM   16  N6  UNL     1     118.313  41.364  64.054  1.00  0.00    -0.009 NA
HETATM   17  N7  UNL     1     118.412  41.598  65.429  1.00  0.00    -0.270 N 
ATOM     18  H7  UNL     1     118.554  42.568  65.712  1.00  0.00     0.185 HD
ENDROOT
TORSDOF 0
ENDMDL
