MODEL 1
REMARK VINA RESULT: -5.829282062      0.000      0.000
REMARK  5 active torsions:
REMARK  status: ('A' for Active; 'I' for Inactive)
REMARK    1  A    between atoms: C2_2  and  N1_3 
REMARK    2  A    between atoms: C2_2  and  C3_7 
REMARK    3  A    between atoms: C3_7  and  N2_8 
REMARK    4  A    between atoms: C3_7  and  C4_12 
REMARK       I    between atoms: C4_12  and  N3_14 
REMARK    5  A    between atoms: N3_14  and  C5_16 
ROOT
HETATM    1  C3  UNL     1      77.174  20.056  91.715  1.00  0.00     0.304 C 
ENDROOT
BRANCH   1   2
HETATM    2  C2  UNL     1      78.075  18.838  91.765  1.00  0.00     0.219 C 
HETATM    3  C1  UNL     1      78.374  18.451  93.198  1.00  0.00     0.042 C 
BRANCH   2   4
HETATM    4  N1  UNL     1      79.358  19.265  91.189  1.00  0.00    -0.073 N 
ATOM      5  H13 UNL     1      79.363  20.236  90.878  1.00  0.00     0.274 HD
ATOM      6  H12 UNL     1      80.105  19.354  91.877  1.00  0.00     0.274 HD
ATOM      7  H11 UNL     1      79.565  18.598  90.446  1.00  0.00     0.274 HD
ENDBRANCH   2   4
ENDBRANCH   1   2
BRANCH   1   8
HETATM    8  N2  UNL     1      76.242  20.044  92.807  1.00  0.00    -0.064 N 
ATOM      9  H23 UNL     1      75.328  19.693  92.519  1.00  0.00     0.275 HD
ATOM     10  H22 UNL     1      76.472  19.325  93.493  1.00  0.00     0.275 HD
ATOM     11  H21 UNL     1      76.175  20.967  93.234  1.00  0.00     0.275 HD
ENDBRANCH   1   8
BRANCH   1  12
HETATM   12  C4  UNL     1      76.470  20.171  90.422  1.00  0.00     0.253 C 
HETATM   13  O1  UNL     1      76.699  19.327  89.529  1.00  0.00    -0.271 OA
HETATM   14  N3  UNL     1      75.541  21.200  90.142  1.00  0.00    -0.309 N 
ATOM     15  H3  UNL     1      75.364  21.882  90.879  1.00  0.00     0.166 HD
BRANCH  14  16
HETATM   16  C5  UNL     1      74.836  21.362  88.923  1.00  0.00     0.452 C 
HETATM   17  N4  UNL     1      74.267  20.145  88.392  1.00  0.00    -0.014 N 
HETATM   18  C6  UNL     1      74.019  20.546  86.997  1.00  0.00     0.379 C 
ATOM     19  H42 UNL     1      74.832  19.305  88.515  1.00  0.00     0.284 HD
ATOM     20  H41 UNL     1      73.459  19.781  88.896  1.00  0.00     0.284 HD
HETATM   21  N5  UNL     1      74.668  21.841  86.859  1.00  0.00    -0.069 NA
HETATM   22  O2  UNL     1      75.605  21.812  87.860  1.00  0.00    -0.230 OA
ENDBRANCH  14  16
ENDBRANCH   1  12
TORSDOF 5
ENDMDL
MODEL 2
REMARK VINA RESULT: -5.759218292      1.642      5.303
REMARK  5 active torsions:
REMARK  status: ('A' for Active; 'I' for Inactive)
REMARK    1  A    between atoms: C2_2  and  N1_3 
REMARK    2  A    between atoms: C2_2  and  C3_7 
REMARK    3  A    between atoms: C3_7  and  N2_8 
REMARK    4  A    between atoms: C3_7  and  C4_12 
REMARK       I    between atoms: C4_12  and  N3_14 
REMARK    5  A    between atoms: N3_14  and  C5_16 
ROOT
HETATM    1  C3  UNL     1      74.518  21.244  89.086  1.00  0.00     0.304 C 
ENDROOT
BRANCH   1   2
HETATM    2  C2  UNL     1      74.880  21.608  87.660  1.00  0.00     0.219 C 
HETATM    3  C1  UNL     1      73.634  21.890  86.846  1.00  0.00     0.042 C 
BRANCH   2   4
HETATM    4  N1  UNL     1      75.474  20.396  87.076  1.00  0.00    -0.073 N 
ATOM      5  H13 UNL     1      75.699  20.488  86.086  1.00  0.00     0.274 HD
ATOM      6  H12 UNL     1      76.423  20.210  87.400  1.00  0.00     0.274 HD
ATOM      7  H11 UNL     1      74.819  19.641  87.278  1.00  0.00     0.274 HD
ENDBRANCH   2   4
ENDBRANCH   1   2
BRANCH   1   8
HETATM    8  N2  UNL     1      73.641  22.228  89.655  1.00  0.00    -0.064 N 
ATOM      9  H23 UNL     1      74.131  23.099  89.857  1.00  0.00     0.275 HD
ATOM     10  H22 UNL     1      72.976  22.583  88.968  1.00  0.00     0.275 HD
ATOM     11  H21 UNL     1      73.170  21.857  90.480  1.00  0.00     0.275 HD
ENDBRANCH   1   8
BRANCH   1  12
HETATM   12  C4  UNL     1      75.716  21.056  89.930  1.00  0.00     0.253 C 
HETATM   13  O1  UNL     1      76.798  21.568  89.570  1.00  0.00    -0.271 OA
HETATM   14  N3  UNL     1      75.698  20.319  91.136  1.00  0.00    -0.309 N 
ATOM     15  H3  UNL     1      74.808  19.906  91.418  1.00  0.00     0.166 HD
BRANCH  14  16
HETATM   16  C5  UNL     1      76.813  20.104  91.986  1.00  0.00     0.452 C 
HETATM   17  N4  UNL     1      77.578  21.292  92.283  1.00  0.00    -0.014 N 
HETATM   18  C6  UNL     1      78.832  20.694  92.772  1.00  0.00     0.379 C 
ATOM     19  H42 UNL     1      77.677  21.955  91.515  1.00  0.00     0.284 HD
ATOM     20  H41 UNL     1      77.132  21.957  92.914  1.00  0.00     0.284 HD
HETATM   21  N5  UNL     1      78.702  19.272  92.489  1.00  0.00    -0.069 NA
HETATM   22  O2  UNL     1      77.781  19.254  91.473  1.00  0.00    -0.230 OA
ENDBRANCH  14  16
ENDBRANCH   1  12
TORSDOF 5
ENDMDL
MODEL 3
REMARK VINA RESULT: -5.737428937      1.749      5.524
REMARK  5 active torsions:
REMARK  status: ('A' for Active; 'I' for Inactive)
REMARK    1  A    between atoms: C2_2  and  N1_3 
REMARK    2  A    between atoms: C2_2  and  C3_7 
REMARK    3  A    between atoms: C3_7  and  N2_8 
REMARK    4  A    between atoms: C3_7  and  C4_12 
REMARK       I    between atoms: C4_12  and  N3_14 
REMARK    5  A    between atoms: N3_14  and  C5_16 
ROOT
HETATM    1  C3  UNL     1      75.659  21.621  88.966  1.00  0.00     0.304 C 
ENDROOT
BRANCH   1   2
HETATM    2  C2  UNL     1      74.170  21.468  88.724  1.00  0.00     0.219 C 
HETATM    3  C1  UNL     1      73.796  21.968  87.345  1.00  0.00     0.042 C 
BRANCH   2   4
HETATM    4  N1  UNL     1      73.515  22.380  89.673  1.00  0.00    -0.073 N 
ATOM      5  H13 UNL     1      74.146  22.755  90.381  1.00  0.00     0.274 HD
ATOM      6  H12 UNL     1      73.248  23.274  89.261  1.00  0.00     0.274 HD
ATOM      7  H11 UNL     1      72.729  21.859  90.062  1.00  0.00     0.274 HD
ENDBRANCH   2   4
ENDBRANCH   1   2
BRANCH   1   8
HETATM    8  N2  UNL     1      76.380  21.590  87.725  1.00  0.00    -0.064 N 
ATOM      9  H23 UNL     1      77.339  21.267  87.853  1.00  0.00     0.275 HD
ATOM     10  H22 UNL     1      76.049  20.844  87.113  1.00  0.00     0.275 HD
ATOM     11  H21 UNL     1      76.346  22.500  87.265  1.00  0.00     0.275 HD
ENDBRANCH   1   8
BRANCH   1  12
HETATM   12  C4  UNL     1      76.176  20.601  89.901  1.00  0.00     0.253 C 
HETATM   13  O1  UNL     1      76.444  19.460  89.467  1.00  0.00    -0.271 OA
HETATM   14  N3  UNL     1      76.383  20.855  91.276  1.00  0.00    -0.309 N 
ATOM     15  H3  UNL     1      76.159  21.790  91.617  1.00  0.00     0.166 HD
BRANCH  14  16
HETATM   16  C5  UNL     1      76.874  19.918  92.220  1.00  0.00     0.452 C 
HETATM   17  N4  UNL     1      75.999  19.685  93.346  1.00  0.00    -0.014 N 
HETATM   18  C6  UNL     1      76.935  19.062  94.296  1.00  0.00     0.379 C 
ATOM     19  H42 UNL     1      75.500  20.504  93.692  1.00  0.00     0.284 HD
ATOM     20  H41 UNL     1      75.156  19.149  93.143  1.00  0.00     0.284 HD
HETATM   21  N5  UNL     1      78.247  19.219  93.684  1.00  0.00    -0.069 NA
HETATM   22  O2  UNL     1      78.057  20.286  92.844  1.00  0.00    -0.230 OA
ENDBRANCH  14  16
ENDBRANCH   1  12
TORSDOF 5
ENDMDL
MODEL 4
REMARK VINA RESULT: -5.719343979      2.884      5.178
REMARK  5 active torsions:
REMARK  status: ('A' for Active; 'I' for Inactive)
REMARK    1  A    between atoms: C2_2  and  N1_3 
REMARK    2  A    between atoms: C2_2  and  C3_7 
REMARK    3  A    between atoms: C3_7  and  N2_8 
REMARK    4  A    between atoms: C3_7  and  C4_12 
REMARK       I    between atoms: C4_12  and  N3_14 
REMARK    5  A    between atoms: N3_14  and  C5_16 
ROOT
HETATM    1  C3  UNL     1      74.758  20.724  88.489  1.00  0.00     0.304 C 
ENDROOT
BRANCH   1   2
HETATM    2  C2  UNL     1      74.226  19.940  87.305  1.00  0.00     0.219 C 
HETATM    3  C1  UNL     1      75.133  18.770  86.986  1.00  0.00     0.042 C 
BRANCH   2   4
HETATM    4  N1  UNL     1      74.320  20.847  86.151  1.00  0.00    -0.073 N 
ATOM      5  H13 UNL     1      73.890  20.475  85.304  1.00  0.00     0.274 HD
ATOM      6  H12 UNL     1      73.731  21.675  86.234  1.00  0.00     0.274 HD
ATOM      7  H11 UNL     1      75.312  21.060  86.045  1.00  0.00     0.274 HD
ENDBRANCH   2   4
ENDBRANCH   1   2
BRANCH   1   8
HETATM    8  N2  UNL     1      73.878  21.810  88.816  1.00  0.00    -0.064 N 
ATOM      9  H23 UNL     1      74.384  22.601  89.212  1.00  0.00     0.275 HD
ATOM     10  H22 UNL     1      73.513  22.266  87.979  1.00  0.00     0.275 HD
ATOM     11  H21 UNL     1      73.128  21.493  89.431  1.00  0.00     0.275 HD
ENDBRANCH   1   8
BRANCH   1  12
HETATM   12  C4  UNL     1      76.133  21.212  88.257  1.00  0.00     0.253 C 
HETATM   13  O1  UNL     1      76.305  22.217  87.532  1.00  0.00    -0.271 OA
HETATM   14  N3  UNL     1      77.273  20.594  88.818  1.00  0.00    -0.309 N 
ATOM     15  H3  UNL     1      77.118  19.775  89.407  1.00  0.00     0.166 HD
BRANCH  14  16
HETATM   16  C5  UNL     1      78.614  21.015  88.630  1.00  0.00     0.452 C 
HETATM   17  N4  UNL     1      79.150  20.744  87.317  1.00  0.00    -0.014 N 
HETATM   18  C6  UNL     1      80.593  20.875  87.579  1.00  0.00     0.379 C 
ATOM     19  H42 UNL     1      78.857  19.863  86.896  1.00  0.00     0.284 HD
ATOM     20  H41 UNL     1      78.785  21.326  86.564  1.00  0.00     0.284 HD
HETATM   21  N5  UNL     1      80.701  20.985  89.026  1.00  0.00    -0.069 NA
HETATM   22  O2  UNL     1      79.539  20.396  89.456  1.00  0.00    -0.230 OA
ENDBRANCH  14  16
ENDBRANCH   1  12
TORSDOF 5
ENDMDL
MODEL 5
REMARK VINA RESULT: -5.718480136      1.677      5.369
REMARK  5 active torsions:
REMARK  status: ('A' for Active; 'I' for Inactive)
REMARK    1  A    between atoms: C2_2  and  N1_3 
REMARK    2  A    between atoms: C2_2  and  C3_7 
REMARK    3  A    between atoms: C3_7  and  N2_8 
REMARK    4  A    between atoms: C3_7  and  C4_12 
REMARK       I    between atoms: C4_12  and  N3_14 
REMARK    5  A    between atoms: N3_14  and  C5_16 
ROOT
HETATM    1  C3  UNL     1      74.753  20.832  89.026  1.00  0.00     0.304 C 
ENDROOT
BRANCH   1   2
HETATM    2  C2  UNL     1      75.095  21.088  87.572  1.00  0.00     0.219 C 
HETATM    3  C1  UNL     1      73.898  21.644  86.829  1.00  0.00     0.042 C 
BRANCH   2   4
HETATM    4  N1  UNL     1      75.353  19.766  86.982  1.00  0.00    -0.073 N 
ATOM      5  H13 UNL     1      75.826  19.122  87.616  1.00  0.00     0.274 HD
ATOM      6  H12 UNL     1      74.510  19.207  86.848  1.00  0.00     0.274 HD
ATOM      7  H11 UNL     1      75.867  19.942  86.119  1.00  0.00     0.274 HD
ENDBRANCH   2   4
ENDBRANCH   1   2
BRANCH   1   8
HETATM    8  N2  UNL     1      73.994  21.923  89.569  1.00  0.00    -0.064 N 
ATOM      9  H23 UNL     1      74.322  22.187  90.498  1.00  0.00     0.275 HD
ATOM     10  H22 UNL     1      74.190  22.798  89.084  1.00  0.00     0.275 HD
ATOM     11  H21 UNL     1      72.998  21.705  89.568  1.00  0.00     0.275 HD
ENDBRANCH   1   8
BRANCH   1  12
HETATM   12  C4  UNL     1      75.958  20.573  89.840  1.00  0.00     0.253 C 
HETATM   13  O1  UNL     1      77.070  20.503  89.273  1.00  0.00    -0.271 OA
HETATM   14  N3  UNL     1      75.915  20.396  91.241  1.00  0.00    -0.309 N 
ATOM     15  H3  UNL     1      75.001  20.455  91.692  1.00  0.00     0.166 HD
BRANCH  14  16
HETATM   16  C5  UNL     1      77.034  20.144  92.074  1.00  0.00     0.452 C 
HETATM   17  N4  UNL     1      77.863  19.041  91.648  1.00  0.00    -0.014 N 
HETATM   18  C6  UNL     1      78.617  18.772  92.884  1.00  0.00     0.379 C 
ATOM     19  H42 UNL     1      77.365  18.243  91.254  1.00  0.00     0.284 HD
ATOM     20  H41 UNL     1      78.427  19.210  90.816  1.00  0.00     0.284 HD
HETATM   21  N5  UNL     1      77.977  19.596  93.898  1.00  0.00    -0.069 NA
HETATM   22  O2  UNL     1      76.723  19.787  93.377  1.00  0.00    -0.230 OA
ENDBRANCH  14  16
ENDBRANCH   1  12
TORSDOF 5
ENDMDL
