MODEL 1
REMARK VINA RESULT: -6.591902108      0.000      0.000
REMARK  3 active torsions:
REMARK  status: ('A' for Active; 'I' for Inactive)
REMARK    1  A    between atoms: N1_2  and  N2_4 
REMARK       I    between atoms: N2_4  and  C3_6 
REMARK    2  A    between atoms: C3_6  and  C4_8 
REMARK    3  A    between atoms: C4_8  and  O2_9 
ROOT
HETATM    1  C4  UNL     1      75.127  20.859  89.395  1.00  0.00     0.317 C 
HETATM    2  N3  UNL     1      75.717  21.721  88.397  1.00  0.00    -0.066 NA
HETATM    3  N4  UNL     1      75.880  20.885  87.296  1.00  0.00    -0.251 N 
ATOM      4  H4  UNL     1      76.584  20.987  86.566  1.00  0.00     0.187 HD
HETATM    5  C5  UNL     1      74.894  19.863  87.366  1.00  0.00     0.335 C 
HETATM    6  O3  UNL     1      74.495  19.184  86.366  1.00  0.00    -0.246 OA
HETATM    7  N5  UNL     1      74.476  19.766  88.715  1.00  0.00    -0.286 N 
ATOM      8  H5  UNL     1      73.849  19.071  89.119  1.00  0.00     0.169 HD
ENDROOT
BRANCH   1   9
HETATM    9  C3  UNL     1      76.246  20.391  90.282  1.00  0.00     0.307 C 
HETATM   10  N2  UNL     1      76.152  20.332  91.662  1.00  0.00    -0.284 N 
ATOM     11  H2  UNL     1      75.262  20.629  92.066  1.00  0.00     0.184 HD
HETATM   12  O1  UNL     1      77.297  20.049  89.664  1.00  0.00    -0.265 OA
BRANCH  10  13
HETATM   13  N1  UNL     1      77.108  19.924  92.549  1.00  0.00    -0.237 NA
HETATM   14  C1  UNL     1      76.576  19.368  93.766  1.00  0.00     0.135 C 
HETATM   15  C2  UNL     1      78.086  20.912  92.889  1.00  0.00     0.135 C 
ENDBRANCH  10  13
ENDBRANCH   1   9
BRANCH   1  16
HETATM   16  O2  UNL     1      74.208  21.643  90.096  1.00  0.00    -0.348 OA
ATOM     17  H2  UNL     1      73.658  22.147  89.509  1.00  0.00     0.214 HD
ENDBRANCH   1  16
TORSDOF 3
ENDMDL
MODEL 2
REMARK VINA RESULT: -6.587378278      1.064      1.230
REMARK  3 active torsions:
REMARK  status: ('A' for Active; 'I' for Inactive)
REMARK    1  A    between atoms: N1_2  and  N2_4 
REMARK       I    between atoms: N2_4  and  C3_6 
REMARK    2  A    between atoms: C3_6  and  C4_8 
REMARK    3  A    between atoms: C4_8  and  O2_9 
ROOT
HETATM    1  C4  UNL     1      74.769  21.280  88.987  1.00  0.00     0.317 C 
HETATM    2  N3  UNL     1      75.084  22.074  87.822  1.00  0.00    -0.066 NA
HETATM    3  N4  UNL     1      75.363  21.125  86.843  1.00  0.00    -0.251 N 
ATOM      4  H4  UNL     1      75.978  21.256  86.040  1.00  0.00     0.187 HD
HETATM    5  C5  UNL     1      74.642  19.941  87.157  1.00  0.00     0.335 C 
HETATM    6  O3  UNL     1      74.344  19.038  86.309  1.00  0.00    -0.246 OA
HETATM    7  N5  UNL     1      74.343  19.977  88.539  1.00  0.00    -0.286 N 
ATOM      8  H5  UNL     1      73.917  19.239  89.099  1.00  0.00     0.169 HD
ENDROOT
BRANCH   1   9
HETATM    9  C3  UNL     1      76.020  21.213  89.818  1.00  0.00     0.307 C 
HETATM   10  N2  UNL     1      76.148  20.410  90.940  1.00  0.00    -0.284 N 
ATOM     11  H2  UNL     1      75.333  19.847  91.185  1.00  0.00     0.184 HD
HETATM   12  O1  UNL     1      76.960  21.957  89.412  1.00  0.00    -0.265 OA
BRANCH  10  13
HETATM   13  N1  UNL     1      77.236  20.282  91.756  1.00  0.00    -0.237 NA
HETATM   14  C1  UNL     1      78.206  19.325  91.289  1.00  0.00     0.135 C 
HETATM   15  C2  UNL     1      76.941  19.999  93.127  1.00  0.00     0.135 C 
ENDBRANCH  10  13
ENDBRANCH   1   9
BRANCH   1  16
HETATM   16  O2  UNL     1      73.743  21.951  89.654  1.00  0.00    -0.348 OA
ATOM     17  H2  UNL     1      73.216  22.468  89.056  1.00  0.00     0.214 HD
ENDBRANCH   1  16
TORSDOF 3
ENDMDL
MODEL 3
REMARK VINA RESULT: -6.218539729      2.806      3.700
REMARK  3 active torsions:
REMARK  status: ('A' for Active; 'I' for Inactive)
REMARK    1  A    between atoms: N1_2  and  N2_4 
REMARK       I    between atoms: N2_4  and  C3_6 
REMARK    2  A    between atoms: C3_6  and  C4_8 
REMARK    3  A    between atoms: C4_8  and  O2_9 
ROOT
HETATM    1  C4  UNL     1      75.662  20.203  87.659  1.00  0.00     0.317 C 
HETATM    2  N3  UNL     1      74.633  19.946  88.640  1.00  0.00    -0.066 NA
HETATM    3  N4  UNL     1      74.099  21.206  88.895  1.00  0.00    -0.251 N 
ATOM      4  H4  UNL     1      73.653  21.503  89.762  1.00  0.00     0.187 HD
HETATM    5  C5  UNL     1      74.283  22.007  87.735  1.00  0.00     0.335 C 
HETATM    6  O3  UNL     1      73.593  23.042  87.463  1.00  0.00    -0.246 OA
HETATM    7  N5  UNL     1      75.342  21.439  86.987  1.00  0.00    -0.286 N 
ATOM      8  H5  UNL     1      75.784  21.821  86.152  1.00  0.00     0.169 HD
ENDROOT
BRANCH   1   9
HETATM    9  C3  UNL     1      76.963  20.285  88.407  1.00  0.00     0.307 C 
HETATM   10  N2  UNL     1      78.107  20.867  87.885  1.00  0.00    -0.284 N 
ATOM     11  H2  UNL     1      78.027  21.252  86.944  1.00  0.00     0.184 HD
HETATM   12  O1  UNL     1      76.936  19.773  89.564  1.00  0.00    -0.265 OA
BRANCH  10  13
HETATM   13  N1  UNL     1      79.330  20.988  88.483  1.00  0.00    -0.237 NA
HETATM   14  C1  UNL     1      79.502  22.214  89.217  1.00  0.00     0.135 C 
HETATM   15  C2  UNL     1      80.454  20.816  87.614  1.00  0.00     0.135 C 
ENDBRANCH  10  13
ENDBRANCH   1   9
BRANCH   1  16
HETATM   16  O2  UNL     1      75.642  19.122  86.777  1.00  0.00    -0.348 OA
ATOM     17  H2  UNL     1      76.444  18.614  86.827  1.00  0.00     0.214 HD
ENDBRANCH   1  16
TORSDOF 3
ENDMDL
MODEL 4
REMARK VINA RESULT: -6.202255001      1.760      2.509
REMARK  3 active torsions:
REMARK  status: ('A' for Active; 'I' for Inactive)
REMARK    1  A    between atoms: N1_2  and  N2_4 
REMARK       I    between atoms: N2_4  and  C3_6 
REMARK    2  A    between atoms: C3_6  and  C4_8 
REMARK    3  A    between atoms: C4_8  and  O2_9 
ROOT
HETATM    1  C4  UNL     1      75.837  19.982  88.005  1.00  0.00     0.317 C 
HETATM    2  N3  UNL     1      74.642  19.196  87.804  1.00  0.00    -0.066 NA
HETATM    3  N4  UNL     1      73.640  20.151  87.661  1.00  0.00    -0.251 N 
ATOM      4  H4  UNL     1      72.654  20.023  87.888  1.00  0.00     0.187 HD
HETATM    5  C5  UNL     1      74.229  21.336  87.144  1.00  0.00     0.335 C 
HETATM    6  O3  UNL     1      73.584  22.247  86.530  1.00  0.00    -0.246 OA
HETATM    7  N5  UNL     1      75.612  21.291  87.442  1.00  0.00    -0.286 N 
ATOM      8  H5  UNL     1      76.301  22.027  87.292  1.00  0.00     0.169 HD
ENDROOT
BRANCH   1   9
HETATM    9  C3  UNL     1      76.077  20.035  89.488  1.00  0.00     0.307 C 
HETATM   10  N2  UNL     1      77.254  19.614  90.085  1.00  0.00    -0.284 N 
ATOM     11  H2  UNL     1      77.974  19.256  89.457  1.00  0.00     0.184 HD
HETATM   12  O1  UNL     1      75.111  20.500  90.160  1.00  0.00    -0.265 OA
BRANCH  10  13
HETATM   13  N1  UNL     1      77.565  19.622  91.415  1.00  0.00    -0.237 NA
HETATM   14  C1  UNL     1      78.142  20.860  91.873  1.00  0.00     0.135 C 
HETATM   15  C2  UNL     1      78.397  18.543  91.854  1.00  0.00     0.135 C 
ENDBRANCH  10  13
ENDBRANCH   1   9
BRANCH   1  16
HETATM   16  O2  UNL     1      76.865  19.312  87.341  1.00  0.00    -0.348 OA
ATOM     17  H2  UNL     1      77.655  19.838  87.297  1.00  0.00     0.214 HD
ENDBRANCH   1  16
TORSDOF 3
ENDMDL
MODEL 5
REMARK VINA RESULT: -6.128580054      2.763      4.212
REMARK  3 active torsions:
REMARK  status: ('A' for Active; 'I' for Inactive)
REMARK    1  A    between atoms: N1_2  and  N2_4 
REMARK       I    between atoms: N2_4  and  C3_6 
REMARK    2  A    between atoms: C3_6  and  C4_8 
REMARK    3  A    between atoms: C4_8  and  O2_9 
ROOT
HETATM    1  C4  UNL     1      75.772  20.950  88.242  1.00  0.00     0.317 C 
HETATM    2  N3  UNL     1      75.301  20.286  89.435  1.00  0.00    -0.066 NA
HETATM    3  N4  UNL     1      74.570  21.271  90.093  1.00  0.00    -0.251 N 
ATOM      4  H4  UNL     1      74.417  21.331  91.099  1.00  0.00     0.187 HD
HETATM    5  C5  UNL     1      74.074  22.179  89.118  1.00  0.00     0.335 C 
HETATM    6  O3  UNL     1      73.071  22.944  89.298  1.00  0.00    -0.246 OA
HETATM    7  N5  UNL     1      74.890  22.059  87.969  1.00  0.00    -0.286 N 
ATOM      8  H5  UNL     1      74.861  22.634  87.127  1.00  0.00     0.169 HD
ENDROOT
BRANCH   1   9
HETATM    9  C3  UNL     1      77.179  21.399  88.521  1.00  0.00     0.307 C 
HETATM   10  N2  UNL     1      78.181  21.407  87.565  1.00  0.00    -0.284 N 
ATOM     11  H2  UNL     1      77.916  21.086  86.633  1.00  0.00     0.184 HD
HETATM   12  O1  UNL     1      77.383  21.775  89.713  1.00  0.00    -0.265 OA
BRANCH  10  13
HETATM   13  N1  UNL     1      79.482  21.794  87.722  1.00  0.00    -0.237 NA
HETATM   14  C1  UNL     1      80.070  22.358  86.534  1.00  0.00     0.135 C 
HETATM   15  C2  UNL     1      80.361  20.786  88.230  1.00  0.00     0.135 C 
ENDBRANCH  10  13
ENDBRANCH   1   9
BRANCH   1  16
HETATM   16  O2  UNL     1      75.728  20.000  87.220  1.00  0.00    -0.348 OA
ATOM     17  H2  UNL     1      75.475  19.145  87.548  1.00  0.00     0.214 HD
ENDBRANCH   1  16
TORSDOF 3
ENDMDL
