MODEL 1
REMARK VINA RESULT: -6.795651240      0.000      0.000
REMARK  4 active torsions:
REMARK  status: ('A' for Active; 'I' for Inactive)
REMARK    1  A    between atoms: N1_1  and  C1_5 
REMARK    2  A    between atoms: C1_5  and  N2_6 
REMARK    3  A    between atoms: C1_5  and  C2_10 
REMARK    4  A    between atoms: C2_10  and  C3_12 
ROOT
HETATM    1  C3  UNL     1      75.197  21.335  89.351  1.00  0.00     0.166 A 
HETATM    2  N3  UNL     1      74.917  20.747  90.528  1.00  0.00    -0.288 N 
ATOM      3  H3  UNL     1      73.941  20.609  90.789  1.00  0.00     0.187 HD
HETATM    4  N4  UNL     1      75.867  20.341  91.364  1.00  0.00    -0.251 N 
ATOM      5  H4  UNL     1      75.642  19.897  92.254  1.00  0.00     0.191 HD
HETATM    6  C4  UNL     1      77.145  20.544  90.977  1.00  0.00     0.341 A 
HETATM    7  O2  UNL     1      78.050  20.159  91.768  1.00  0.00    -0.245 OA
HETATM    8  N5  UNL     1      77.472  21.121  89.820  1.00  0.00    -0.272 N 
ATOM      9  H5  UNL     1      78.454  21.251  89.576  1.00  0.00     0.174 HD
HETATM   10  C5  UNL     1      76.506  21.536  88.968  1.00  0.00     0.281 A 
HETATM   11  O3  UNL     1      76.828  22.080  87.878  1.00  0.00    -0.265 OA
ENDROOT
BRANCH   1  12
HETATM   12  C2  UNL     1      74.131  21.764  88.467  1.00  0.00     0.240 C 
HETATM   13  O1  UNL     1      73.549  22.862  88.648  1.00  0.00    -0.286 OA
BRANCH  12  14
HETATM   14  C1  UNL     1      73.719  20.891  87.332  1.00  0.00     0.453 C 
BRANCH  14  15
HETATM   15  N1  UNL     1      74.474  21.178  86.143  1.00  0.00    -0.043 N 
ATOM     16  H13 UNL     1      75.193  20.477  85.960  1.00  0.00     0.277 HD
ATOM     17  H12 UNL     1      73.927  21.045  85.292  1.00  0.00     0.277 HD
ATOM     18  H11 UNL     1      74.858  22.120  86.216  1.00  0.00     0.277 HD
ENDBRANCH  14  15
BRANCH  14  19
HETATM   19  N2  UNL     1      73.888  19.485  87.667  1.00  0.00    -0.043 N 
ATOM     20  H23 UNL     1      73.053  18.933  87.468  1.00  0.00     0.277 HD
ATOM     21  H22 UNL     1      74.529  19.007  87.034  1.00  0.00     0.277 HD
ATOM     22  H21 UNL     1      74.178  19.412  88.642  1.00  0.00     0.277 HD
ENDBRANCH  14  19
ENDBRANCH  12  14
ENDBRANCH   1  12
TORSDOF 4
ENDMDL
MODEL 2
REMARK VINA RESULT: -6.221580116      1.573      1.828
REMARK  4 active torsions:
REMARK  status: ('A' for Active; 'I' for Inactive)
REMARK    1  A    between atoms: N1_1  and  C1_5 
REMARK    2  A    between atoms: C1_5  and  N2_6 
REMARK    3  A    between atoms: C1_5  and  C2_10 
REMARK    4  A    between atoms: C2_10  and  C3_12 
ROOT
HETATM    1  C3  UNL     1      75.885  20.838  89.856  1.00  0.00     0.166 A 
HETATM    2  N3  UNL     1      75.677  20.377  91.103  1.00  0.00    -0.288 N 
ATOM      3  H3  UNL     1      74.780  19.946  91.325  1.00  0.00     0.187 HD
HETATM    4  N4  UNL     1      76.599  20.463  92.056  1.00  0.00    -0.251 N 
ATOM      5  H4  UNL     1      76.429  20.110  92.998  1.00  0.00     0.191 HD
HETATM    6  C4  UNL     1      77.772  21.041  91.717  1.00  0.00     0.341 A 
HETATM    7  O2  UNL     1      78.650  21.125  92.620  1.00  0.00    -0.245 OA
HETATM    8  N5  UNL     1      78.024  21.513  90.495  1.00  0.00    -0.272 N 
ATOM      9  H5  UNL     1      78.928  21.940  90.292  1.00  0.00     0.174 HD
HETATM   10  C5  UNL     1      77.086  21.426  89.524  1.00  0.00     0.281 A 
HETATM   11  O3  UNL     1      77.337  21.875  88.374  1.00  0.00    -0.265 OA
ENDROOT
BRANCH   1  12
HETATM   12  C2  UNL     1      74.852  20.724  88.845  1.00  0.00     0.240 C 
HETATM   13  O1  UNL     1      74.696  19.657  88.203  1.00  0.00    -0.286 OA
BRANCH  12  14
HETATM   14  C1  UNL     1      73.966  21.889  88.563  1.00  0.00     0.453 C 
BRANCH  14  15
HETATM   15  N1  UNL     1      72.848  21.516  87.740  1.00  0.00    -0.043 N 
ATOM     16  H13 UNL     1      72.624  22.225  87.042  1.00  0.00     0.277 HD
ATOM     17  H12 UNL     1      73.072  20.753  87.101  1.00  0.00     0.277 HD
ATOM     18  H11 UNL     1      72.054  21.299  88.343  1.00  0.00     0.277 HD
ENDBRANCH  14  15
BRANCH  14  19
HETATM   19  N2  UNL     1      73.464  22.474  89.798  1.00  0.00    -0.043 N 
ATOM     20  H23 UNL     1      73.063  23.401  89.656  1.00  0.00     0.277 HD
ATOM     21  H22 UNL     1      72.624  22.006  90.138  1.00  0.00     0.277 HD
ATOM     22  H21 UNL     1      74.215  22.477  90.489  1.00  0.00     0.277 HD
ENDBRANCH  14  19
ENDBRANCH  12  14
ENDBRANCH   1  12
TORSDOF 4
ENDMDL
MODEL 3
REMARK VINA RESULT: -6.174216030      1.573      4.329
REMARK  4 active torsions:
REMARK  status: ('A' for Active; 'I' for Inactive)
REMARK    1  A    between atoms: N1_1  and  C1_5 
REMARK    2  A    between atoms: C1_5  and  N2_6 
REMARK    3  A    between atoms: C1_5  and  C2_10 
REMARK    4  A    between atoms: C2_10  and  C3_12 
ROOT
HETATM    1  C3  UNL     1      75.887  20.940  89.685  1.00  0.00     0.166 A 
HETATM    2  N3  UNL     1      74.643  21.174  90.140  1.00  0.00    -0.288 N 
ATOM      3  H3  UNL     1      74.380  20.820  91.059  1.00  0.00     0.187 HD
HETATM    4  N4  UNL     1      73.743  21.851  89.434  1.00  0.00    -0.251 N 
ATOM      5  H4  UNL     1      72.802  22.021  89.789  1.00  0.00     0.191 HD
HETATM    6  C4  UNL     1      74.136  22.301  88.222  1.00  0.00     0.341 A 
HETATM    7  O2  UNL     1      73.284  22.945  87.549  1.00  0.00    -0.245 OA
HETATM    8  N5  UNL     1      75.358  22.095  87.730  1.00  0.00    -0.272 N 
ATOM      9  H5  UNL     1      75.602  22.458  86.808  1.00  0.00     0.174 HD
HETATM   10  C5  UNL     1      76.274  21.406  88.448  1.00  0.00     0.281 A 
HETATM   11  O3  UNL     1      77.425  21.217  87.971  1.00  0.00    -0.265 OA
ENDROOT
BRANCH   1  12
HETATM   12  C2  UNL     1      76.839  20.196  90.488  1.00  0.00     0.240 C 
HETATM   13  O1  UNL     1      76.984  18.959  90.331  1.00  0.00    -0.286 OA
BRANCH  12  14
HETATM   14  C1  UNL     1      77.653  20.909  91.513  1.00  0.00     0.453 C 
BRANCH  14  15
HETATM   15  N1  UNL     1      77.866  22.285  91.156  1.00  0.00    -0.043 N 
ATOM     16  H13 UNL     1      77.006  22.833  91.189  1.00  0.00     0.277 HD
ATOM     17  H12 UNL     1      78.388  22.796  91.868  1.00  0.00     0.277 HD
ATOM     18  H11 UNL     1      78.317  22.322  90.242  1.00  0.00     0.277 HD
ENDBRANCH  14  15
BRANCH  14  19
HETATM   19  N2  UNL     1      77.011  20.856  92.818  1.00  0.00    -0.043 N 
ATOM     20  H23 UNL     1      76.839  21.784  93.206  1.00  0.00     0.277 HD
ATOM     21  H22 UNL     1      76.042  20.544  92.764  1.00  0.00     0.277 HD
ATOM     22  H21 UNL     1      77.573  20.274  93.438  1.00  0.00     0.277 HD
ENDBRANCH  14  19
ENDBRANCH  12  14
ENDBRANCH   1  12
TORSDOF 4
ENDMDL
MODEL 4
REMARK VINA RESULT: -6.087503492      0.750      1.188
REMARK  4 active torsions:
REMARK  status: ('A' for Active; 'I' for Inactive)
REMARK    1  A    between atoms: N1_1  and  C1_5 
REMARK    2  A    between atoms: C1_5  and  N2_6 
REMARK    3  A    between atoms: C1_5  and  C2_10 
REMARK    4  A    between atoms: C2_10  and  C3_12 
ROOT
HETATM    1  C3  UNL     1      75.809  21.195  89.589  1.00  0.00     0.166 A 
HETATM    2  N3  UNL     1      75.371  20.599  90.714  1.00  0.00    -0.288 N 
ATOM      3  H3  UNL     1      74.389  20.330  90.777  1.00  0.00     0.187 HD
HETATM    4  N4  UNL     1      76.171  20.349  91.744  1.00  0.00    -0.251 N 
ATOM      5  H4  UNL     1      75.827  19.897  92.592  1.00  0.00     0.191 HD
HETATM    6  C4  UNL     1      77.463  20.722  91.615  1.00  0.00     0.341 A 
HETATM    7  O2  UNL     1      78.226  20.485  92.593  1.00  0.00    -0.245 OA
HETATM    8  N5  UNL     1      77.944  21.314  90.521  1.00  0.00    -0.272 N 
ATOM      9  H5  UNL     1      78.929  21.575  90.477  1.00  0.00     0.174 HD
HETATM   10  C5  UNL     1      77.130  21.570  89.472  1.00  0.00     0.281 A 
HETATM   11  O3  UNL     1      77.597  22.130  88.444  1.00  0.00    -0.265 OA
ENDROOT
BRANCH   1  12
HETATM   12  C2  UNL     1      74.903  21.450  88.487  1.00  0.00     0.240 C 
HETATM   13  O1  UNL     1      74.184  22.480  88.471  1.00  0.00    -0.286 OA
BRANCH  12  14
HETATM   14  C1  UNL     1      74.822  20.479  87.360  1.00  0.00     0.453 C 
BRANCH  14  15
HETATM   15  N1  UNL     1      73.949  19.380  87.671  1.00  0.00    -0.043 N 
ATOM     16  H13 UNL     1      73.338  19.135  86.891  1.00  0.00     0.277 HD
ATOM     17  H12 UNL     1      74.449  18.494  87.743  1.00  0.00     0.277 HD
ATOM     18  H11 UNL     1      73.428  19.603  88.519  1.00  0.00     0.277 HD
ENDBRANCH  14  15
BRANCH  14  19
HETATM   19  N2  UNL     1      74.345  21.127  86.146  1.00  0.00    -0.043 N 
ATOM     20  H23 UNL     1      73.359  20.940  85.966  1.00  0.00     0.277 HD
ATOM     21  H22 UNL     1      74.282  22.140  86.244  1.00  0.00     0.277 HD
ATOM     22  H21 UNL     1      74.943  20.847  85.368  1.00  0.00     0.277 HD
ENDBRANCH  14  19
ENDBRANCH  12  14
ENDBRANCH   1  12
TORSDOF 4
ENDMDL
MODEL 5
REMARK VINA RESULT: -6.079084840      2.152      3.035
REMARK  4 active torsions:
REMARK  status: ('A' for Active; 'I' for Inactive)
REMARK    1  A    between atoms: N1_1  and  C1_5 
REMARK    2  A    between atoms: C1_5  and  N2_6 
REMARK    3  A    between atoms: C1_5  and  C2_10 
REMARK    4  A    between atoms: C2_10  and  C3_12 
ROOT
HETATM    1  C3  UNL     1      76.347  21.458  88.498  1.00  0.00     0.166 A 
HETATM    2  N3  UNL     1      76.964  21.974  87.419  1.00  0.00    -0.288 N 
ATOM      3  H3  UNL     1      76.434  22.082  86.555  1.00  0.00     0.187 HD
HETATM    4  N4  UNL     1      78.238  22.348  87.439  1.00  0.00    -0.251 N 
ATOM      5  H4  UNL     1      78.695  22.737  86.614  1.00  0.00     0.191 HD
HETATM    6  C4  UNL     1      78.901  22.188  88.605  1.00  0.00     0.341 A 
HETATM    7  O2  UNL     1      80.112  22.543  88.628  1.00  0.00    -0.245 OA
HETATM    8  N5  UNL     1      78.333  21.682  89.701  1.00  0.00    -0.272 N 
ATOM      9  H5  UNL     1      78.880  21.583  90.557  1.00  0.00     0.174 HD
HETATM   10  C5  UNL     1      77.036  21.301  89.682  1.00  0.00     0.281 A 
HETATM   11  O3  UNL     1      76.511  20.824  90.724  1.00  0.00    -0.265 OA
ENDROOT
BRANCH   1  12
HETATM   12  C2  UNL     1      74.954  21.062  88.434  1.00  0.00     0.240 C 
HETATM   13  O1  UNL     1      74.635  19.868  88.213  1.00  0.00    -0.286 OA
BRANCH  12  14
HETATM   14  C1  UNL     1      73.888  22.084  88.632  1.00  0.00     0.453 C 
BRANCH  14  15
HETATM   15  N1  UNL     1      72.702  21.763  87.886  1.00  0.00    -0.043 N 
ATOM     16  H13 UNL     1      71.915  21.526  88.490  1.00  0.00     0.277 HD
ATOM     17  H12 UNL     1      72.292  22.581  87.435  1.00  0.00     0.277 HD
ATOM     18  H11 UNL     1      72.922  21.021  87.223  1.00  0.00     0.277 HD
ENDBRANCH  14  15
BRANCH  14  19
HETATM   19  N2  UNL     1      73.538  22.207  90.040  1.00  0.00    -0.043 N 
ATOM     20  H23 UNL     1      74.113  21.613  90.638  1.00  0.00     0.277 HD
ATOM     21  H22 UNL     1      73.808  23.108  90.433  1.00  0.00     0.277 HD
ATOM     22  H21 UNL     1      72.541  22.018  90.149  1.00  0.00     0.277 HD
ENDBRANCH  14  19
ENDBRANCH  12  14
ENDBRANCH   1  12
TORSDOF 4
ENDMDL
