MODEL 1
REMARK VINA RESULT: -6.554236374      0.000      0.000
REMARK  4 active torsions:
REMARK  status: ('A' for Active; 'I' for Inactive)
REMARK    1  A    between atoms: C1_4  and  O1_6 
REMARK    2  A    between atoms: O1_6  and  C2_7 
REMARK    3  A    between atoms: C2_7  and  C3_8 
REMARK       I    between atoms: C3_8  and  N3_10 
REMARK    4  A    between atoms: N3_10  and  C4_11 
ROOT
HETATM    1  C3  UNL     1      75.050  19.360  87.674  1.00  0.00     0.319 C 
HETATM    2  O2  UNL     1      74.894  18.221  87.140  1.00  0.00    -0.255 OA
HETATM    3  N3  UNL     1      75.741  19.654  88.765  1.00  0.00    -0.333 NA
ENDROOT
BRANCH   1   4
HETATM    4  C2  UNL     1      74.294  20.420  86.862  1.00  0.00     0.297 C 
BRANCH   4   5
HETATM    5  O1  UNL     1      73.341  21.035  87.664  1.00  0.00    -0.314 OA
BRANCH   5   6
HETATM    6  C1  UNL     1      73.537  22.272  88.256  1.00  0.00     0.225 C 
HETATM    7  N1  UNL     1      73.585  22.238  89.570  1.00  0.00    -0.368 N 
ATOM      8  H12 UNL     1      73.729  23.148  90.006  1.00  0.00     0.159 HD
ATOM      9  H11 UNL     1      73.482  21.369  90.095  1.00  0.00     0.159 HD
HETATM   10  N2  UNL     1      73.678  23.477  87.529  1.00  0.00    -0.057 NA
ENDBRANCH   5   6
ENDBRANCH   4   5
ENDBRANCH   1   4
BRANCH   3  11
HETATM   11  C4  UNL     1      76.463  19.962  89.904  1.00  0.00     0.265 C 
HETATM   12  N4  UNL     1      77.801  20.012  89.769  1.00  0.00    -0.321 N 
HETATM   13  C5  UNL     1      78.450  20.327  90.980  1.00  0.00     0.166 C 
ATOM     14  H4  UNL     1      78.290  19.841  88.890  1.00  0.00     0.169 HD
HETATM   15  C6  UNL     1      77.387  20.682  91.938  1.00  0.00     0.264 C 
HETATM   16  O3  UNL     1      77.543  21.134  93.062  1.00  0.00    -0.267 OA
HETATM   17  N5  UNL     1      76.184  20.361  91.222  1.00  0.00    -0.282 N 
ATOM     18  H5  UNL     1      75.246  20.416  91.620  1.00  0.00     0.173 HD
ENDBRANCH   3  11
TORSDOF 4
ENDMDL
MODEL 2
REMARK VINA RESULT: -6.275728128      1.806      2.024
REMARK  4 active torsions:
REMARK  status: ('A' for Active; 'I' for Inactive)
REMARK    1  A    between atoms: C1_4  and  O1_6 
REMARK    2  A    between atoms: O1_6  and  C2_7 
REMARK    3  A    between atoms: C2_7  and  C3_8 
REMARK       I    between atoms: C3_8  and  N3_10 
REMARK    4  A    between atoms: N3_10  and  C4_11 
ROOT
HETATM    1  C3  UNL     1      76.577  21.080  88.731  1.00  0.00     0.319 C 
HETATM    2  O2  UNL     1      77.268  21.996  88.192  1.00  0.00    -0.255 OA
HETATM    3  N3  UNL     1      76.732  20.554  89.937  1.00  0.00    -0.333 NA
ENDROOT
BRANCH   1   4
HETATM    4  C2  UNL     1      75.478  20.621  87.763  1.00  0.00     0.297 C 
BRANCH   4   5
HETATM    5  O1  UNL     1      74.230  20.893  88.306  1.00  0.00    -0.314 OA
BRANCH   5   6
HETATM    6  C1  UNL     1      73.744  22.180  88.477  1.00  0.00     0.225 C 
HETATM    7  N1  UNL     1      73.408  22.468  89.715  1.00  0.00    -0.368 N 
ATOM      8  H12 UNL     1      73.051  23.414  89.841  1.00  0.00     0.159 HD
ATOM      9  H11 UNL     1      73.500  21.793  90.474  1.00  0.00     0.159 HD
HETATM   10  N2  UNL     1      73.616  23.116  87.425  1.00  0.00    -0.057 NA
ENDBRANCH   5   6
ENDBRANCH   4   5
ENDBRANCH   1   4
BRANCH   3  11
HETATM   11  C4  UNL     1      76.893  20.005  91.196  1.00  0.00     0.265 C 
HETATM   12  N4  UNL     1      78.003  19.268  91.389  1.00  0.00    -0.321 N 
HETATM   13  C5  UNL     1      78.079  18.747  92.697  1.00  0.00     0.166 C 
ATOM     14  H4  UNL     1      78.709  19.105  90.671  1.00  0.00     0.169 HD
HETATM   15  C6  UNL     1      76.979  19.372  93.455  1.00  0.00     0.264 C 
HETATM   16  O3  UNL     1      76.779  19.278  94.657  1.00  0.00    -0.267 OA
HETATM   17  N5  UNL     1      76.247  20.079  92.442  1.00  0.00    -0.282 N 
ATOM     18  H5  UNL     1      75.369  20.572  92.605  1.00  0.00     0.173 HD
ENDBRANCH   3  11
TORSDOF 4
ENDMDL
MODEL 3
REMARK VINA RESULT: -6.262844241      4.572      5.412
REMARK  4 active torsions:
REMARK  status: ('A' for Active; 'I' for Inactive)
REMARK    1  A    between atoms: C1_4  and  O1_6 
REMARK    2  A    between atoms: O1_6  and  C2_7 
REMARK    3  A    between atoms: C2_7  and  C3_8 
REMARK       I    between atoms: C3_8  and  N3_10 
REMARK    4  A    between atoms: N3_10  and  C4_11 
ROOT
HETATM    1  C3  UNL     1      77.905  21.596  88.593  1.00  0.00     0.319 C 
HETATM    2  O2  UNL     1      77.843  22.011  89.788  1.00  0.00    -0.255 OA
HETATM    3  N3  UNL     1      78.779  21.943  87.660  1.00  0.00    -0.333 NA
ENDROOT
BRANCH   1   4
HETATM    4  C2  UNL     1      76.778  20.586  88.336  1.00  0.00     0.297 C 
BRANCH   4   5
HETATM    5  O1  UNL     1      75.559  21.249  88.268  1.00  0.00    -0.314 OA
BRANCH   5   6
HETATM    6  C1  UNL     1      74.542  20.871  87.406  1.00  0.00     0.225 C 
HETATM    7  N1  UNL     1      73.916  19.771  87.762  1.00  0.00    -0.368 N 
ATOM      8  H12 UNL     1      73.167  19.493  87.128  1.00  0.00     0.159 HD
ATOM      9  H11 UNL     1      74.168  19.250  88.602  1.00  0.00     0.159 HD
HETATM   10  N2  UNL     1      74.192  21.593  86.241  1.00  0.00    -0.057 NA
ENDBRANCH   5   6
ENDBRANCH   4   5
ENDBRANCH   1   4
BRANCH   3  11
HETATM   11  C4  UNL     1      79.691  22.306  86.685  1.00  0.00     0.265 C 
HETATM   12  N4  UNL     1      80.990  22.110  86.980  1.00  0.00    -0.321 N 
HETATM   13  C5  UNL     1      81.843  22.513  85.932  1.00  0.00     0.166 C 
ATOM     14  H4  UNL     1      81.319  21.715  87.861  1.00  0.00     0.169 HD
HETATM   15  C6  UNL     1      80.969  22.835  84.789  1.00  0.00     0.264 C 
HETATM   16  O3  UNL     1      81.328  23.103  83.652  1.00  0.00    -0.267 OA
HETATM   17  N5  UNL     1      79.651  22.754  85.354  1.00  0.00    -0.282 N 
ATOM     18  H5  UNL     1      78.795  22.992  84.853  1.00  0.00     0.173 HD
ENDBRANCH   3  11
TORSDOF 4
ENDMDL
MODEL 4
REMARK VINA RESULT: -6.258909373      1.308      1.596
REMARK  4 active torsions:
REMARK  status: ('A' for Active; 'I' for Inactive)
REMARK    1  A    between atoms: C1_4  and  O1_6 
REMARK    2  A    between atoms: O1_6  and  C2_7 
REMARK    3  A    between atoms: C2_7  and  C3_8 
REMARK       I    between atoms: C3_8  and  N3_10 
REMARK    4  A    between atoms: N3_10  and  C4_11 
ROOT
HETATM    1  C3  UNL     1      75.758  19.336  88.306  1.00  0.00     0.319 C 
HETATM    2  O2  UNL     1      75.484  18.274  87.671  1.00  0.00    -0.255 OA
HETATM    3  N3  UNL     1      76.372  19.444  89.475  1.00  0.00    -0.333 NA
ENDROOT
BRANCH   1   4
HETATM    4  C2  UNL     1      75.258  20.555  87.518  1.00  0.00     0.297 C 
BRANCH   4   5
HETATM    5  O1  UNL     1      75.157  21.652  88.363  1.00  0.00    -0.314 OA
BRANCH   5   6
HETATM    6  C1  UNL     1      74.000  22.405  88.488  1.00  0.00     0.225 C 
HETATM    7  N1  UNL     1      73.450  22.352  89.681  1.00  0.00    -0.368 N 
ATOM      8  H12 UNL     1      72.599  22.905  89.773  1.00  0.00     0.159 HD
ATOM      9  H11 UNL     1      73.851  21.799  90.440  1.00  0.00     0.159 HD
HETATM   10  N2  UNL     1      73.445  23.169  87.436  1.00  0.00    -0.057 NA
ENDBRANCH   5   6
ENDBRANCH   4   5
ENDBRANCH   1   4
BRANCH   3  11
HETATM   11  C4  UNL     1      77.013  19.557  90.695  1.00  0.00     0.265 C 
HETATM   12  N4  UNL     1      76.395  20.303  91.629  1.00  0.00    -0.321 N 
HETATM   13  C5  UNL     1      77.124  20.364  92.835  1.00  0.00     0.166 C 
ATOM     14  H4  UNL     1      75.501  20.772  91.481  1.00  0.00     0.169 HD
HETATM   15  C6  UNL     1      78.236  19.407  92.693  1.00  0.00     0.264 C 
HETATM   16  O3  UNL     1      79.023  19.073  93.566  1.00  0.00    -0.267 OA
HETATM   17  N5  UNL     1      78.144  19.003  91.318  1.00  0.00    -0.282 N 
ATOM     18  H5  UNL     1      78.815  18.391  90.853  1.00  0.00     0.173 HD
ENDBRANCH   3  11
TORSDOF 4
ENDMDL
MODEL 5
REMARK VINA RESULT: -6.254757923      2.203      5.912
REMARK  4 active torsions:
REMARK  status: ('A' for Active; 'I' for Inactive)
REMARK    1  A    between atoms: C1_4  and  O1_6 
REMARK    2  A    between atoms: O1_6  and  C2_7 
REMARK    3  A    between atoms: C2_7  and  C3_8 
REMARK       I    between atoms: C3_8  and  N3_10 
REMARK    4  A    between atoms: N3_10  and  C4_11 
ROOT
HETATM    1  C3  UNL     1      77.204  19.900  91.180  1.00  0.00     0.319 C 
HETATM    2  O2  UNL     1      78.063  18.970  91.126  1.00  0.00    -0.255 OA
HETATM    3  N3  UNL     1      76.412  20.328  90.208  1.00  0.00    -0.333 NA
ENDROOT
BRANCH   1   4
HETATM    4  C2  UNL     1      77.191  20.512  92.588  1.00  0.00     0.297 C 
BRANCH   4   5
HETATM    5  O1  UNL     1      77.745  19.618  93.495  1.00  0.00    -0.314 OA
BRANCH   5   6
HETATM    6  C1  UNL     1      76.993  18.683  94.188  1.00  0.00     0.225 C 
HETATM    7  N1  UNL     1      77.630  17.561  94.440  1.00  0.00    -0.368 N 
ATOM      8  H12 UNL     1      77.077  16.872  94.950  1.00  0.00     0.159 HD
ATOM      9  H11 UNL     1      78.594  17.405  94.144  1.00  0.00     0.159 HD
HETATM   10  N2  UNL     1      75.657  18.899  94.598  1.00  0.00    -0.057 NA
ENDBRANCH   5   6
ENDBRANCH   4   5
ENDBRANCH   1   4
BRANCH   3  11
HETATM   11  C4  UNL     1      75.586  20.774  89.193  1.00  0.00     0.265 C 
HETATM   12  N4  UNL     1      74.596  21.612  89.552  1.00  0.00    -0.321 N 
HETATM   13  C5  UNL     1      73.806  22.009  88.454  1.00  0.00     0.166 C 
ATOM     14  H4  UNL     1      74.436  21.924  90.511  1.00  0.00     0.169 HD
HETATM   15  C6  UNL     1      74.485  21.498  87.250  1.00  0.00     0.264 C 
HETATM   16  O3  UNL     1      74.185  21.736  86.090  1.00  0.00    -0.267 OA
HETATM   17  N5  UNL     1      75.537  20.683  87.792  1.00  0.00    -0.282 N 
ATOM     18  H5  UNL     1      76.167  20.111  87.230  1.00  0.00     0.173 HD
ENDBRANCH   3  11
TORSDOF 4
ENDMDL
