MODEL 1
REMARK VINA RESULT: -6.745536124      0.000      0.000
REMARK  3 active torsions:
REMARK  status: ('A' for Active; 'I' for Inactive)
REMARK    1  A    between atoms: N2_3  and  C2_5 
REMARK    2  A    between atoms: C2_5  and  C3_6 
REMARK    3  A    between atoms: N7_18  and  N8_19 
ROOT
HETATM    1  N1  UNL     1      77.351  19.271  94.470  1.00  0.00    -0.172 NA
HETATM    2  C1  UNL     1      76.799  19.650  93.519  1.00  0.00     0.182 C 
HETATM    3  N2  UNL     1      76.156  20.091  92.395  1.00  0.00    -0.286 N 
ATOM      4  H2  UNL     1      75.211  20.466  92.481  1.00  0.00     0.178 HD
ENDROOT
BRANCH   3   5
HETATM    5  C2  UNL     1      76.793  20.043  91.052  1.00  0.00     0.155 C 
HETATM    6  C4  UNL     1      76.041  20.436  90.057  1.00  0.00     0.192 A 
HETATM    7  N4  UNL     1      74.665  20.897  90.214  1.00  0.00    -0.267 N 
HETATM    8  N7  UNL     1      76.263  20.538  88.681  1.00  0.00    -0.072 N 
HETATM    9  N5  UNL     1      74.125  21.247  88.989  1.00  0.00    -0.129 N 
ATOM     10  H4  UNL     1      74.170  20.954  91.104  1.00  0.00     0.189 HD
HETATM   11  C5  UNL     1      75.085  21.041  87.986  1.00  0.00     0.713 A 
ATOM     12  H5  UNL     1      73.180  21.598  88.838  1.00  0.00     0.205 HD
HETATM   13  N6  UNL     1      74.970  21.250  86.703  1.00  0.00    -0.232 N 
ATOM     14  H62 UNL     1      74.146  21.602  86.216  1.00  0.00     0.174 HD
ATOM     15  H61 UNL     1      75.667  21.100  85.973  1.00  0.00     0.174 HD
BRANCH   5  16
HETATM   16  C3  UNL     1      78.145  19.571  91.039  1.00  0.00     0.286 C 
HETATM   17  N3  UNL     1      79.236  20.480  90.714  1.00  0.00    -0.056 NA
HETATM   18  O1  UNL     1      78.505  18.425  91.285  1.00  0.00    -0.269 OA
ENDBRANCH   5  16
BRANCH   8  19
HETATM   19  N8  UNL     1      77.417  20.226  87.969  1.00  0.00    -0.322 N 
ATOM     20  H82 UNL     1      77.911  19.353  88.149  1.00  0.00     0.178 HD
ATOM     21  H81 UNL     1      77.878  20.775  87.243  1.00  0.00     0.178 HD
ENDBRANCH   8  19
ENDBRANCH   3   5
TORSDOF 3
ENDMDL
MODEL 2
REMARK VINA RESULT: -6.422095660      1.547      3.200
REMARK  3 active torsions:
REMARK  status: ('A' for Active; 'I' for Inactive)
REMARK    1  A    between atoms: N2_3  and  C2_5 
REMARK    2  A    between atoms: C2_5  and  C3_6 
REMARK    3  A    between atoms: N7_18  and  N8_19 
ROOT
HETATM    1  N1  UNL     1      80.933  21.714  89.621  1.00  0.00    -0.172 NA
HETATM    2  C1  UNL     1      79.988  21.165  89.225  1.00  0.00     0.182 C 
HETATM    3  N2  UNL     1      78.870  20.524  88.764  1.00  0.00    -0.286 N 
ATOM      4  H2  UNL     1      78.904  20.061  87.856  1.00  0.00     0.178 HD
ENDROOT
BRANCH   3   5
HETATM    5  C2  UNL     1      77.607  20.481  89.548  1.00  0.00     0.155 C 
HETATM    6  C4  UNL     1      76.539  20.895  88.918  1.00  0.00     0.192 A 
HETATM    7  N4  UNL     1      76.546  21.375  87.540  1.00  0.00    -0.267 N 
HETATM    8  N7  UNL     1      75.197  21.009  89.295  1.00  0.00    -0.072 N 
HETATM    9  N5  UNL     1      75.272  21.745  87.146  1.00  0.00    -0.129 N 
ATOM     10  H4  UNL     1      77.375  21.431  86.949  1.00  0.00     0.189 HD
HETATM   11  C5  UNL     1      74.381  21.537  88.210  1.00  0.00     0.713 A 
ATOM     12  H5  UNL     1      75.020  22.110  86.227  1.00  0.00     0.205 HD
HETATM   13  N6  UNL     1      73.095  21.759  88.242  1.00  0.00    -0.232 N 
ATOM     14  H62 UNL     1      72.524  22.129  87.483  1.00  0.00     0.174 HD
ATOM     15  H61 UNL     1      72.447  21.609  89.015  1.00  0.00     0.174 HD
BRANCH   5  16
HETATM   16  C3  UNL     1      77.740  19.990  90.887  1.00  0.00     0.286 C 
HETATM   17  N3  UNL     1      77.561  20.889  92.019  1.00  0.00    -0.056 NA
HETATM   18  O1  UNL     1      78.002  18.834  91.202  1.00  0.00    -0.269 OA
ENDBRANCH   5  16
BRANCH   8  19
HETATM   19  N8  UNL     1      74.616  20.689  90.518  1.00  0.00    -0.322 N 
ATOM     20  H82 UNL     1      75.094  20.064  91.166  1.00  0.00     0.178 HD
ATOM     21  H81 UNL     1      73.723  21.006  90.894  1.00  0.00     0.178 HD
ENDBRANCH   8  19
ENDBRANCH   3   5
TORSDOF 3
ENDMDL
MODEL 3
REMARK VINA RESULT: -6.319895884      1.917      2.100
REMARK  3 active torsions:
REMARK  status: ('A' for Active; 'I' for Inactive)
REMARK    1  A    between atoms: N2_3  and  C2_5 
REMARK    2  A    between atoms: C2_5  and  C3_6 
REMARK    3  A    between atoms: N7_18  and  N8_19 
ROOT
HETATM    1  N1  UNL     1      78.836  17.642  91.838  1.00  0.00    -0.172 NA
HETATM    2  C1  UNL     1      78.537  18.760  91.728  1.00  0.00     0.182 C 
HETATM    3  N2  UNL     1      78.183  20.075  91.589  1.00  0.00    -0.286 N 
ATOM      4  H2  UNL     1      78.065  20.646  92.426  1.00  0.00     0.178 HD
ENDROOT
BRANCH   3   5
HETATM    5  C2  UNL     1      77.966  20.696  90.255  1.00  0.00     0.155 C 
HETATM    6  C4  UNL     1      76.720  20.937  89.943  1.00  0.00     0.192 A 
HETATM    7  N4  UNL     1      75.591  20.632  90.816  1.00  0.00    -0.267 N 
HETATM    8  N7  UNL     1      76.114  21.497  88.813  1.00  0.00    -0.072 N 
HETATM    9  N5  UNL     1      74.399  20.999  90.218  1.00  0.00    -0.129 N 
ATOM     10  H4  UNL     1      75.671  20.206  91.739  1.00  0.00     0.189 HD
HETATM   11  C5  UNL     1      74.666  21.549  88.955  1.00  0.00     0.713 A 
ATOM     12  H5  UNL     1      73.472  20.887  90.630  1.00  0.00     0.205 HD
HETATM   13  N6  UNL     1      73.815  22.014  88.080  1.00  0.00    -0.232 N 
ATOM     14  H62 UNL     1      72.801  22.050  88.180  1.00  0.00     0.174 HD
ATOM     15  H61 UNL     1      74.009  22.413  87.162  1.00  0.00     0.174 HD
BRANCH   5  16
HETATM   16  C3  UNL     1      79.158  20.942  89.500  1.00  0.00     0.286 C 
HETATM   17  N3  UNL     1      80.287  21.628  90.114  1.00  0.00    -0.056 NA
HETATM   18  O1  UNL     1      79.342  20.621  88.331  1.00  0.00    -0.269 OA
ENDBRANCH   5  16
BRANCH   8  19
HETATM   19  N8  UNL     1      76.724  21.971  87.656  1.00  0.00    -0.322 N 
ATOM     20  H82 UNL     1      77.627  21.602  87.362  1.00  0.00     0.178 HD
ATOM     21  H81 UNL     1      76.382  22.682  87.010  1.00  0.00     0.178 HD
ENDBRANCH   8  19
ENDBRANCH   3   5
TORSDOF 3
ENDMDL
MODEL 4
REMARK VINA RESULT: -6.277858138      2.754      4.453
REMARK  3 active torsions:
REMARK  status: ('A' for Active; 'I' for Inactive)
REMARK    1  A    between atoms: N2_3  and  C2_5 
REMARK    2  A    between atoms: C2_5  and  C3_6 
REMARK    3  A    between atoms: N7_18  and  N8_19 
ROOT
HETATM    1  N1  UNL     1      73.154  23.092  89.236  1.00  0.00    -0.172 NA
HETATM    2  C1  UNL     1      73.814  22.163  89.467  1.00  0.00     0.182 C 
HETATM    3  N2  UNL     1      74.598  21.072  89.732  1.00  0.00    -0.286 N 
ATOM      4  H2  UNL     1      74.399  20.510  90.559  1.00  0.00     0.178 HD
ENDROOT
BRANCH   3   5
HETATM    5  C2  UNL     1      75.730  20.682  88.850  1.00  0.00     0.155 C 
HETATM    6  C4  UNL     1      76.888  21.206  89.156  1.00  0.00     0.192 A 
HETATM    7  N4  UNL     1      77.095  22.117  90.277  1.00  0.00    -0.267 N 
HETATM    8  N7  UNL     1      78.162  21.093  88.590  1.00  0.00    -0.072 N 
HETATM    9  N5  UNL     1      78.421  22.505  90.352  1.00  0.00    -0.129 N 
ATOM     10  H4  UNL     1      76.363  22.424  90.918  1.00  0.00     0.189 HD
HETATM   11  C5  UNL     1      79.140  21.893  89.314  1.00  0.00     0.713 A 
ATOM     12  H5  UNL     1      78.814  23.137  91.050  1.00  0.00     0.205 HD
HETATM   13  N6  UNL     1      80.412  22.001  89.039  1.00  0.00    -0.232 N 
ATOM     14  H62 UNL     1      81.097  22.560  89.546  1.00  0.00     0.174 HD
ATOM     15  H61 UNL     1      80.936  21.556  88.285  1.00  0.00     0.174 HD
BRANCH   5  16
HETATM   16  C3  UNL     1      75.390  19.784  87.788  1.00  0.00     0.286 C 
HETATM   17  N3  UNL     1      74.288  20.097  86.887  1.00  0.00    -0.056 NA
HETATM   18  O1  UNL     1      75.954  18.724  87.539  1.00  0.00    -0.269 OA
ENDBRANCH   5  16
BRANCH   8  19
HETATM   19  N8  UNL     1      78.549  20.344  87.483  1.00  0.00    -0.322 N 
ATOM     20  H82 UNL     1      78.794  19.360  87.589  1.00  0.00     0.178 HD
ATOM     21  H81 UNL     1      78.630  20.648  86.513  1.00  0.00     0.178 HD
ENDBRANCH   8  19
ENDBRANCH   3   5
TORSDOF 3
ENDMDL
MODEL 5
REMARK VINA RESULT: -6.252749337      2.153      2.564
REMARK  3 active torsions:
REMARK  status: ('A' for Active; 'I' for Inactive)
REMARK    1  A    between atoms: N2_3  and  C2_5 
REMARK    2  A    between atoms: C2_5  and  C3_6 
REMARK    3  A    between atoms: N7_18  and  N8_19 
ROOT
HETATM    1  N1  UNL     1      80.180  18.597  91.639  1.00  0.00    -0.172 NA
HETATM    2  C1  UNL     1      79.455  19.500  91.531  1.00  0.00     0.182 C 
HETATM    3  N2  UNL     1      78.599  20.559  91.394  1.00  0.00    -0.286 N 
ATOM      4  H2  UNL     1      78.259  21.031  92.232  1.00  0.00     0.178 HD
ENDROOT
BRANCH   3   5
HETATM    5  C2  UNL     1      78.152  21.044  90.061  1.00  0.00     0.155 C 
HETATM    6  C4  UNL     1      76.858  21.069  89.876  1.00  0.00     0.192 A 
HETATM    7  N4  UNL     1      75.887  20.658  90.886  1.00  0.00    -0.267 N 
HETATM    8  N7  UNL     1      76.059  21.448  88.793  1.00  0.00    -0.072 N 
HETATM    9  N5  UNL     1      74.597  20.795  90.405  1.00  0.00    -0.129 N 
ATOM     10  H4  UNL     1      76.127  20.316  91.816  1.00  0.00     0.189 HD
HETATM   11  C5  UNL     1      74.643  21.288  89.092  1.00  0.00     0.713 A 
ATOM     12  H5  UNL     1      73.746  20.573  90.923  1.00  0.00     0.205 HD
HETATM   13  N6  UNL     1      73.645  21.555  88.294  1.00  0.00    -0.232 N 
ATOM     14  H62 UNL     1      72.653  21.443  88.503  1.00  0.00     0.174 HD
ATOM     15  H61 UNL     1      73.678  21.913  87.339  1.00  0.00     0.174 HD
BRANCH   5  16
HETATM   16  C3  UNL     1      79.206  21.415  89.166  1.00  0.00     0.286 C 
HETATM   17  N3  UNL     1      79.444  20.644  87.952  1.00  0.00    -0.056 NA
HETATM   18  O1  UNL     1      79.971  22.361  89.315  1.00  0.00    -0.269 OA
ENDBRANCH   5  16
BRANCH   8  19
HETATM   19  N8  UNL     1      76.464  21.927  87.551  1.00  0.00    -0.322 N 
ATOM     20  H82 UNL     1      75.971  21.644  86.705  1.00  0.00     0.178 HD
ATOM     21  H81 UNL     1      77.233  22.563  87.341  1.00  0.00     0.178 HD
ENDBRANCH   8  19
ENDBRANCH   3   5
TORSDOF 3
ENDMDL
