MODEL 1
REMARK VINA RESULT: -5.957067763      0.000      0.000
REMARK  1 active torsions:
REMARK  status: ('A' for Active; 'I' for Inactive)
REMARK       I    between atoms: C2_2  and  N1_4 
REMARK       I    between atoms: N1_4  and  C3_6 
REMARK       I    between atoms: C3_6  and  N2_8 
REMARK    1  A    between atoms: N2_8  and  N3_10 
REMARK       I    between atoms: N3_10  and  C4_12 
ROOT
HETATM    1  C1  UNL     1      -2.071   6.492  13.791  1.00  0.00     0.117 C 
HETATM    2  C2  UNL     1      -1.506   7.708  13.079  1.00  0.00     0.221 C 
HETATM    3  O1  UNL     1      -0.465   8.212  13.538  1.00  0.00    -0.274 OA
HETATM    4  N1  UNL     1      -2.188   8.186  11.954  1.00  0.00    -0.278 N 
ATOM      5  H1  UNL     1      -3.031   7.684  11.678  1.00  0.00     0.173 HD
HETATM    6  C3  UNL     1      -1.829   9.267  11.188  1.00  0.00     0.341 C 
HETATM    7  O2  UNL     1      -2.576   9.567  10.184  1.00  0.00    -0.245 OA
HETATM    8  N2  UNL     1      -0.725  10.092  11.379  1.00  0.00    -0.248 N 
ATOM      9  H2  UNL     1      -0.098   9.899  12.160  1.00  0.00     0.192 HD
ENDROOT
BRANCH   8  10
HETATM   10  N3  UNL     1      -0.439  11.188  10.530  1.00  0.00    -0.250 N 
HETATM   11  C4  UNL     1       0.205  10.926   9.311  1.00  0.00     0.347 C 
HETATM   12  N4  UNL     1       0.537  11.955   8.387  1.00  0.00    -0.038 NA
HETATM   13  O3  UNL     1       0.524   9.745   8.972  1.00  0.00    -0.249 OA
ATOM     14  H3  UNL     1      -0.694  12.139  10.796  1.00  0.00     0.191 HD
ENDBRANCH   8  10
TORSDOF 1
ENDMDL
MODEL 2
REMARK VINA RESULT: -5.843918714      1.228      1.228
REMARK  1 active torsions:
REMARK  status: ('A' for Active; 'I' for Inactive)
REMARK       I    between atoms: C2_2  and  N1_4 
REMARK       I    between atoms: N1_4  and  C3_6 
REMARK       I    between atoms: C3_6  and  N2_8 
REMARK    1  A    between atoms: N2_8  and  N3_10 
REMARK       I    between atoms: N3_10  and  C4_12 
ROOT
HETATM    1  C1  UNL     1      -0.615   5.432  12.339  1.00  0.00     0.117 C 
HETATM    2  C2  UNL     1      -0.375   6.884  11.968  1.00  0.00     0.221 C 
HETATM    3  O1  UNL     1       0.747   7.364  12.217  1.00  0.00    -0.274 OA
HETATM    4  N1  UNL     1      -1.423   7.592  11.371  1.00  0.00    -0.278 N 
ATOM      5  H1  UNL     1      -2.295   7.085  11.219  1.00  0.00     0.173 HD
HETATM    6  C3  UNL     1      -1.389   8.904  10.969  1.00  0.00     0.341 C 
HETATM    7  O2  UNL     1      -2.451   9.397  10.435  1.00  0.00    -0.245 OA
HETATM    8  N2  UNL     1      -0.314   9.780  11.078  1.00  0.00    -0.248 N 
ATOM      9  H2  UNL     1       0.553   9.442  11.494  1.00  0.00     0.192 HD
ENDROOT
BRANCH   8  10
HETATM   10  N3  UNL     1      -0.379  11.122  10.632  1.00  0.00    -0.250 N 
HETATM   11  C4  UNL     1       0.056  11.405   9.329  1.00  0.00     0.347 C 
HETATM   12  N4  UNL     1       0.033  12.719   8.786  1.00  0.00    -0.038 NA
HETATM   13  O3  UNL     1       0.495  10.492   8.565  1.00  0.00    -0.249 OA
ATOM     14  H3  UNL     1      -0.731  11.861  11.241  1.00  0.00     0.191 HD
ENDBRANCH   8  10
TORSDOF 1
ENDMDL
MODEL 3
REMARK VINA RESULT: -5.648703281      1.274      1.529
REMARK  1 active torsions:
REMARK  status: ('A' for Active; 'I' for Inactive)
REMARK       I    between atoms: C2_2  and  N1_4 
REMARK       I    between atoms: N1_4  and  C3_6 
REMARK       I    between atoms: C3_6  and  N2_8 
REMARK    1  A    between atoms: N2_8  and  N3_10 
REMARK       I    between atoms: N3_10  and  C4_12 
ROOT
HETATM    1  C1  UNL     1      -2.248   6.710  13.787  1.00  0.00     0.117 C 
HETATM    2  C2  UNL     1      -1.607   7.828  12.985  1.00  0.00     0.221 C 
HETATM    3  O1  UNL     1      -1.644   8.976  13.466  1.00  0.00    -0.274 OA
HETATM    4  N1  UNL     1      -1.015   7.503  11.760  1.00  0.00    -0.278 N 
ATOM      5  H1  UNL     1      -1.050   6.524  11.476  1.00  0.00     0.173 HD
HETATM    6  C3  UNL     1      -0.392   8.376  10.904  1.00  0.00     0.341 C 
HETATM    7  O2  UNL     1       0.100   7.901   9.813  1.00  0.00    -0.245 OA
HETATM    8  N2  UNL     1      -0.228   9.745  11.086  1.00  0.00    -0.248 N 
ATOM      9  H2  UNL     1      -0.598  10.175  11.933  1.00  0.00     0.192 HD
ENDROOT
BRANCH   8  10
HETATM   10  N3  UNL     1       0.433  10.564  10.139  1.00  0.00    -0.250 N 
HETATM   11  C4  UNL     1      -0.348  11.223   9.179  1.00  0.00     0.347 C 
HETATM   12  N4  UNL     1       0.216  12.068   8.185  1.00  0.00    -0.038 NA
HETATM   13  O3  UNL     1      -1.611  11.094   9.152  1.00  0.00    -0.249 OA
ATOM     14  H3  UNL     1       1.447  10.673  10.156  1.00  0.00     0.191 HD
ENDBRANCH   8  10
TORSDOF 1
ENDMDL
MODEL 4
REMARK VINA RESULT: -5.596661460      1.882      2.474
REMARK  1 active torsions:
REMARK  status: ('A' for Active; 'I' for Inactive)
REMARK       I    between atoms: C2_2  and  N1_4 
REMARK       I    between atoms: N1_4  and  C3_6 
REMARK       I    between atoms: C3_6  and  N2_8 
REMARK    1  A    between atoms: N2_8  and  N3_10 
REMARK       I    between atoms: N3_10  and  C4_12 
ROOT
HETATM    1  C1  UNL     1       0.451   6.290  14.776  1.00  0.00     0.117 C 
HETATM    2  C2  UNL     1      -0.068   7.417  13.903  1.00  0.00     0.221 C 
HETATM    3  O1  UNL     1      -0.869   8.220  14.415  1.00  0.00    -0.274 OA
HETATM    4  N1  UNL     1       0.384   7.485  12.580  1.00  0.00    -0.278 N 
ATOM      5  H1  UNL     1       1.042   6.766  12.279  1.00  0.00     0.173 HD
HETATM    6  C3  UNL     1       0.026   8.428  11.649  1.00  0.00     0.341 C 
HETATM    7  O2  UNL     1       0.541   8.338  10.473  1.00  0.00    -0.245 OA
HETATM    8  N2  UNL     1      -0.850   9.492  11.837  1.00  0.00    -0.248 N 
ATOM      9  H2  UNL     1      -1.287   9.611  12.750  1.00  0.00     0.192 HD
ENDROOT
BRANCH   8  10
HETATM   10  N3  UNL     1      -1.157  10.415  10.809  1.00  0.00    -0.250 N 
HETATM   11  C4  UNL     1      -2.213  10.105   9.939  1.00  0.00     0.347 C 
HETATM   12  N4  UNL     1      -2.602  10.964   8.875  1.00  0.00    -0.038 NA
HETATM   13  O3  UNL     1      -2.879   9.032  10.063  1.00  0.00    -0.249 OA
ATOM     14  H3  UNL     1      -0.626  11.280  10.704  1.00  0.00     0.191 HD
ENDBRANCH   8  10
TORSDOF 1
ENDMDL
MODEL 5
REMARK VINA RESULT: -5.552002436      3.131      5.088
REMARK  1 active torsions:
REMARK  status: ('A' for Active; 'I' for Inactive)
REMARK       I    between atoms: C2_2  and  N1_4 
REMARK       I    between atoms: N1_4  and  C3_6 
REMARK       I    between atoms: C3_6  and  N2_8 
REMARK    1  A    between atoms: N2_8  and  N3_10 
REMARK       I    between atoms: N3_10  and  C4_12 
ROOT
HETATM    1  C1  UNL     1       0.507  11.842   9.833  1.00  0.00     0.117 C 
HETATM    2  C2  UNL     1       0.081  10.412   9.558  1.00  0.00     0.221 C 
HETATM    3  O1  UNL     1      -0.256  10.125   8.394  1.00  0.00    -0.274 OA
HETATM    4  N1  UNL     1       0.093   9.506  10.624  1.00  0.00    -0.278 N 
ATOM      5  H1  UNL     1       0.391   9.864  11.531  1.00  0.00     0.173 HD
HETATM    6  C3  UNL     1      -0.257   8.180  10.564  1.00  0.00     0.341 C 
HETATM    7  O2  UNL     1      -0.186   7.490  11.649  1.00  0.00    -0.245 OA
HETATM    8  N2  UNL     1      -0.689   7.483   9.441  1.00  0.00    -0.248 N 
ATOM      9  H2  UNL     1      -0.764   7.981   8.554  1.00  0.00     0.192 HD
ENDROOT
BRANCH   8  10
HETATM   10  N3  UNL     1      -1.030   6.110   9.482  1.00  0.00    -0.250 N 
HETATM   11  C4  UNL     1      -0.147   5.195   8.888  1.00  0.00     0.347 C 
HETATM   12  N4  UNL     1      -0.395   3.795   8.875  1.00  0.00    -0.038 NA
HETATM   13  O3  UNL     1       0.926   5.578   8.330  1.00  0.00    -0.249 OA
ATOM     14  H3  UNL     1      -1.890   5.795   9.930  1.00  0.00     0.191 HD
ENDBRANCH   8  10
TORSDOF 1
ENDMDL
