MODEL 1
REMARK VINA RESULT: -6.073846448      0.000      0.000
REMARK  3 active torsions:
REMARK  status: ('A' for Active; 'I' for Inactive)
REMARK    1  A    between atoms: C2_2  and  N1_3 
REMARK    2  A    between atoms: C2_2  and  C3_7 
REMARK       I    between atoms: C3_7  and  N2_9 
REMARK    3  A    between atoms: N2_9  and  N3_11 
REMARK       I    between atoms: C4_13  and  N5_15 
ROOT
HETATM    1  N3  UNL     1      74.276   9.895  34.517  1.00  0.00    -0.270 N 
ATOM      2  H3  UNL     1      73.801   9.811  35.417  1.00  0.00     0.189 HD
HETATM    3  C4  UNL     1      74.199   8.952  33.662  1.00  0.00     0.216 C 
HETATM    4  N4  UNL     1      74.850   9.060  32.417  1.00  0.00    -0.061 NA
HETATM    5  N5  UNL     1      73.456   7.794  33.967  1.00  0.00    -0.266 N 
ATOM      6  H5  UNL     1      72.483   7.916  34.246  1.00  0.00     0.180 HD
HETATM    7  C5  UNL     1      73.953   6.500  33.916  1.00  0.00     0.184 C 
HETATM    8  N6  UNL     1      74.358   5.414  33.880  1.00  0.00    -0.172 NA
ENDROOT
BRANCH   1   9
HETATM    9  N2  UNL     1      75.013  11.045  34.217  1.00  0.00    -0.266 N 
HETATM   10  C3  UNL     1      74.331  12.242  33.866  1.00  0.00     0.266 C 
HETATM   11  O1  UNL     1      73.078  12.291  33.822  1.00  0.00    -0.269 OA
ATOM     12  H2  UNL     1      76.033  11.024  34.248  1.00  0.00     0.190 HD
BRANCH  10  13
HETATM   13  C2  UNL     1      75.095  13.467  33.545  1.00  0.00     0.272 C 
HETATM   14  C1  UNL     1      76.514  13.242  34.070  1.00  0.00     0.050 C 
BRANCH  13  15
HETATM   15  N1  UNL     1      75.115  13.675  32.131  1.00  0.00    -0.067 N 
ATOM     16  H13 UNL     1      76.046  13.925  31.797  1.00  0.00     0.275 HD
ATOM     17  H12 UNL     1      74.999  12.802  31.617  1.00  0.00     0.275 HD
ATOM     18  H11 UNL     1      74.417  14.369  31.865  1.00  0.00     0.275 HD
ENDBRANCH  13  15
ENDBRANCH  10  13
ENDBRANCH   1   9
TORSDOF 3
ENDMDL
MODEL 2
REMARK VINA RESULT: -6.073340496      2.014      2.186
REMARK  3 active torsions:
REMARK  status: ('A' for Active; 'I' for Inactive)
REMARK    1  A    between atoms: C2_2  and  N1_3 
REMARK    2  A    between atoms: C2_2  and  C3_7 
REMARK       I    between atoms: C3_7  and  N2_9 
REMARK    3  A    between atoms: N2_9  and  N3_11 
REMARK       I    between atoms: C4_13  and  N5_15 
ROOT
HETATM    1  N3  UNL     1      74.308   9.305  32.241  1.00  0.00    -0.270 N 
ATOM      2  H3  UNL     1      73.513   8.824  32.663  1.00  0.00     0.189 HD
HETATM    3  C4  UNL     1      75.409   8.687  32.063  1.00  0.00     0.216 C 
HETATM    4  N4  UNL     1      76.512   9.342  31.481  1.00  0.00    -0.061 NA
HETATM    5  N5  UNL     1      75.521   7.337  32.452  1.00  0.00    -0.266 N 
ATOM      6  H5  UNL     1      74.838   6.678  32.078  1.00  0.00     0.180 HD
HETATM    7  C5  UNL     1      76.494   6.839  33.307  1.00  0.00     0.184 C 
HETATM    8  N6  UNL     1      77.300   6.412  34.024  1.00  0.00    -0.172 NA
ENDROOT
BRANCH   1   9
HETATM    9  N2  UNL     1      74.194  10.644  31.856  1.00  0.00    -0.266 N 
HETATM   10  C3  UNL     1      73.964  11.640  32.845  1.00  0.00     0.266 C 
HETATM   11  O1  UNL     1      73.861  11.342  34.059  1.00  0.00    -0.269 OA
ATOM     12  H2  UNL     1      74.276  10.905  30.873  1.00  0.00     0.190 HD
BRANCH  10  13
HETATM   13  C2  UNL     1      73.841  13.061  32.455  1.00  0.00     0.272 C 
HETATM   14  C1  UNL     1      75.233  13.675  32.614  1.00  0.00     0.050 C 
BRANCH  13  15
HETATM   15  N1  UNL     1      73.406  13.161  31.098  1.00  0.00    -0.067 N 
ATOM     16  H13 UNL     1      74.190  13.262  30.453  1.00  0.00     0.275 HD
ATOM     17  H12 UNL     1      73.038  12.276  30.750  1.00  0.00     0.275 HD
ATOM     18  H11 UNL     1      72.732  13.919  30.997  1.00  0.00     0.275 HD
ENDBRANCH  13  15
ENDBRANCH  10  13
ENDBRANCH   1   9
TORSDOF 3
ENDMDL
MODEL 3
REMARK VINA RESULT: -5.979842721      2.117      2.329
REMARK  3 active torsions:
REMARK  status: ('A' for Active; 'I' for Inactive)
REMARK    1  A    between atoms: C2_2  and  N1_3 
REMARK    2  A    between atoms: C2_2  and  C3_7 
REMARK       I    between atoms: C3_7  and  N2_9 
REMARK    3  A    between atoms: N2_9  and  N3_11 
REMARK       I    between atoms: C4_13  and  N5_15 
ROOT
HETATM    1  N3  UNL     1      72.281  10.269  33.731  1.00  0.00    -0.270 N 
ATOM      2  H3  UNL     1      71.379  10.552  34.115  1.00  0.00     0.189 HD
HETATM    3  C4  UNL     1      72.837   9.192  34.127  1.00  0.00     0.216 C 
HETATM    4  N4  UNL     1      74.082   8.793  33.601  1.00  0.00    -0.061 NA
HETATM    5  N5  UNL     1      72.199   8.396  35.100  1.00  0.00    -0.266 N 
ATOM      6  H5  UNL     1      71.244   8.092  34.911  1.00  0.00     0.180 HD
HETATM    7  C5  UNL     1      72.777   7.996  36.296  1.00  0.00     0.184 C 
HETATM    8  N6  UNL     1      73.248   7.659  37.301  1.00  0.00    -0.172 NA
ENDROOT
BRANCH   1   9
HETATM    9  N2  UNL     1      72.912  11.061  32.766  1.00  0.00    -0.266 N 
HETATM   10  C3  UNL     1      72.947  12.472  32.932  1.00  0.00     0.266 C 
HETATM   11  O1  UNL     1      72.422  13.025  33.928  1.00  0.00    -0.269 OA
ATOM     12  H2  UNL     1      73.344  10.628  31.949  1.00  0.00     0.190 HD
BRANCH  10  13
HETATM   13  C2  UNL     1      73.609  13.324  31.921  1.00  0.00     0.272 C 
HETATM   14  C1  UNL     1      75.041  13.544  32.412  1.00  0.00     0.050 C 
BRANCH  13  15
HETATM   15  N1  UNL     1      73.615  12.666  30.653  1.00  0.00    -0.067 N 
ATOM     16  H13 UNL     1      74.356  11.968  30.590  1.00  0.00     0.275 HD
ATOM     17  H12 UNL     1      72.813  12.046  30.543  1.00  0.00     0.275 HD
ATOM     18  H11 UNL     1      73.672  13.350  29.899  1.00  0.00     0.275 HD
ENDBRANCH  13  15
ENDBRANCH  10  13
ENDBRANCH   1   9
TORSDOF 3
ENDMDL
MODEL 4
REMARK VINA RESULT: -5.877860631      2.561      3.061
REMARK  3 active torsions:
REMARK  status: ('A' for Active; 'I' for Inactive)
REMARK    1  A    between atoms: C2_2  and  N1_3 
REMARK    2  A    between atoms: C2_2  and  C3_7 
REMARK       I    between atoms: C3_7  and  N2_9 
REMARK    3  A    between atoms: N2_9  and  N3_11 
REMARK       I    between atoms: C4_13  and  N5_15 
ROOT
HETATM    1  N3  UNL     1      76.111  10.163  31.067  1.00  0.00    -0.270 N 
ATOM      2  H3  UNL     1      76.698  10.225  30.235  1.00  0.00     0.189 HD
HETATM    3  C4  UNL     1      76.119   9.106  31.780  1.00  0.00     0.216 C 
HETATM    4  N4  UNL     1      75.312   9.011  32.931  1.00  0.00    -0.061 NA
HETATM    5  N5  UNL     1      76.944   8.024  31.411  1.00  0.00    -0.266 N 
ATOM      6  H5  UNL     1      77.938   8.209  31.282  1.00  0.00     0.180 HD
HETATM    7  C5  UNL     1      76.500   6.725  31.209  1.00  0.00     0.184 C 
HETATM    8  N6  UNL     1      76.140   5.636  31.034  1.00  0.00    -0.172 NA
ENDROOT
BRANCH   1   9
HETATM    9  N2  UNL     1      75.293  11.237  31.431  1.00  0.00    -0.266 N 
HETATM   10  C3  UNL     1      75.751  12.167  32.405  1.00  0.00     0.266 C 
HETATM   11  O1  UNL     1      76.876  12.045  32.945  1.00  0.00    -0.269 OA
ATOM     12  H2  UNL     1      74.375  11.353  31.002  1.00  0.00     0.190 HD
BRANCH  10  13
HETATM   13  C2  UNL     1      74.899  13.308  32.802  1.00  0.00     0.272 C 
HETATM   14  C1  UNL     1      73.623  13.209  31.963  1.00  0.00     0.050 C 
BRANCH  13  15
HETATM   15  N1  UNL     1      74.586  13.225  34.194  1.00  0.00    -0.067 N 
ATOM     16  H13 UNL     1      74.959  12.375  34.618  1.00  0.00     0.275 HD
ATOM     17  H12 UNL     1      75.107  13.909  34.742  1.00  0.00     0.275 HD
ATOM     18  H11 UNL     1      73.579  13.311  34.337  1.00  0.00     0.275 HD
ENDBRANCH  13  15
ENDBRANCH  10  13
ENDBRANCH   1   9
TORSDOF 3
ENDMDL
MODEL 5
REMARK VINA RESULT: -5.835311373      3.245      6.082
REMARK  3 active torsions:
REMARK  status: ('A' for Active; 'I' for Inactive)
REMARK    1  A    between atoms: C2_2  and  N1_3 
REMARK    2  A    between atoms: C2_2  and  C3_7 
REMARK       I    between atoms: C3_7  and  N2_9 
REMARK    3  A    between atoms: N2_9  and  N3_11 
REMARK       I    between atoms: C4_13  and  N5_15 
ROOT
HETATM    1  N3  UNL     1      75.953  10.362  31.175  1.00  0.00    -0.270 N 
ATOM      2  H3  UNL     1      76.666  10.769  30.569  1.00  0.00     0.189 HD
HETATM    3  C4  UNL     1      75.250  11.110  31.930  1.00  0.00     0.216 C 
HETATM    4  N4  UNL     1      74.262  10.557  32.769  1.00  0.00    -0.061 NA
HETATM    5  N5  UNL     1      75.464  12.504  31.924  1.00  0.00    -0.266 N 
ATOM      6  H5  UNL     1      75.412  12.987  31.028  1.00  0.00     0.180 HD
HETATM    7  C5  UNL     1      75.742  13.265  33.051  1.00  0.00     0.184 C 
HETATM    8  N6  UNL     1      75.978  13.912  33.984  1.00  0.00    -0.172 NA
ENDROOT
BRANCH   1   9
HETATM    9  N2  UNL     1      75.742   8.979  31.179  1.00  0.00    -0.266 N 
HETATM   10  C3  UNL     1      76.858   8.101  31.105  1.00  0.00     0.266 C 
HETATM   11  O1  UNL     1      78.031   8.540  31.036  1.00  0.00    -0.269 OA
ATOM     12  H2  UNL     1      74.795   8.604  31.235  1.00  0.00     0.190 HD
BRANCH  10  13
HETATM   13  C2  UNL     1      76.653   6.636  31.108  1.00  0.00     0.272 C 
HETATM   14  C1  UNL     1      78.013   6.010  31.422  1.00  0.00     0.050 C 
BRANCH  13  15
HETATM   15  N1  UNL     1      75.698   6.277  32.108  1.00  0.00    -0.067 N 
ATOM     16  H13 UNL     1      75.646   5.266  32.238  1.00  0.00     0.275 HD
ATOM     17  H12 UNL     1      76.012   6.534  33.044  1.00  0.00     0.275 HD
ATOM     18  H11 UNL     1      74.787   6.679  31.889  1.00  0.00     0.275 HD
ENDBRANCH  13  15
ENDBRANCH  10  13
ENDBRANCH   1   9
TORSDOF 3
ENDMDL
