MODEL 1
REMARK VINA RESULT: -6.453772501      0.000      0.000
REMARK  3 active torsions:
REMARK  status: ('A' for Active; 'I' for Inactive)
REMARK       I    between atoms: C1_4  and  N3_6 
REMARK    1  A    between atoms: N3_6  and  N4_8 
REMARK       I    between atoms: N4_8  and  C2_10 
REMARK    2  A    between atoms: C2_10  and  C3_12 
REMARK       I    between atoms: C3_12  and  N5_14 
REMARK    3  A    between atoms: N5_14  and  C4_16 
ROOT
HETATM    1  N4  UNL     1      73.985  10.279  32.286  1.00  0.00    -0.259 N 
ATOM      2  H4  UNL     1      74.648  10.207  31.514  1.00  0.00     0.190 HD
HETATM    3  C2  UNL     1      73.307  11.528  32.483  1.00  0.00     0.328 C 
HETATM    4  O1  UNL     1      72.479  11.618  33.448  1.00  0.00    -0.261 OA
ENDROOT
BRANCH   1   5
HETATM    5  N3  UNL     1      73.790   9.172  33.082  1.00  0.00    -0.271 N 
HETATM    6  C1  UNL     1      74.547   8.805  34.216  1.00  0.00     0.200 C 
HETATM    7  N1  UNL     1      74.032   9.033  35.398  1.00  0.00    -0.372 N 
HETATM    8  N2  UNL     1      75.827   8.204  34.166  1.00  0.00    -0.062 NA
ATOM      9  H12 UNL     1      74.579   8.768  36.218  1.00  0.00     0.158 HD
ATOM     10  H11 UNL     1      73.109   9.466  35.435  1.00  0.00     0.158 HD
ATOM     11  H3  UNL     1      73.020   8.555  32.826  1.00  0.00     0.189 HD
ENDBRANCH   1   5
BRANCH   3  12
HETATM   12  C3  UNL     1      73.524  12.675  31.641  1.00  0.00     0.317 C 
HETATM   13  O2  UNL     1      72.779  12.891  30.664  1.00  0.00    -0.262 OA
HETATM   14  N5  UNL     1      74.576  13.572  31.900  1.00  0.00    -0.297 N 
ATOM     15  H5  UNL     1      74.741  14.328  31.235  1.00  0.00     0.171 HD
BRANCH  14  16
HETATM   16  C4  UNL     1      75.339  13.490  32.928  1.00  0.00     0.355 C 
HETATM   17  O3  UNL     1      75.990  13.906  33.898  1.00  0.00    -0.283 OA
ENDBRANCH  14  16
ENDBRANCH   3  12
TORSDOF 3
ENDMDL
MODEL 2
REMARK VINA RESULT: -6.293350468      2.500      3.185
REMARK  3 active torsions:
REMARK  status: ('A' for Active; 'I' for Inactive)
REMARK       I    between atoms: C1_4  and  N3_6 
REMARK    1  A    between atoms: N3_6  and  N4_8 
REMARK       I    between atoms: N4_8  and  C2_10 
REMARK    2  A    between atoms: C2_10  and  C3_12 
REMARK       I    between atoms: C3_12  and  N5_14 
REMARK    3  A    between atoms: N5_14  and  C4_16 
ROOT
HETATM    1  N4  UNL     1      75.515  10.337  32.071  1.00  0.00    -0.259 N 
ATOM      2  H4  UNL     1      75.757   9.771  32.883  1.00  0.00     0.190 HD
HETATM    3  C2  UNL     1      74.572  11.404  32.244  1.00  0.00     0.328 C 
HETATM    4  O1  UNL     1      74.269  12.112  31.228  1.00  0.00    -0.261 OA
ENDROOT
BRANCH   1   5
HETATM    5  N3  UNL     1      76.112  10.036  30.867  1.00  0.00    -0.271 N 
HETATM    6  C1  UNL     1      76.765   8.831  30.527  1.00  0.00     0.200 C 
HETATM    7  N1  UNL     1      76.125   7.978  29.768  1.00  0.00    -0.372 N 
HETATM    8  N2  UNL     1      78.069   8.479  30.950  1.00  0.00    -0.062 NA
ATOM      9  H12 UNL     1      76.596   7.107  29.523  1.00  0.00     0.158 HD
ATOM     10  H11 UNL     1      75.185   8.232  29.463  1.00  0.00     0.158 HD
ATOM     11  H3  UNL     1      76.079  10.757  30.147  1.00  0.00     0.189 HD
ENDBRANCH   1   5
BRANCH   3  12
HETATM   12  C3  UNL     1      73.957  11.704  33.511  1.00  0.00     0.317 C 
HETATM   13  O2  UNL     1      72.937  11.087  33.880  1.00  0.00    -0.262 OA
HETATM   14  N5  UNL     1      74.489  12.695  34.355  1.00  0.00    -0.297 N 
ATOM     15  H5  UNL     1      73.979  12.928  35.207  1.00  0.00     0.171 HD
BRANCH  14  16
HETATM   16  C4  UNL     1      75.582  13.322  34.110  1.00  0.00     0.355 C 
HETATM   17  O3  UNL     1      76.523  14.098  34.332  1.00  0.00    -0.283 OA
ENDBRANCH  14  16
ENDBRANCH   3  12
TORSDOF 3
ENDMDL
MODEL 3
REMARK VINA RESULT: -6.265268100      2.851      4.630
REMARK  3 active torsions:
REMARK  status: ('A' for Active; 'I' for Inactive)
REMARK       I    between atoms: C1_4  and  N3_6 
REMARK    1  A    between atoms: N3_6  and  N4_8 
REMARK       I    between atoms: N4_8  and  C2_10 
REMARK    2  A    between atoms: C2_10  and  C3_12 
REMARK       I    between atoms: C3_12  and  N5_14 
REMARK    3  A    between atoms: N5_14  and  C4_16 
ROOT
HETATM    1  N4  UNL     1      74.848  11.703  31.375  1.00  0.00    -0.259 N 
ATOM      2  H4  UNL     1      74.224  11.379  30.636  1.00  0.00     0.190 HD
HETATM    3  C2  UNL     1      75.949  10.864  31.748  1.00  0.00     0.328 C 
HETATM    4  O1  UNL     1      76.729  11.268  32.673  1.00  0.00    -0.261 OA
ENDROOT
BRANCH   1   5
HETATM    5  N3  UNL     1      74.587  12.923  31.959  1.00  0.00    -0.271 N 
HETATM    6  C1  UNL     1      74.014  13.144  33.230  1.00  0.00     0.200 C 
HETATM    7  N1  UNL     1      74.810  13.492  34.210  1.00  0.00    -0.372 N 
HETATM    8  N2  UNL     1      72.635  13.018  33.521  1.00  0.00    -0.062 NA
ATOM      9  H12 UNL     1      74.396  13.651  35.129  1.00  0.00     0.158 HD
ATOM     10  H11 UNL     1      75.804  13.583  34.000  1.00  0.00     0.158 HD
ATOM     11  H3  UNL     1      74.833  13.751  31.417  1.00  0.00     0.189 HD
ENDBRANCH   1   5
BRANCH   3  12
HETATM   12  C3  UNL     1      76.207   9.591  31.127  1.00  0.00     0.317 C 
HETATM   13  O2  UNL     1      77.071   9.487  30.233  1.00  0.00    -0.262 OA
HETATM   14  N5  UNL     1      75.491   8.442  31.511  1.00  0.00    -0.297 N 
ATOM     15  H5  UNL     1      75.650   7.579  30.992  1.00  0.00     0.171 HD
BRANCH  14  16
HETATM   16  C4  UNL     1      74.648   8.424  32.478  1.00  0.00     0.355 C 
HETATM   17  O3  UNL     1      73.569   8.632  33.051  1.00  0.00    -0.283 OA
ENDBRANCH  14  16
ENDBRANCH   3  12
TORSDOF 3
ENDMDL
MODEL 4
REMARK VINA RESULT: -6.223858144      2.863      3.863
REMARK  3 active torsions:
REMARK  status: ('A' for Active; 'I' for Inactive)
REMARK       I    between atoms: C1_4  and  N3_6 
REMARK    1  A    between atoms: N3_6  and  N4_8 
REMARK       I    between atoms: N4_8  and  C2_10 
REMARK    2  A    between atoms: C2_10  and  C3_12 
REMARK       I    between atoms: C3_12  and  N5_14 
REMARK    3  A    between atoms: N5_14  and  C4_16 
ROOT
HETATM    1  N4  UNL     1      76.194  10.396  32.063  1.00  0.00    -0.259 N 
ATOM      2  H4  UNL     1      76.424   9.753  32.821  1.00  0.00     0.190 HD
HETATM    3  C2  UNL     1      75.928  11.766  32.394  1.00  0.00     0.328 C 
HETATM    4  O1  UNL     1      75.640  12.570  31.446  1.00  0.00    -0.261 OA
ENDROOT
BRANCH   1   5
HETATM    5  N3  UNL     1      76.156   9.900  30.779  1.00  0.00    -0.271 N 
HETATM    6  C1  UNL     1      76.678   8.666  30.335  1.00  0.00     0.200 C 
HETATM    7  N1  UNL     1      75.838   7.683  30.125  1.00  0.00    -0.372 N 
HETATM    8  N2  UNL     1      78.050   8.414  30.100  1.00  0.00    -0.062 NA
ATOM      9  H12 UNL     1      76.215   6.791  29.805  1.00  0.00     0.158 HD
ATOM     10  H11 UNL     1      74.849   7.865  30.295  1.00  0.00     0.158 HD
ATOM     11  H3  UNL     1      75.704  10.485  30.076  1.00  0.00     0.189 HD
ENDBRANCH   1   5
BRANCH   3  12
HETATM   12  C3  UNL     1      75.972  12.266  33.743  1.00  0.00     0.317 C 
HETATM   13  O2  UNL     1      77.037  12.242  34.391  1.00  0.00    -0.262 OA
HETATM   14  N5  UNL     1      74.819  12.789  34.357  1.00  0.00    -0.297 N 
ATOM     15  H5  UNL     1      74.876  13.062  35.338  1.00  0.00     0.171 HD
BRANCH  14  16
HETATM   16  C4  UNL     1      73.700  12.942  33.748  1.00  0.00     0.355 C 
HETATM   17  O3  UNL     1      72.468  12.920  33.608  1.00  0.00    -0.283 OA
ENDBRANCH  14  16
ENDBRANCH   3  12
TORSDOF 3
ENDMDL
MODEL 5
REMARK VINA RESULT: -6.207788443      2.970      4.703
REMARK  3 active torsions:
REMARK  status: ('A' for Active; 'I' for Inactive)
REMARK       I    between atoms: C1_4  and  N3_6 
REMARK    1  A    between atoms: N3_6  and  N4_8 
REMARK       I    between atoms: N4_8  and  C2_10 
REMARK    2  A    between atoms: C2_10  and  C3_12 
REMARK       I    between atoms: C3_12  and  N5_14 
REMARK    3  A    between atoms: N5_14  and  C4_16 
ROOT
HETATM    1  N4  UNL     1      74.703   9.817  31.826  1.00  0.00    -0.259 N 
ATOM      2  H4  UNL     1      73.953   9.590  31.173  1.00  0.00     0.190 HD
HETATM    3  C2  UNL     1      74.381   9.910  33.221  1.00  0.00     0.328 C 
HETATM    4  O1  UNL     1      75.318  10.195  34.037  1.00  0.00    -0.261 OA
ENDROOT
BRANCH   1   5
HETATM    5  N3  UNL     1      75.968  10.018  31.320  1.00  0.00    -0.271 N 
HETATM    6  C1  UNL     1      76.801   9.047  30.722  1.00  0.00     0.200 C 
HETATM    7  N1  UNL     1      76.903   9.046  29.416  1.00  0.00    -0.372 N 
HETATM    8  N2  UNL     1      77.538   8.074  31.436  1.00  0.00    -0.062 NA
ATOM      9  H12 UNL     1      77.504   8.345  28.984  1.00  0.00     0.158 HD
ATOM     10  H11 UNL     1      76.371   9.748  28.902  1.00  0.00     0.158 HD
ATOM     11  H3  UNL     1      76.341  10.965  31.384  1.00  0.00     0.189 HD
ENDBRANCH   1   5
BRANCH   3  12
HETATM   12  C3  UNL     1      73.052   9.697  33.731  1.00  0.00     0.317 C 
HETATM   13  O2  UNL     1      72.216  10.622  33.723  1.00  0.00    -0.262 OA
HETATM   14  N5  UNL     1      72.670   8.446  34.249  1.00  0.00    -0.297 N 
ATOM     15  H5  UNL     1      71.745   8.360  34.670  1.00  0.00     0.171 HD
BRANCH  14  16
HETATM   16  C4  UNL     1      73.423   7.408  34.220  1.00  0.00     0.355 C 
HETATM   17  O3  UNL     1      73.773   6.265  33.891  1.00  0.00    -0.283 OA
ENDBRANCH  14  16
ENDBRANCH   3  12
TORSDOF 3
ENDMDL
