MODEL 1
REMARK VINA RESULT: -8.722347876      0.000      0.000
REMARK  11 active torsions:
REMARK  status: ('A' for Active; 'I' for Inactive)
REMARK    1  A    between atoms: C1_2  and  C2_4 
REMARK    2  A    between atoms: C5_12  and  N4_13 
REMARK    3  A    between atoms: N5_16  and  C8_17 
REMARK    4  A    between atoms: C8_17  and  C9_18 
REMARK    5  A    between atoms: C9_18  and  C10_19 
REMARK    6  A    between atoms: C10_19  and  C11_20 
REMARK    7  A    between atoms: N6_22  and  C13_23 
REMARK    8  A    between atoms: C13_23  and  C14_24 
REMARK    9  A    between atoms: C15_27  and  O3_28 
REMARK   10  A    between atoms: C16_30  and  O4_31 
REMARK   11  A    between atoms: C17_33  and  O5_34 
ROOT
HETATM    1  N4  UNL     1       4.260  20.256  20.664  1.00  0.00    -0.189 N 
HETATM    2  C6  UNL     1       3.945  21.554  21.277  1.00  0.00     0.173 C 
HETATM    3  C7  UNL     1       4.741  21.396  22.557  1.00  0.00     0.295 C 
HETATM    4  N5  UNL     1       4.504  19.996  22.973  1.00  0.00     0.107 N 
HETATM    5  C18 UNL     1       4.471  19.284  21.701  1.00  0.00     0.414 C 
ENDROOT
BRANCH   4   6
HETATM    6  C8  UNL     1       3.189  19.999  23.544  1.00  0.00     0.275 C 
BRANCH   6   7
HETATM    7  C9  UNL     1       2.826  18.848  24.419  1.00  0.00     0.036 C 
BRANCH   7   8
HETATM    8  C10 UNL     1       1.463  18.293  24.095  1.00  0.00     0.061 C 
BRANCH   8   9
HETATM    9  C11 UNL     1       0.792  18.990  22.977  1.00  0.00     0.040 A 
HETATM   10  C12 UNL     1       0.958  18.656  21.619  1.00  0.00     0.134 A 
HETATM   11  N6  UNL     1       0.252  19.471  20.854  1.00  0.00    -0.283 N 
HETATM   12  N9  UNL     1      -0.365  20.320  21.677  1.00  0.00    -0.020 NA
HETATM   13  N10 UNL     1      -0.043  20.034  22.951  1.00  0.00    -0.287 N 
ATOM     14  H10 UNL     1      -0.384  20.535  23.771  1.00  0.00     0.184 HD
BRANCH  11  15
HETATM   15  C13 UNL     1       0.185  19.440  19.404  1.00  0.00     0.171 C 
BRANCH  15  16
HETATM   16  C14 UNL     1      -1.180  19.808  18.932  1.00  0.00     0.146 C 
HETATM   17  N7  UNL     1      -2.092  18.687  19.199  1.00  0.00    -0.137 NA
HETATM   18  N8  UNL     1      -2.350  17.978  18.034  1.00  0.00    -0.113 NA
HETATM   19  C15 UNL     1      -3.125  18.693  17.061  1.00  0.00     0.258 C 
HETATM   20  C16 UNL     1      -2.759  20.183  17.139  1.00  0.00     0.194 C 
HETATM   21  C17 UNL     1      -1.253  20.178  17.464  1.00  0.00     0.173 C 
BRANCH  19  22
HETATM   22  O3  UNL     1      -4.468  18.466  17.250  1.00  0.00    -0.376 OA
ATOM     23  H3  UNL     1      -4.633  17.544  17.407  1.00  0.00     0.211 HD
ENDBRANCH  19  22
BRANCH  20  24
HETATM   24  O4  UNL     1      -2.945  20.781  15.920  1.00  0.00    -0.389 OA
ATOM     25  H4  UNL     1      -2.735  20.173  15.222  1.00  0.00     0.210 HD
ENDBRANCH  20  24
BRANCH  21  26
HETATM   26  O5  UNL     1      -0.703  19.183  16.637  1.00  0.00    -0.391 OA
ATOM     27  H5  UNL     1      -0.013  19.520  16.078  1.00  0.00     0.210 HD
ENDBRANCH  21  26
ENDBRANCH  15  16
ENDBRANCH  11  15
ENDBRANCH   8   9
ENDBRANCH   7   8
ENDBRANCH   6   7
ENDBRANCH   4   6
BRANCH   1  28
HETATM   28  C5  UNL     1       4.332  20.064  19.277  1.00  0.00     0.687 C 
HETATM   29  N3  UNL     1       3.993  18.860  18.733  1.00  0.00    -0.154 N 
HETATM   30  C4  UNL     1       3.336  18.681  17.547  1.00  0.00     0.288 C 
ATOM     31  H3  UNL     1       4.252  18.022  19.256  1.00  0.00     0.187 HD
HETATM   32  C3  UNL     1       2.873  19.641  16.648  1.00  0.00     0.136 A 
HETATM   33  O2  UNL     1       3.102  17.498  17.189  1.00  0.00    -0.265 OA
HETATM   34  N2  UNL     1       1.925  19.475  15.716  1.00  0.00    -0.332 N 
HETATM   35  C20 UNL     1       3.279  20.967  16.526  1.00  0.00     0.136 A 
HETATM   36  C2  UNL     1       1.722  20.629  15.020  1.00  0.00     0.173 A 
ATOM     37  H2  UNL     1       1.423  18.602  15.551  1.00  0.00     0.168 HD
HETATM   38  N12 UNL     1       2.577  21.548  15.541  1.00  0.00    -0.332 N 
ATOM     39  H12 UNL     1       2.670  22.516  15.234  1.00  0.00     0.168 HD
HETATM   40  C19 UNL     1       4.258  21.556  17.325  1.00  0.00     0.288 C 
HETATM   41  N11 UNL     1       4.731  21.127  18.512  1.00  0.00    -0.154 N 
HETATM   42  O6  UNL     1       4.717  22.613  16.827  1.00  0.00    -0.265 OA
ATOM     43  H11 UNL     1       5.500  21.675  18.897  1.00  0.00     0.187 HD
BRANCH  36  44
HETATM   44  C1  UNL     1       0.762  20.833  13.939  1.00  0.00     0.298 C 
HETATM   45  N1  UNL     1      -0.441  21.514  14.234  1.00  0.00    -0.054 NA
HETATM   46  O1  UNL     1       1.050  20.394  12.794  1.00  0.00    -0.268 OA
ENDBRANCH  36  44
ENDBRANCH   1  28
TORSDOF 11
ENDMDL
MODEL 2
REMARK VINA RESULT: -8.194514228      1.060      1.445
REMARK  11 active torsions:
REMARK  status: ('A' for Active; 'I' for Inactive)
REMARK    1  A    between atoms: C1_2  and  C2_4 
REMARK    2  A    between atoms: C5_12  and  N4_13 
REMARK    3  A    between atoms: N5_16  and  C8_17 
REMARK    4  A    between atoms: C8_17  and  C9_18 
REMARK    5  A    between atoms: C9_18  and  C10_19 
REMARK    6  A    between atoms: C10_19  and  C11_20 
REMARK    7  A    between atoms: N6_22  and  C13_23 
REMARK    8  A    between atoms: C13_23  and  C14_24 
REMARK    9  A    between atoms: C15_27  and  O3_28 
REMARK   10  A    between atoms: C16_30  and  O4_31 
REMARK   11  A    between atoms: C17_33  and  O5_34 
ROOT
HETATM    1  N4  UNL     1       4.404  20.223  20.539  1.00  0.00    -0.189 N 
HETATM    2  C6  UNL     1       4.380  21.548  21.176  1.00  0.00     0.173 C 
HETATM    3  C7  UNL     1       5.149  21.203  22.436  1.00  0.00     0.295 C 
HETATM    4  N5  UNL     1       4.632  19.877  22.838  1.00  0.00     0.107 N 
HETATM    5  C18 UNL     1       4.426  19.210  21.557  1.00  0.00     0.414 C 
ENDROOT
BRANCH   4   6
HETATM    6  C8  UNL     1       3.358  20.144  23.438  1.00  0.00     0.275 C 
BRANCH   6   7
HETATM    7  C9  UNL     1       2.866  19.167  24.451  1.00  0.00     0.036 C 
BRANCH   7   8
HETATM    8  C10 UNL     1       1.414  18.820  24.250  1.00  0.00     0.061 C 
BRANCH   8   9
HETATM    9  C11 UNL     1       1.006  18.785  22.829  1.00  0.00     0.040 A 
HETATM   10  C12 UNL     1       0.366  19.847  22.161  1.00  0.00     0.134 A 
HETATM   11  N6  UNL     1       0.103  19.512  20.909  1.00  0.00    -0.283 N 
HETATM   12  N9  UNL     1       0.556  18.268  20.749  1.00  0.00    -0.020 NA
HETATM   13  N10 UNL     1       1.099  17.829  21.899  1.00  0.00    -0.287 N 
ATOM     14  H10 UNL     1       1.517  16.910  22.039  1.00  0.00     0.184 HD
BRANCH  11  15
HETATM   15  C13 UNL     1      -0.560  20.345  19.921  1.00  0.00     0.171 C 
BRANCH  15  16
HETATM   16  C14 UNL     1      -0.766  19.593  18.652  1.00  0.00     0.146 C 
HETATM   17  N7  UNL     1      -0.667  20.531  17.524  1.00  0.00    -0.137 NA
HETATM   18  N8  UNL     1      -1.928  20.847  17.038  1.00  0.00    -0.113 NA
HETATM   19  C15 UNL     1      -2.605  19.761  16.389  1.00  0.00     0.258 C 
HETATM   20  C16 UNL     1      -2.219  18.451  17.092  1.00  0.00     0.194 C 
HETATM   21  C17 UNL     1      -2.085  18.850  18.574  1.00  0.00     0.173 C 
BRANCH  19  22
HETATM   22  O3  UNL     1      -2.319  19.746  15.045  1.00  0.00    -0.376 OA
ATOM     23  H3  UNL     1      -1.701  19.053  14.842  1.00  0.00     0.211 HD
ENDBRANCH  19  22
BRANCH  20  24
HETATM   24  O4  UNL     1      -3.231  17.534  16.972  1.00  0.00    -0.389 OA
ATOM     25  H4  UNL     1      -3.190  17.109  16.124  1.00  0.00     0.210 HD
ENDBRANCH  20  24
BRANCH  21  26
HETATM   26  O5  UNL     1      -3.184  19.690  18.827  1.00  0.00    -0.391 OA
ATOM     27  H5  UNL     1      -3.907  19.526  18.232  1.00  0.00     0.210 HD
ENDBRANCH  21  26
ENDBRANCH  15  16
ENDBRANCH  11  15
ENDBRANCH   8   9
ENDBRANCH   7   8
ENDBRANCH   6   7
ENDBRANCH   4   6
BRANCH   1  28
HETATM   28  C5  UNL     1       4.409  20.046  19.147  1.00  0.00     0.687 C 
HETATM   29  N3  UNL     1       4.007  18.859  18.607  1.00  0.00    -0.154 N 
HETATM   30  C4  UNL     1       3.292  18.716  17.450  1.00  0.00     0.288 C 
ATOM     31  H3  UNL     1       4.261  18.008  19.109  1.00  0.00     0.187 HD
HETATM   32  C3  UNL     1       2.821  19.701  16.583  1.00  0.00     0.136 A 
HETATM   33  O2  UNL     1       3.003  17.545  17.090  1.00  0.00    -0.265 OA
HETATM   34  N2  UNL     1       1.828  19.576  15.692  1.00  0.00    -0.332 N 
HETATM   35  C20 UNL     1       3.265  21.014  16.456  1.00  0.00     0.136 A 
HETATM   36  C2  UNL     1       1.632  20.744  15.018  1.00  0.00     0.173 A 
ATOM     37  H2  UNL     1       1.290  18.722  15.540  1.00  0.00     0.168 HD
HETATM   38  N12 UNL     1       2.539  21.629  15.509  1.00  0.00    -0.332 N 
ATOM     39  H12 UNL     1       2.650  22.597  15.209  1.00  0.00     0.168 HD
HETATM   40  C19 UNL     1       4.296  21.562  17.216  1.00  0.00     0.288 C 
HETATM   41  N11 UNL     1       4.808  21.104  18.377  1.00  0.00    -0.154 N 
HETATM   42  O6  UNL     1       4.767  22.610  16.709  1.00  0.00    -0.265 OA
ATOM     43  H11 UNL     1       5.611  21.622  18.733  1.00  0.00     0.187 HD
BRANCH  36  44
HETATM   44  C1  UNL     1       0.632  20.992  13.983  1.00  0.00     0.298 C 
HETATM   45  N1  UNL     1      -0.397  21.921  14.258  1.00  0.00    -0.054 NA
HETATM   46  O1  UNL     1       0.733  20.367  12.893  1.00  0.00    -0.268 OA
ENDBRANCH  36  44
ENDBRANCH   1  28
TORSDOF 11
ENDMDL
MODEL 3
REMARK VINA RESULT: -8.172512584      1.545      1.923
REMARK  11 active torsions:
REMARK  status: ('A' for Active; 'I' for Inactive)
REMARK    1  A    between atoms: C1_2  and  C2_4 
REMARK    2  A    between atoms: C5_12  and  N4_13 
REMARK    3  A    between atoms: N5_16  and  C8_17 
REMARK    4  A    between atoms: C8_17  and  C9_18 
REMARK    5  A    between atoms: C9_18  and  C10_19 
REMARK    6  A    between atoms: C10_19  and  C11_20 
REMARK    7  A    between atoms: N6_22  and  C13_23 
REMARK    8  A    between atoms: C13_23  and  C14_24 
REMARK    9  A    between atoms: C15_27  and  O3_28 
REMARK   10  A    between atoms: C16_30  and  O4_31 
REMARK   11  A    between atoms: C17_33  and  O5_34 
ROOT
HETATM    1  N4  UNL     1       3.892  19.985  20.584  1.00  0.00    -0.189 N 
HETATM    2  C6  UNL     1       4.732  20.852  21.424  1.00  0.00     0.173 C 
HETATM    3  C7  UNL     1       4.753  19.997  22.675  1.00  0.00     0.295 C 
HETATM    4  N5  UNL     1       3.368  19.494  22.808  1.00  0.00     0.107 N 
HETATM    5  C18 UNL     1       2.978  19.260  21.422  1.00  0.00     0.414 C 
ENDROOT
BRANCH   4   6
HETATM    6  C8  UNL     1       2.620  20.602  23.325  1.00  0.00     0.275 C 
BRANCH   6   7
HETATM    7  C9  UNL     1       1.137  20.541  23.196  1.00  0.00     0.036 C 
BRANCH   7   8
HETATM    8  C10 UNL     1       0.550  21.846  22.724  1.00  0.00     0.061 C 
BRANCH   8   9
HETATM    9  C11 UNL     1       0.665  22.051  21.265  1.00  0.00     0.040 A 
HETATM   10  C12 UNL     1      -0.269  21.581  20.321  1.00  0.00     0.134 A 
HETATM   11  N6  UNL     1       0.116  21.895  19.095  1.00  0.00    -0.283 N 
HETATM   12  N9  UNL     1       1.267  22.555  19.220  1.00  0.00    -0.020 NA
HETATM   13  N10 UNL     1       1.599  22.652  20.520  1.00  0.00    -0.287 N 
ATOM     14  H10 UNL     1       2.434  23.111  20.882  1.00  0.00     0.184 HD
BRANCH  11  15
HETATM   15  C13 UNL     1      -0.587  21.566  17.867  1.00  0.00     0.171 C 
BRANCH  15  16
HETATM   16  C14 UNL     1      -1.408  20.335  18.045  1.00  0.00     0.146 C 
HETATM   17  N7  UNL     1      -0.671  19.190  17.491  1.00  0.00    -0.137 NA
HETATM   18  N8  UNL     1      -1.183  18.833  16.251  1.00  0.00    -0.113 NA
HETATM   19  C15 UNL     1      -2.503  18.273  16.291  1.00  0.00     0.258 C 
HETATM   20  C16 UNL     1      -3.291  18.951  17.422  1.00  0.00     0.194 C 
HETATM   21  C17 UNL     1      -2.781  20.406  17.409  1.00  0.00     0.173 C 
BRANCH  19  22
HETATM   22  O3  UNL     1      -2.446  16.907  16.430  1.00  0.00    -0.376 OA
ATOM     23  H3  UNL     1      -2.989  16.621  17.156  1.00  0.00     0.211 HD
ENDBRANCH  19  22
BRANCH  20  24
HETATM   24  O4  UNL     1      -4.630  18.951  17.133  1.00  0.00    -0.389 OA
ATOM     25  H4  UNL     1      -5.114  18.511  17.822  1.00  0.00     0.210 HD
ENDBRANCH  20  24
BRANCH  21  26
HETATM   26  O5  UNL     1      -2.720  20.759  16.049  1.00  0.00    -0.391 OA
ATOM     27  H5  UNL     1      -3.570  20.708  15.626  1.00  0.00     0.210 HD
ENDBRANCH  21  26
ENDBRANCH  15  16
ENDBRANCH  11  15
ENDBRANCH   8   9
ENDBRANCH   7   8
ENDBRANCH   6   7
ENDBRANCH   4   6
BRANCH   1  28
HETATM   28  C5  UNL     1       4.019  19.921  19.189  1.00  0.00     0.687 C 
HETATM   29  N3  UNL     1       3.789  18.746  18.534  1.00  0.00    -0.154 N 
HETATM   30  C4  UNL     1       3.182  18.622  17.315  1.00  0.00     0.288 C 
ATOM     31  H3  UNL     1       4.097  17.888  18.993  1.00  0.00     0.187 HD
HETATM   32  C3  UNL     1       2.672  19.620  16.485  1.00  0.00     0.136 A 
HETATM   33  O2  UNL     1       3.050  17.460  16.851  1.00  0.00    -0.265 OA
HETATM   34  N2  UNL     1       1.766  19.465  15.509  1.00  0.00    -0.332 N 
HETATM   35  C20 UNL     1       2.978  20.977  16.489  1.00  0.00     0.136 A 
HETATM   36  C2  UNL     1       1.495  20.656  14.906  1.00  0.00     0.173 A 
ATOM     37  H2  UNL     1       1.338  18.575  15.253  1.00  0.00     0.168 HD
HETATM   38  N12 UNL     1       2.261  21.588  15.532  1.00  0.00    -0.332 N 
ATOM     39  H12 UNL     1       2.287  22.583  15.312  1.00  0.00     0.168 HD
HETATM   40  C19 UNL     1       3.884  21.566  17.368  1.00  0.00     0.288 C 
HETATM   41  N11 UNL     1       4.356  21.072  18.531  1.00  0.00    -0.154 N 
HETATM   42  O6  UNL     1       4.274  22.694  16.977  1.00  0.00    -0.265 OA
ATOM     43  H11 UNL     1       5.069  21.641  18.988  1.00  0.00     0.187 HD
BRANCH  36  44
HETATM   44  C1  UNL     1       0.553  20.881  13.813  1.00  0.00     0.298 C 
HETATM   45  N1  UNL     1      -0.575  21.695  14.062  1.00  0.00    -0.054 NA
HETATM   46  O1  UNL     1       0.790  20.340  12.700  1.00  0.00    -0.268 OA
ENDBRANCH  36  44
ENDBRANCH   1  28
TORSDOF 11
ENDMDL
MODEL 4
REMARK VINA RESULT: -8.072651881      1.970      5.133
REMARK  11 active torsions:
REMARK  status: ('A' for Active; 'I' for Inactive)
REMARK    1  A    between atoms: C1_2  and  C2_4 
REMARK    2  A    between atoms: C5_12  and  N4_13 
REMARK    3  A    between atoms: N5_16  and  C8_17 
REMARK    4  A    between atoms: C8_17  and  C9_18 
REMARK    5  A    between atoms: C9_18  and  C10_19 
REMARK    6  A    between atoms: C10_19  and  C11_20 
REMARK    7  A    between atoms: N6_22  and  C13_23 
REMARK    8  A    between atoms: C13_23  and  C14_24 
REMARK    9  A    between atoms: C15_27  and  O3_28 
REMARK   10  A    between atoms: C16_30  and  O4_31 
REMARK   11  A    between atoms: C17_33  and  O5_34 
ROOT
HETATM    1  N4  UNL     1      -1.511  21.146  20.907  1.00  0.00    -0.189 N 
HETATM    2  C6  UNL     1      -2.272  21.542  22.101  1.00  0.00     0.173 C 
HETATM    3  C7  UNL     1      -1.182  22.316  22.814  1.00  0.00     0.295 C 
HETATM    4  N5  UNL     1       0.041  21.507  22.615  1.00  0.00     0.107 N 
HETATM    5  C18 UNL     1      -0.126  21.001  21.257  1.00  0.00     0.414 C 
ENDROOT
BRANCH   4   6
HETATM    6  C8  UNL     1      -0.081  20.419  23.540  1.00  0.00     0.275 C 
BRANCH   6   7
HETATM    7  C9  UNL     1       0.827  19.254  23.344  1.00  0.00     0.036 C 
BRANCH   7   8
HETATM    8  C10 UNL     1       2.178  19.471  23.974  1.00  0.00     0.061 C 
BRANCH   8   9
HETATM    9  C11 UNL     1       3.298  19.398  23.011  1.00  0.00     0.040 A 
HETATM   10  C12 UNL     1       3.140  19.241  21.620  1.00  0.00     0.134 A 
HETATM   11  N6  UNL     1       4.320  19.184  21.026  1.00  0.00    -0.283 N 
HETATM   12  N9  UNL     1       5.233  19.301  21.991  1.00  0.00    -0.020 NA
HETATM   13  N10 UNL     1       4.623  19.430  23.183  1.00  0.00    -0.287 N 
ATOM     14  H10 UNL     1       5.099  19.536  24.078  1.00  0.00     0.184 HD
BRANCH  11  15
HETATM   15  C13 UNL     1       4.554  19.014  19.603  1.00  0.00     0.171 C 
BRANCH  15  16
HETATM   16  C14 UNL     1       3.272  19.087  18.847  1.00  0.00     0.146 C 
HETATM   17  N7  UNL     1       3.092  17.834  18.098  1.00  0.00    -0.137 NA
HETATM   18  N8  UNL     1       3.395  18.020  16.756  1.00  0.00    -0.113 NA
HETATM   19  C15 UNL     1       2.471  18.858  16.048  1.00  0.00     0.258 C 
HETATM   20  C16 UNL     1       1.956  19.942  17.007  1.00  0.00     0.194 C 
HETATM   21  C17 UNL     1       3.175  20.261  17.894  1.00  0.00     0.173 C 
BRANCH  19  22
HETATM   22  O3  UNL     1       1.456  18.108  15.502  1.00  0.00    -0.376 OA
ATOM     23  H3  UNL     1       0.661  18.623  15.430  1.00  0.00     0.211 HD
ENDBRANCH  19  22
BRANCH  20  24
HETATM   24  O4  UNL     1       1.614  21.070  16.307  1.00  0.00    -0.389 OA
ATOM     25  H4  UNL     1       2.360  21.390  15.815  1.00  0.00     0.210 HD
ENDBRANCH  20  24
BRANCH  21  26
HETATM   26  O5  UNL     1       4.266  20.320  17.010  1.00  0.00    -0.391 OA
ATOM     27  H5  UNL     1       5.014  20.767  17.389  1.00  0.00     0.210 HD
ENDBRANCH  21  26
ENDBRANCH  15  16
ENDBRANCH  11  15
ENDBRANCH   8   9
ENDBRANCH   7   8
ENDBRANCH   6   7
ENDBRANCH   4   6
BRANCH   1  28
HETATM   28  C5  UNL     1      -2.106  20.960  19.650  1.00  0.00     0.687 C 
HETATM   29  N3  UNL     1      -2.510  22.038  18.918  1.00  0.00    -0.154 N 
HETATM   30  C4  UNL     1      -2.418  22.154  17.558  1.00  0.00     0.288 C 
ATOM     31  H3  UNL     1      -2.916  22.823  19.427  1.00  0.00     0.187 HD
HETATM   32  C3  UNL     1      -1.910  21.241  16.633  1.00  0.00     0.136 A 
HETATM   33  O2  UNL     1      -2.841  23.218  17.038  1.00  0.00    -0.265 OA
HETATM   34  N2  UNL     1      -1.484  21.512  15.392  1.00  0.00    -0.332 N 
HETATM   35  C20 UNL     1      -1.727  19.871  16.793  1.00  0.00     0.136 A 
HETATM   36  C2  UNL     1      -1.047  20.380  14.772  1.00  0.00     0.173 A 
ATOM     37  H2  UNL     1      -1.486  22.440  14.969  1.00  0.00     0.168 HD
HETATM   38  N12 UNL     1      -1.207  19.366  15.664  1.00  0.00    -0.332 N 
ATOM     39  H12 UNL     1      -0.972  18.388  15.501  1.00  0.00     0.168 HD
HETATM   40  C19 UNL     1      -2.041  19.177  17.961  1.00  0.00     0.288 C 
HETATM   41  N11 UNL     1      -2.238  19.676  19.198  1.00  0.00    -0.154 N 
HETATM   42  O6  UNL     1      -2.140  17.939  17.775  1.00  0.00    -0.265 OA
ATOM     43  H11 UNL     1      -2.528  18.995  19.900  1.00  0.00     0.187 HD
BRANCH  36  44
HETATM   44  C1  UNL     1      -0.502  20.285  13.421  1.00  0.00     0.298 C 
HETATM   45  N1  UNL     1       0.897  20.403  13.256  1.00  0.00    -0.054 NA
HETATM   46  O1  UNL     1      -1.302  20.102  12.465  1.00  0.00    -0.268 OA
ENDBRANCH  36  44
ENDBRANCH   1  28
TORSDOF 11
ENDMDL
MODEL 5
REMARK VINA RESULT: -8.025962131      1.771      4.886
REMARK  11 active torsions:
REMARK  status: ('A' for Active; 'I' for Inactive)
REMARK    1  A    between atoms: C1_2  and  C2_4 
REMARK    2  A    between atoms: C5_12  and  N4_13 
REMARK    3  A    between atoms: N5_16  and  C8_17 
REMARK    4  A    between atoms: C8_17  and  C9_18 
REMARK    5  A    between atoms: C9_18  and  C10_19 
REMARK    6  A    between atoms: C10_19  and  C11_20 
REMARK    7  A    between atoms: N6_22  and  C13_23 
REMARK    8  A    between atoms: C13_23  and  C14_24 
REMARK    9  A    between atoms: C15_27  and  O3_28 
REMARK   10  A    between atoms: C16_30  and  O4_31 
REMARK   11  A    between atoms: C17_33  and  O5_34 
ROOT
HETATM    1  N4  UNL     1      -0.012  19.903  21.793  1.00  0.00    -0.189 N 
HETATM    2  C6  UNL     1       1.119  18.975  21.653  1.00  0.00     0.173 C 
HETATM    3  C7  UNL     1       1.103  18.391  23.051  1.00  0.00     0.295 C 
HETATM    4  N5  UNL     1       0.847  19.549  23.936  1.00  0.00     0.107 N 
HETATM    5  C18 UNL     1      -0.091  20.348  23.156  1.00  0.00     0.414 C 
ENDROOT
BRANCH   4   6
HETATM    6  C8  UNL     1       2.101  20.239  24.013  1.00  0.00     0.275 C 
BRANCH   6   7
HETATM    7  C9  UNL     1       3.227  19.530  24.684  1.00  0.00     0.036 C 
BRANCH   7   8
HETATM    8  C10 UNL     1       4.569  20.080  24.281  1.00  0.00     0.061 C 
BRANCH   8   9
HETATM    9  C11 UNL     1       4.719  20.261  22.821  1.00  0.00     0.040 A 
HETATM   10  C12 UNL     1       4.561  19.232  21.873  1.00  0.00     0.134 A 
HETATM   11  N6  UNL     1       4.782  19.691  20.652  1.00  0.00    -0.283 N 
HETATM   12  N9  UNL     1       5.075  20.984  20.784  1.00  0.00    -0.020 NA
HETATM   13  N10 UNL     1       5.037  21.330  22.084  1.00  0.00    -0.287 N 
ATOM     14  H10 UNL     1       5.223  22.264  22.450  1.00  0.00     0.184 HD
BRANCH  11  15
HETATM   15  C13 UNL     1       4.723  18.918  19.424  1.00  0.00     0.171 C 
BRANCH  15  16
HETATM   16  C14 UNL     1       3.550  19.327  18.601  1.00  0.00     0.146 C 
HETATM   17  N7  UNL     1       2.775  18.127  18.253  1.00  0.00    -0.137 NA
HETATM   18  N8  UNL     1       3.020  17.750  16.939  1.00  0.00    -0.113 NA
HETATM   19  C15 UNL     1       2.510  18.660  15.954  1.00  0.00     0.258 C 
HETATM   20  C16 UNL     1       2.608  20.090  16.508  1.00  0.00     0.194 C 
HETATM   21  C17 UNL     1       3.909  20.079  17.335  1.00  0.00     0.173 C 
BRANCH  19  22
HETATM   22  O3  UNL     1       1.229  18.318  15.595  1.00  0.00    -0.376 OA
ATOM     23  H3  UNL     1       1.155  17.378  15.472  1.00  0.00     0.211 HD
ENDBRANCH  19  22
BRANCH  20  24
HETATM   24  O4  UNL     1       2.746  20.987  15.482  1.00  0.00    -0.389 OA
ATOM     25  H4  UNL     1       2.325  21.809  15.706  1.00  0.00     0.210 HD
ENDBRANCH  20  24
BRANCH  21  26
HETATM   26  O5  UNL     1       4.838  19.379  16.546  1.00  0.00    -0.391 OA
ATOM     27  H5  UNL     1       5.175  19.909  15.832  1.00  0.00     0.210 HD
ENDBRANCH  21  26
ENDBRANCH  15  16
ENDBRANCH  11  15
ENDBRANCH   8   9
ENDBRANCH   7   8
ENDBRANCH   6   7
ENDBRANCH   4   6
BRANCH   1  28
HETATM   28  C5  UNL     1      -0.848  20.254  20.722  1.00  0.00     0.687 C 
HETATM   29  N3  UNL     1      -1.045  21.567  20.410  1.00  0.00    -0.154 N 
HETATM   30  C4  UNL     1      -1.166  22.072  19.144  1.00  0.00     0.288 C 
ATOM     31  H3  UNL     1      -1.107  22.227  21.185  1.00  0.00     0.187 HD
HETATM   32  C3  UNL     1      -1.117  21.399  17.923  1.00  0.00     0.136 A 
HETATM   33  O2  UNL     1      -1.346  23.312  19.032  1.00  0.00    -0.265 OA
HETATM   34  N2  UNL     1      -0.859  21.935  16.723  1.00  0.00    -0.332 N 
HETATM   35  C20 UNL     1      -1.316  20.043  17.685  1.00  0.00     0.136 A 
HETATM   36  C2  UNL     1      -0.887  20.981  15.750  1.00  0.00     0.173 A 
ATOM     37  H2  UNL     1      -0.666  22.923  16.560  1.00  0.00     0.168 HD
HETATM   38  N12 UNL     1      -1.175  19.807  16.371  1.00  0.00    -0.332 N 
ATOM     39  H12 UNL     1      -1.267  18.899  15.916  1.00  0.00     0.168 HD
HETATM   40  C19 UNL     1      -1.606  19.113  18.682  1.00  0.00     0.288 C 
HETATM   41  N11 UNL     1      -1.426  19.237  20.012  1.00  0.00    -0.154 N 
HETATM   42  O6  UNL     1      -2.092  18.049  18.224  1.00  0.00    -0.265 OA
ATOM     43  H11 UNL     1      -1.772  18.458  20.572  1.00  0.00     0.187 HD
BRANCH  36  44
HETATM   44  C1  UNL     1      -0.642  21.186  14.326  1.00  0.00     0.298 C 
HETATM   45  N1  UNL     1      -1.583  21.938  13.587  1.00  0.00    -0.054 NA
HETATM   46  O1  UNL     1       0.397  20.683  13.821  1.00  0.00    -0.268 OA
ENDBRANCH  36  44
ENDBRANCH   1  28
TORSDOF 11
ENDMDL
