MODEL 1
REMARK VINA RESULT: -8.242224567      0.000      0.000
REMARK  12 active torsions:
REMARK  status: ('A' for Active; 'I' for Inactive)
REMARK    1  A    between atoms: N1_1  and  C1_4 
REMARK    2  A    between atoms: C3_9  and  C4_10 
REMARK    3  A    between atoms: C4_10  and  C5_12 
REMARK       I    between atoms: C5_12  and  N4_14 
REMARK    4  A    between atoms: N4_14  and  O3_16 
REMARK    5  A    between atoms: O3_16  and  C6_17 
REMARK    6  A    between atoms: C6_17  and  C7_18 
REMARK    7  A    between atoms: C7_18  and  O4_19 
REMARK    8  A    between atoms: O4_19  and  C8_20 
REMARK       I    between atoms: C8_20  and  N5_22 
REMARK    9  A    between atoms: N5_22  and  C9_24 
REMARK   10  A    between atoms: N8_31  and  O6_32 
REMARK   11  A    between atoms: C14_35  and  C15_36 
REMARK   12  A    between atoms: C17_41  and  O9_42 
ROOT
HETATM    1  C8  UNL     1       0.972  18.675  15.401  1.00  0.00     0.367 C 
HETATM    2  O5  UNL     1       0.718  18.177  14.328  1.00  0.00    -0.238 OA
HETATM    3  N5  UNL     1       0.310  19.635  16.122  1.00  0.00    -0.274 N 
ATOM      4  H5  UNL     1       0.820  19.849  16.979  1.00  0.00     0.174 HD
ENDROOT
BRANCH   3   5
HETATM    5  C9  UNL     1      -0.834  20.399  16.044  1.00  0.00     0.189 C 
HETATM    6  N6  UNL     1      -0.965  21.332  15.032  1.00  0.00    -0.360 N 
HETATM    7  C10 UNL     1      -2.223  22.013  15.159  1.00  0.00     0.149 C 
ATOM      8  H6  UNL     1      -0.272  21.510  14.305  1.00  0.00     0.162 HD
HETATM    9  C11 UNL     1      -2.394  21.894  16.694  1.00  0.00     0.129 C 
HETATM   10  C12 UNL     1      -3.786  22.127  17.122  1.00  0.00     0.148 C 
HETATM   11  N10 UNL     1      -2.023  20.459  16.762  1.00  0.00    -0.278 N 
HETATM   12  N7  UNL     1      -4.648  20.994  16.850  1.00  0.00    -0.152 NA
HETATM   13  N8  UNL     1      -5.983  21.389  17.041  1.00  0.00    -0.191 N 
HETATM   14  C17 UNL     1      -4.321  19.870  17.736  1.00  0.00     0.283 C 
HETATM   15  C13 UNL     1      -6.465  21.555  18.371  1.00  0.00     0.158 C 
HETATM   16  C14 UNL     1      -5.807  21.014  19.397  1.00  0.00     0.099 C 
HETATM   17  C16 UNL     1      -4.594  20.270  19.129  1.00  0.00     0.227 C 
HETATM   18  O8  UNL     1      -3.811  19.996  20.098  1.00  0.00    -0.287 OA
HETATM   19  C18 UNL     1      -2.895  19.574  17.434  1.00  0.00     0.287 C 
HETATM   20  O10 UNL     1      -2.419  18.484  17.792  1.00  0.00    -0.267 OA
BRANCH  13  21
HETATM   21  O6  UNL     1      -6.761  21.606  15.974  1.00  0.00    -0.272 OA
ATOM     22  H6  UNL     1      -7.529  22.158  16.063  1.00  0.00     0.246 HD
ENDBRANCH  13  21
BRANCH  16  23
HETATM   23  C15 UNL     1      -6.348  21.221  20.740  1.00  0.00     0.270 C 
HETATM   24  N9  UNL     1      -5.962  22.403  21.459  1.00  0.00    -0.057 NA
HETATM   25  O7  UNL     1      -7.122  20.376  21.219  1.00  0.00    -0.271 OA
ENDBRANCH  16  23
BRANCH  14  26
HETATM   26  O9  UNL     1      -5.144  18.810  17.332  1.00  0.00    -0.360 OA
ATOM     27  H9  UNL     1      -4.793  18.512  16.500  1.00  0.00     0.213 HD
ENDBRANCH  14  26
ENDBRANCH   3   5
BRANCH   1  28
HETATM   28  O4  UNL     1       2.115  18.158  16.001  1.00  0.00    -0.302 OA
BRANCH  28  29
HETATM   29  C7  UNL     1       3.359  18.389  16.314  1.00  0.00     0.209 C 
BRANCH  29  30
HETATM   30  C6  UNL     1       3.973  17.483  17.392  1.00  0.00     0.228 C 
BRANCH  30  31
HETATM   31  O3  UNL     1       4.026  18.442  18.487  1.00  0.00    -0.275 OA
BRANCH  31  32
HETATM   32  N4  UNL     1       2.941  18.477  19.160  1.00  0.00    -0.228 N 
HETATM   33  C5  UNL     1       1.805  19.232  19.380  1.00  0.00     0.317 C 
HETATM   34  O2  UNL     1       1.511  20.305  18.785  1.00  0.00    -0.262 OA
ATOM     35  H4  UNL     1       2.897  17.645  19.749  1.00  0.00     0.198 HD
BRANCH  33  36
HETATM   36  C4  UNL     1       0.844  18.751  20.399  1.00  0.00     0.271 C 
HETATM   37  O1  UNL     1      -0.285  18.306  19.935  1.00  0.00    -0.280 OA
BRANCH  36  38
HETATM   38  C3  UNL     1       1.040  18.734  21.797  1.00  0.00     0.146 A 
HETATM   39  C2  UNL     1       0.322  19.541  22.699  1.00  0.00     0.163 A 
HETATM   40  N2  UNL     1       0.726  19.292  23.938  1.00  0.00    -0.177 N 
HETATM   41  N3  UNL     1      -0.704  20.496  22.372  1.00  0.00    -0.080 NA
HETATM   42  C1  UNL     1       1.678  18.356  23.879  1.00  0.00     0.677 A 
ATOM     43  H2  UNL     1       0.373  19.735  24.786  1.00  0.00     0.185 HD
HETATM   44  N11 UNL     1       1.867  18.019  22.576  1.00  0.00    -0.184 N 
ATOM     45  H11 UNL     1       2.537  17.327  22.240  1.00  0.00     0.184 HD
BRANCH  42  46
HETATM   46  N1  UNL     1       2.328  17.811  24.869  1.00  0.00    -0.234 N 
ATOM     47  H12 UNL     1       3.302  18.019  25.089  1.00  0.00     0.174 HD
ATOM     48  H11 UNL     1       1.989  17.116  25.533  1.00  0.00     0.174 HD
ENDBRANCH  42  46
ENDBRANCH  36  38
ENDBRANCH  33  36
ENDBRANCH  31  32
ENDBRANCH  30  31
ENDBRANCH  29  30
ENDBRANCH  28  29
ENDBRANCH   1  28
TORSDOF 12
ENDMDL
MODEL 2
REMARK VINA RESULT: -8.181946109      2.304      8.435
REMARK  12 active torsions:
REMARK  status: ('A' for Active; 'I' for Inactive)
REMARK    1  A    between atoms: N1_1  and  C1_4 
REMARK    2  A    between atoms: C3_9  and  C4_10 
REMARK    3  A    between atoms: C4_10  and  C5_12 
REMARK       I    between atoms: C5_12  and  N4_14 
REMARK    4  A    between atoms: N4_14  and  O3_16 
REMARK    5  A    between atoms: O3_16  and  C6_17 
REMARK    6  A    between atoms: C6_17  and  C7_18 
REMARK    7  A    between atoms: C7_18  and  O4_19 
REMARK    8  A    between atoms: O4_19  and  C8_20 
REMARK       I    between atoms: C8_20  and  N5_22 
REMARK    9  A    between atoms: N5_22  and  C9_24 
REMARK   10  A    between atoms: N8_31  and  O6_32 
REMARK   11  A    between atoms: C14_35  and  C15_36 
REMARK   12  A    between atoms: C17_41  and  O9_42 
ROOT
HETATM    1  C8  UNL     1      -4.004  20.156  21.021  1.00  0.00     0.367 C 
HETATM    2  O5  UNL     1      -4.542  20.089  22.104  1.00  0.00    -0.238 OA
HETATM    3  N5  UNL     1      -2.691  20.356  20.685  1.00  0.00    -0.274 N 
ATOM      4  H5  UNL     1      -2.587  20.390  19.670  1.00  0.00     0.174 HD
ENDROOT
BRANCH   3   5
HETATM    5  C9  UNL     1      -1.468  20.526  21.297  1.00  0.00     0.189 C 
HETATM    6  N6  UNL     1      -1.410  20.721  22.664  1.00  0.00    -0.360 N 
HETATM    7  C10 UNL     1      -0.042  20.887  23.073  1.00  0.00     0.149 C 
ATOM      8  H6  UNL     1      -2.216  20.744  23.289  1.00  0.00     0.162 HD
HETATM    9  C11 UNL     1       0.517  21.493  21.762  1.00  0.00     0.129 C 
HETATM   10  C12 UNL     1       1.987  21.406  21.687  1.00  0.00     0.148 C 
HETATM   11  N10 UNL     1      -0.147  20.515  20.865  1.00  0.00    -0.278 N 
HETATM   12  N7  UNL     1       2.448  20.069  21.368  1.00  0.00    -0.152 NA
HETATM   13  N8  UNL     1       3.837  20.012  21.572  1.00  0.00    -0.191 N 
HETATM   14  C17 UNL     1       2.126  19.729  19.977  1.00  0.00     0.283 C 
HETATM   15  C13 UNL     1       4.696  20.636  20.622  1.00  0.00     0.158 C 
HETATM   16  C14 UNL     1       4.242  20.943  19.406  1.00  0.00     0.099 C 
HETATM   17  C16 UNL     1       2.863  20.642  19.083  1.00  0.00     0.227 C 
HETATM   18  O8  UNL     1       2.340  21.178  18.050  1.00  0.00    -0.287 OA
HETATM   19  C18 UNL     1       0.645  19.841  19.910  1.00  0.00     0.287 C 
HETATM   20  O10 UNL     1       0.045  19.317  18.956  1.00  0.00    -0.267 OA
BRANCH  13  21
HETATM   21  O6  UNL     1       4.315  19.384  22.654  1.00  0.00    -0.272 OA
ATOM     22  H6  UNL     1       3.991  18.518  22.869  1.00  0.00     0.246 HD
ENDBRANCH  13  21
BRANCH  16  23
HETATM   23  C15 UNL     1       5.169  21.585  18.474  1.00  0.00     0.270 C 
HETATM   24  N9  UNL     1       5.602  20.845  17.322  1.00  0.00    -0.057 NA
HETATM   25  O7  UNL     1       5.553  22.743  18.701  1.00  0.00    -0.271 OA
ENDBRANCH  16  23
BRANCH  14  26
HETATM   26  O9  UNL     1       2.531  18.398  19.804  1.00  0.00    -0.360 OA
ATOM     27  H9  UNL     1       2.887  18.123  20.641  1.00  0.00     0.213 HD
ENDBRANCH  14  26
ENDBRANCH   3   5
BRANCH   1  28
HETATM   28  O4  UNL     1      -4.875  19.970  19.953  1.00  0.00    -0.302 OA
BRANCH  28  29
HETATM   29  C7  UNL     1      -5.956  20.400  19.364  1.00  0.00     0.209 C 
BRANCH  29  30
HETATM   30  C6  UNL     1      -6.123  20.027  17.884  1.00  0.00     0.228 C 
BRANCH  30  31
HETATM   31  O3  UNL     1      -5.096  18.998  17.794  1.00  0.00    -0.275 OA
BRANCH  31  32
HETATM   32  N4  UNL     1      -4.077  19.379  17.125  1.00  0.00    -0.228 N 
HETATM   33  C5  UNL     1      -2.831  18.973  16.689  1.00  0.00     0.317 C 
HETATM   34  O2  UNL     1      -2.319  17.837  16.886  1.00  0.00    -0.262 OA
ATOM     35  H4  UNL     1      -4.246  20.328  16.789  1.00  0.00     0.198 HD
BRANCH  33  36
HETATM   36  C4  UNL     1      -2.016  19.947  15.926  1.00  0.00     0.271 C 
HETATM   37  O1  UNL     1      -2.616  21.057  15.620  1.00  0.00    -0.280 OA
BRANCH  36  38
HETATM   38  C3  UNL     1      -0.677  19.780  15.513  1.00  0.00     0.146 A 
HETATM   39  C2  UNL     1      -0.234  19.976  14.191  1.00  0.00     0.163 A 
HETATM   40  N2  UNL     1       1.071  19.750  14.121  1.00  0.00    -0.177 N 
HETATM   41  N3  UNL     1      -1.038  20.367  13.063  1.00  0.00    -0.080 NA
HETATM   42  C1  UNL     1       1.496  19.414  15.342  1.00  0.00     0.677 A 
ATOM     43  H2  UNL     1       1.648  19.821  13.283  1.00  0.00     0.185 HD
HETATM   44  N11 UNL     1       0.431  19.433  16.187  1.00  0.00    -0.184 N 
ATOM     45  H11 UNL     1       0.469  19.215  17.182  1.00  0.00     0.184 HD
BRANCH  42  46
HETATM   46  N1  UNL     1       2.713  19.131  15.717  1.00  0.00    -0.234 N 
ATOM     47  H12 UNL     1       3.045  18.182  15.888  1.00  0.00     0.174 HD
ATOM     48  H11 UNL     1       3.476  19.779  15.905  1.00  0.00     0.174 HD
ENDBRANCH  42  46
ENDBRANCH  36  38
ENDBRANCH  33  36
ENDBRANCH  31  32
ENDBRANCH  30  31
ENDBRANCH  29  30
ENDBRANCH  28  29
ENDBRANCH   1  28
TORSDOF 12
ENDMDL
MODEL 3
REMARK VINA RESULT: -8.006998136      2.137      6.575
REMARK  12 active torsions:
REMARK  status: ('A' for Active; 'I' for Inactive)
REMARK    1  A    between atoms: N1_1  and  C1_4 
REMARK    2  A    between atoms: C3_9  and  C4_10 
REMARK    3  A    between atoms: C4_10  and  C5_12 
REMARK       I    between atoms: C5_12  and  N4_14 
REMARK    4  A    between atoms: N4_14  and  O3_16 
REMARK    5  A    between atoms: O3_16  and  C6_17 
REMARK    6  A    between atoms: C6_17  and  C7_18 
REMARK    7  A    between atoms: C7_18  and  O4_19 
REMARK    8  A    between atoms: O4_19  and  C8_20 
REMARK       I    between atoms: C8_20  and  N5_22 
REMARK    9  A    between atoms: N5_22  and  C9_24 
REMARK   10  A    between atoms: N8_31  and  O6_32 
REMARK   11  A    between atoms: C14_35  and  C15_36 
REMARK   12  A    between atoms: C17_41  and  O9_42 
ROOT
HETATM    1  C8  UNL     1       0.791  19.000  14.282  1.00  0.00     0.367 C 
HETATM    2  O5  UNL     1       1.063  17.895  13.868  1.00  0.00    -0.238 OA
HETATM    3  N5  UNL     1       1.239  19.678  15.386  1.00  0.00    -0.274 N 
ATOM      4  H5  UNL     1       0.777  20.585  15.455  1.00  0.00     0.174 HD
ENDROOT
BRANCH   3   5
HETATM    5  C9  UNL     1       2.122  19.511  16.430  1.00  0.00     0.189 C 
HETATM    6  N6  UNL     1       3.435  19.168  16.165  1.00  0.00    -0.360 N 
HETATM    7  C10 UNL     1       4.160  19.034  17.398  1.00  0.00     0.149 C 
ATOM      8  H6  UNL     1       3.830  19.030  15.235  1.00  0.00     0.162 HD
HETATM    9  C11 UNL     1       2.983  18.610  18.311  1.00  0.00     0.129 C 
HETATM   10  C12 UNL     1       3.292  18.788  19.742  1.00  0.00     0.148 C 
HETATM   11  N10 UNL     1       2.043  19.643  17.811  1.00  0.00    -0.278 N 
HETATM   12  N7  UNL     1       3.227  20.176  20.156  1.00  0.00    -0.152 NA
HETATM   13  N8  UNL     1       3.781  20.288  21.443  1.00  0.00    -0.191 N 
HETATM   14  C17 UNL     1       1.838  20.651  20.160  1.00  0.00     0.283 C 
HETATM   15  C13 UNL     1       3.026  19.823  22.557  1.00  0.00     0.158 C 
HETATM   16  C14 UNL     1       1.711  19.628  22.443  1.00  0.00     0.099 C 
HETATM   17  C16 UNL     1       1.079  19.886  21.167  1.00  0.00     0.227 C 
HETATM   18  O8  UNL     1      -0.098  19.440  20.960  1.00  0.00    -0.287 OA
HETATM   19  C18 UNL     1       1.387  20.464  18.756  1.00  0.00     0.287 C 
HETATM   20  O10 UNL     1       0.366  21.056  18.368  1.00  0.00    -0.267 OA
BRANCH  13  21
HETATM   21  O6  UNL     1       5.003  20.817  21.586  1.00  0.00    -0.272 OA
ATOM     22  H6  UNL     1       5.096  21.660  22.013  1.00  0.00     0.246 HD
ENDBRANCH  13  21
BRANCH  16  23
HETATM   23  C15 UNL     1       0.989  19.147  23.621  1.00  0.00     0.270 C 
HETATM   24  N9  UNL     1       1.413  17.917  24.229  1.00  0.00    -0.057 NA
HETATM   25  O7  UNL     1       0.037  19.811  24.062  1.00  0.00    -0.271 OA
ENDBRANCH  16  23
BRANCH  14  26
HETATM   26  O9  UNL     1       1.899  22.013  20.484  1.00  0.00    -0.360 OA
ATOM     27  H9  UNL     1       1.379  22.116  21.273  1.00  0.00     0.213 HD
ENDBRANCH  14  26
ENDBRANCH   3   5
BRANCH   1  28
HETATM   28  O4  UNL     1      -0.106  19.692  13.477  1.00  0.00    -0.302 OA
BRANCH  28  29
HETATM   29  C7  UNL     1      -0.547  20.869  13.129  1.00  0.00     0.209 C 
BRANCH  29  30
HETATM   30  C6  UNL     1      -1.778  21.390  13.885  1.00  0.00     0.228 C 
BRANCH  30  31
HETATM   31  O3  UNL     1      -1.183  21.537  15.206  1.00  0.00    -0.275 OA
BRANCH  31  32
HETATM   32  N4  UNL     1      -1.881  20.983  16.122  1.00  0.00    -0.228 N 
HETATM   33  C5  UNL     1      -2.201  19.758  16.673  1.00  0.00     0.317 C 
HETATM   34  O2  UNL     1      -1.724  18.646  16.317  1.00  0.00    -0.262 OA
ATOM     35  H4  UNL     1      -2.384  21.710  16.630  1.00  0.00     0.198 HD
BRANCH  33  36
HETATM   36  C4  UNL     1      -3.188  19.736  17.777  1.00  0.00     0.271 C 
HETATM   37  O1  UNL     1      -4.231  18.988  17.577  1.00  0.00    -0.280 OA
BRANCH  36  38
HETATM   38  C3  UNL     1      -3.099  20.438  18.999  1.00  0.00     0.146 A 
HETATM   39  C2  UNL     1      -3.420  21.801  19.144  1.00  0.00     0.163 A 
HETATM   40  N2  UNL     1      -3.243  22.167  20.407  1.00  0.00    -0.177 N 
HETATM   41  N3  UNL     1      -3.878  22.693  18.112  1.00  0.00    -0.080 NA
HETATM   42  C1  UNL     1      -2.819  21.099  21.089  1.00  0.00     0.677 A 
ATOM     43  H2  UNL     1      -3.401  23.099  20.790  1.00  0.00     0.185 HD
HETATM   44  N11 UNL     1      -2.733  20.049  20.230  1.00  0.00    -0.184 N 
ATOM     45  H11 UNL     1      -2.434  19.107  20.483  1.00  0.00     0.184 HD
BRANCH  42  46
HETATM   46  N1  UNL     1      -2.544  21.018  22.361  1.00  0.00    -0.234 N 
ATOM     47  H12 UNL     1      -2.716  21.771  23.026  1.00  0.00     0.174 HD
ATOM     48  H11 UNL     1      -2.121  20.237  22.861  1.00  0.00     0.174 HD
ENDBRANCH  42  46
ENDBRANCH  36  38
ENDBRANCH  33  36
ENDBRANCH  31  32
ENDBRANCH  30  31
ENDBRANCH  29  30
ENDBRANCH  28  29
ENDBRANCH   1  28
TORSDOF 12
ENDMDL
MODEL 4
REMARK VINA RESULT: -8.000543666      2.453      6.868
REMARK  12 active torsions:
REMARK  status: ('A' for Active; 'I' for Inactive)
REMARK    1  A    between atoms: N1_1  and  C1_4 
REMARK    2  A    between atoms: C3_9  and  C4_10 
REMARK    3  A    between atoms: C4_10  and  C5_12 
REMARK       I    between atoms: C5_12  and  N4_14 
REMARK    4  A    between atoms: N4_14  and  O3_16 
REMARK    5  A    between atoms: O3_16  and  C6_17 
REMARK    6  A    between atoms: C6_17  and  C7_18 
REMARK    7  A    between atoms: C7_18  and  O4_19 
REMARK    8  A    between atoms: O4_19  and  C8_20 
REMARK       I    between atoms: C8_20  and  N5_22 
REMARK    9  A    between atoms: N5_22  and  C9_24 
REMARK   10  A    between atoms: N8_31  and  O6_32 
REMARK   11  A    between atoms: C14_35  and  C15_36 
REMARK   12  A    between atoms: C17_41  and  O9_42 
ROOT
HETATM    1  C8  UNL     1       0.877  18.934  14.106  1.00  0.00     0.367 C 
HETATM    2  O5  UNL     1       1.086  17.895  13.521  1.00  0.00    -0.238 OA
HETATM    3  N5  UNL     1       1.431  19.443  15.252  1.00  0.00    -0.274 N 
ATOM      4  H5  UNL     1       1.000  20.337  15.487  1.00  0.00     0.174 HD
ENDROOT
BRANCH   3   5
HETATM    5  C9  UNL     1       2.391  19.116  16.185  1.00  0.00     0.189 C 
HETATM    6  N6  UNL     1       3.570  18.523  15.772  1.00  0.00    -0.360 N 
HETATM    7  C10 UNL     1       4.407  18.262  16.911  1.00  0.00     0.149 C 
ATOM      8  H6  UNL     1       3.810  18.303  14.806  1.00  0.00     0.162 HD
HETATM    9  C11 UNL     1       3.296  18.082  17.975  1.00  0.00     0.129 C 
HETATM   10  C12 UNL     1       3.812  18.208  19.350  1.00  0.00     0.148 C 
HETATM   11  N10 UNL     1       2.514  19.273  17.561  1.00  0.00    -0.278 N 
HETATM   12  N7  UNL     1       4.066  19.586  19.724  1.00  0.00    -0.152 NA
HETATM   13  N8  UNL     1       4.791  19.599  20.928  1.00  0.00    -0.191 N 
HETATM   14  C17 UNL     1       2.806  20.320  19.883  1.00  0.00     0.283 C 
HETATM   15  C13 UNL     1       4.108  19.299  22.141  1.00  0.00     0.158 C 
HETATM   16  C14 UNL     1       2.777  19.361  22.196  1.00  0.00     0.099 C 
HETATM   17  C16 UNL     1       2.048  19.726  20.999  1.00  0.00     0.227 C 
HETATM   18  O8  UNL     1       0.791  19.514  20.954  1.00  0.00    -0.287 OA
HETATM   19  C18 UNL     1       2.153  20.212  18.551  1.00  0.00     0.287 C 
HETATM   20  O10 UNL     1       1.223  20.988  18.273  1.00  0.00    -0.267 OA
BRANCH  13  21
HETATM   21  O6  UNL     1       6.099  19.882  20.902  1.00  0.00    -0.272 OA
ATOM     22  H6  UNL     1       6.395  20.734  21.200  1.00  0.00     0.246 HD
ENDBRANCH  13  21
BRANCH  16  23
HETATM   23  C15 UNL     1       2.132  19.039  23.469  1.00  0.00     0.270 C 
HETATM   24  N9  UNL     1       1.464  17.774  23.597  1.00  0.00    -0.057 NA
HETATM   25  O7  UNL     1       2.179  19.861  24.398  1.00  0.00    -0.271 OA
ENDBRANCH  16  23
BRANCH  14  26
HETATM   26  O9  UNL     1       3.167  21.648  20.152  1.00  0.00    -0.360 OA
ATOM     27  H9  UNL     1       2.364  22.153  20.090  1.00  0.00     0.213 HD
ENDBRANCH  14  26
ENDBRANCH   3   5
BRANCH   1  28
HETATM   28  O4  UNL     1      -0.063  19.747  13.484  1.00  0.00    -0.302 OA
BRANCH  28  29
HETATM   29  C7  UNL     1      -0.652  20.910  13.497  1.00  0.00     0.209 C 
BRANCH  29  30
HETATM   30  C6  UNL     1      -1.823  21.074  14.477  1.00  0.00     0.228 C 
BRANCH  30  31
HETATM   31  O3  UNL     1      -1.074  21.496  15.652  1.00  0.00    -0.275 OA
BRANCH  31  32
HETATM   32  N4  UNL     1      -1.341  20.790  16.683  1.00  0.00    -0.228 N 
HETATM   33  C5  UNL     1      -1.542  19.491  17.106  1.00  0.00     0.317 C 
HETATM   34  O2  UNL     1      -1.450  18.461  16.382  1.00  0.00    -0.262 OA
ATOM     35  H4  UNL     1      -1.442  21.412  17.485  1.00  0.00     0.198 HD
BRANCH  33  36
HETATM   36  C4  UNL     1      -1.899  19.275  18.527  1.00  0.00     0.271 C 
HETATM   37  O1  UNL     1      -1.915  18.036  18.916  1.00  0.00    -0.280 OA
BRANCH  36  38
HETATM   38  C3  UNL     1      -2.216  20.273  19.474  1.00  0.00     0.146 A 
HETATM   39  C2  UNL     1      -3.530  20.614  19.844  1.00  0.00     0.163 A 
HETATM   40  N2  UNL     1      -3.501  21.577  20.756  1.00  0.00    -0.177 N 
HETATM   41  N3  UNL     1      -4.746  20.029  19.340  1.00  0.00    -0.080 NA
HETATM   42  C1  UNL     1      -2.221  21.877  20.995  1.00  0.00     0.677 A 
ATOM     43  H2  UNL     1      -4.311  22.011  21.197  1.00  0.00     0.185 HD
HETATM   44  N11 UNL     1      -1.442  21.083  20.214  1.00  0.00    -0.184 N 
ATOM     45  H11 UNL     1      -0.422  21.100  20.193  1.00  0.00     0.184 HD
BRANCH  42  46
HETATM   46  N1  UNL     1      -1.748  22.754  21.835  1.00  0.00    -0.234 N 
ATOM     47  H12 UNL     1      -1.761  23.760  21.671  1.00  0.00     0.174 HD
ATOM     48  H11 UNL     1      -1.298  22.580  22.733  1.00  0.00     0.174 HD
ENDBRANCH  42  46
ENDBRANCH  36  38
ENDBRANCH  33  36
ENDBRANCH  31  32
ENDBRANCH  30  31
ENDBRANCH  29  30
ENDBRANCH  28  29
ENDBRANCH   1  28
TORSDOF 12
ENDMDL
MODEL 5
REMARK VINA RESULT: -7.990198354      3.322      7.898
REMARK  12 active torsions:
REMARK  status: ('A' for Active; 'I' for Inactive)
REMARK    1  A    between atoms: N1_1  and  C1_4 
REMARK    2  A    between atoms: C3_9  and  C4_10 
REMARK    3  A    between atoms: C4_10  and  C5_12 
REMARK       I    between atoms: C5_12  and  N4_14 
REMARK    4  A    between atoms: N4_14  and  O3_16 
REMARK    5  A    between atoms: O3_16  and  C6_17 
REMARK    6  A    between atoms: C6_17  and  C7_18 
REMARK    7  A    between atoms: C7_18  and  O4_19 
REMARK    8  A    between atoms: O4_19  and  C8_20 
REMARK       I    between atoms: C8_20  and  N5_22 
REMARK    9  A    between atoms: N5_22  and  C9_24 
REMARK   10  A    between atoms: N8_31  and  O6_32 
REMARK   11  A    between atoms: C14_35  and  C15_36 
REMARK   12  A    between atoms: C17_41  and  O9_42 
ROOT
HETATM    1  C8  UNL     1       2.269  18.856  15.984  1.00  0.00     0.367 C 
HETATM    2  O5  UNL     1       2.556  17.814  16.528  1.00  0.00    -0.238 OA
HETATM    3  N5  UNL     1       2.713  20.134  16.205  1.00  0.00    -0.274 N 
ATOM      4  H5  UNL     1       2.236  20.787  15.583  1.00  0.00     0.174 HD
ENDROOT
BRANCH   3   5
HETATM    5  C9  UNL     1       3.606  20.806  17.011  1.00  0.00     0.189 C 
HETATM    6  N6  UNL     1       4.064  22.054  16.630  1.00  0.00    -0.360 N 
HETATM    7  C10 UNL     1       4.989  22.552  17.610  1.00  0.00     0.149 C 
ATOM      8  H6  UNL     1       3.787  22.547  15.781  1.00  0.00     0.162 HD
HETATM    9  C11 UNL     1       5.530  21.194  18.124  1.00  0.00     0.129 C 
HETATM   10  C12 UNL     1       6.204  21.318  19.429  1.00  0.00     0.148 C 
HETATM   11  N10 UNL     1       4.198  20.552  18.243  1.00  0.00    -0.278 N 
HETATM   12  N7  UNL     1       5.267  21.459  20.527  1.00  0.00    -0.152 NA
HETATM   13  N8  UNL     1       5.979  21.830  21.680  1.00  0.00    -0.191 N 
HETATM   14  C17 UNL     1       4.548  20.202  20.758  1.00  0.00     0.283 C 
HETATM   15  C13 UNL     1       6.759  20.845  22.351  1.00  0.00     0.158 C 
HETATM   16  C14 UNL     1       6.544  19.549  22.122  1.00  0.00     0.099 C 
HETATM   17  C16 UNL     1       5.516  19.171  21.176  1.00  0.00     0.227 C 
HETATM   18  O8  UNL     1       5.492  17.973  20.736  1.00  0.00    -0.287 OA
HETATM   19  C18 UNL     1       3.861  19.934  19.467  1.00  0.00     0.287 C 
HETATM   20  O10 UNL     1       2.929  19.112  19.441  1.00  0.00    -0.267 OA
BRANCH  13  21
HETATM   21  O6  UNL     1       5.913  23.096  22.112  1.00  0.00    -0.272 OA
ATOM     22  H6  UNL     1       6.713  23.600  22.197  1.00  0.00     0.246 HD
ENDBRANCH  13  21
BRANCH  16  23
HETATM   23  C15 UNL     1       7.378  18.583  22.838  1.00  0.00     0.270 C 
HETATM   24  N9  UNL     1       7.020  18.234  24.184  1.00  0.00    -0.057 NA
HETATM   25  O7  UNL     1       8.366  18.094  22.267  1.00  0.00    -0.271 OA
ENDBRANCH  16  23
BRANCH  14  26
HETATM   26  O9  UNL     1       3.615  20.473  21.769  1.00  0.00    -0.360 OA
ATOM     27  H9  UNL     1       4.015  20.177  22.578  1.00  0.00     0.213 HD
ENDBRANCH  14  26
ENDBRANCH   3   5
BRANCH   1  28
HETATM   28  O4  UNL     1       1.355  18.711  14.946  1.00  0.00    -0.302 OA
BRANCH  28  29
HETATM   29  C7  UNL     1       0.310  19.223  14.358  1.00  0.00     0.209 C 
BRANCH  29  30
HETATM   30  C6  UNL     1      -0.269  20.502  14.981  1.00  0.00     0.228 C 
BRANCH  30  31
HETATM   31  O3  UNL     1      -1.498  19.948  15.531  1.00  0.00    -0.275 OA
BRANCH  31  32
HETATM   32  N4  UNL     1      -1.366  19.572  16.745  1.00  0.00    -0.228 N 
HETATM   33  C5  UNL     1      -0.674  19.836  17.911  1.00  0.00     0.317 C 
HETATM   34  O2  UNL     1       0.167  20.763  18.070  1.00  0.00    -0.262 OA
ATOM     35  H4  UNL     1      -2.004  18.795  16.915  1.00  0.00     0.198 HD
BRANCH  33  36
HETATM   36  C4  UNL     1      -0.931  18.963  19.079  1.00  0.00     0.271 C 
HETATM   37  O1  UNL     1      -1.896  18.105  18.931  1.00  0.00    -0.280 OA
BRANCH  36  38
HETATM   38  C3  UNL     1      -0.239  18.979  20.309  1.00  0.00     0.146 A 
HETATM   39  C2  UNL     1      -0.416  19.968  21.295  1.00  0.00     0.163 A 
HETATM   40  N2  UNL     1       0.366  19.705  22.334  1.00  0.00    -0.177 N 
HETATM   41  N3  UNL     1      -1.301  21.101  21.229  1.00  0.00    -0.080 NA
HETATM   42  C1  UNL     1       1.045  18.586  22.064  1.00  0.00     0.677 A 
ATOM     43  H2  UNL     1       0.437  20.259  23.187  1.00  0.00     0.185 HD
HETATM   44  N11 UNL     1       0.675  18.146  20.832  1.00  0.00    -0.184 N 
ATOM     45  H11 UNL     1       1.038  17.311  20.375  1.00  0.00     0.184 HD
BRANCH  42  46
HETATM   46  N1  UNL     1       1.906  17.969  22.824  1.00  0.00    -0.234 N 
ATOM     47  H12 UNL     1       2.906  17.931  22.631  1.00  0.00     0.174 HD
ATOM     48  H11 UNL     1       1.722  17.441  23.677  1.00  0.00     0.174 HD
ENDBRANCH  42  46
ENDBRANCH  36  38
ENDBRANCH  33  36
ENDBRANCH  31  32
ENDBRANCH  30  31
ENDBRANCH  29  30
ENDBRANCH  28  29
ENDBRANCH   1  28
TORSDOF 12
ENDMDL
