MODEL 1
REMARK VINA RESULT: -6.867122636      0.000      0.000
REMARK  4 active torsions:
REMARK  status: ('A' for Active; 'I' for Inactive)
REMARK    1  A    between atoms: N1_1  and  C1_4 
REMARK    2  A    between atoms: C2_7  and  S1_8 
REMARK    3  A    between atoms: S1_8  and  N3_9 
REMARK    4  A    between atoms: C3_16  and  C4_17 
REMARK       I    between atoms: C4_17  and  N5_19 
ROOT
HETATM    1  C1  UNL     1       8.978  18.980  13.657  1.00  0.00     0.128 A 
HETATM    2  N2  UNL     1       7.952  19.791  13.994  1.00  0.00    -0.316 N 
ATOM      3  H2  UNL     1       7.814  20.661  13.479  1.00  0.00     0.169 HD
HETATM    4  C2  UNL     1       7.110  19.480  14.989  1.00  0.00     0.226 A 
HETATM    5  N4  UNL     1       7.319  18.327  15.649  1.00  0.00    -0.325 N 
ATOM      6  H4  UNL     1       6.681  18.085  16.408  1.00  0.00     0.168 HD
HETATM    7  C3  UNL     1       8.313  17.478  15.368  1.00  0.00     0.131 A 
HETATM    8  C6  UNL     1       9.178  17.800  14.344  1.00  0.00     0.122 A 
HETATM    9  N8  UNL     1      10.247  16.936  14.007  1.00  0.00    -0.096 NA
ENDROOT
BRANCH   7  10
HETATM   10  C4  UNL     1       8.480  16.231  16.134  1.00  0.00     0.276 C 
HETATM   11  O3  UNL     1       8.777  16.262  17.352  1.00  0.00    -0.266 OA
HETATM   12  N5  UNL     1       8.309  14.993  15.513  1.00  0.00    -0.298 N 
HETATM   13  C5  UNL     1       7.387  14.191  15.909  1.00  0.00     0.203 C 
ATOM     14  H5  UNL     1       8.918  14.724  14.740  1.00  0.00     0.171 HD
HETATM   15  N6  UNL     1       7.161  12.916  15.320  1.00  0.00    -0.066 NA
HETATM   16  N7  UNL     1       6.541  14.573  16.984  1.00  0.00    -0.066 NA
ENDBRANCH   7  10
BRANCH   4  17
HETATM   17  S1  UNL     1       5.768  20.540  15.431  1.00  0.00     0.289 S 
HETATM   18  O1  UNL     1       4.905  19.789  16.373  1.00  0.00    -0.198 OA
HETATM   19  O2  UNL     1       4.999  20.852  14.184  1.00  0.00    -0.198 OA
BRANCH  17  20
HETATM   20  N3  UNL     1       6.422  21.923  16.180  1.00  0.00    -0.322 N 
ATOM     21  H32 UNL     1       6.598  22.816  15.719  1.00  0.00     0.169 HD
ATOM     22  H31 UNL     1       6.599  21.694  17.158  1.00  0.00     0.169 HD
ENDBRANCH  17  20
ENDBRANCH   4  17
BRANCH   1  23
HETATM   23  N1  UNL     1       9.759  19.319  12.696  1.00  0.00    -0.384 N 
ATOM     24  H12 UNL     1       9.387  19.517  11.767  1.00  0.00     0.157 HD
ATOM     25  H11 UNL     1      10.762  19.391  12.869  1.00  0.00     0.157 HD
ENDBRANCH   1  23
TORSDOF 4
ENDMDL
MODEL 2
REMARK VINA RESULT: -6.789162197      2.814      5.668
REMARK  4 active torsions:
REMARK  status: ('A' for Active; 'I' for Inactive)
REMARK    1  A    between atoms: N1_1  and  C1_4 
REMARK    2  A    between atoms: C2_7  and  S1_8 
REMARK    3  A    between atoms: S1_8  and  N3_9 
REMARK    4  A    between atoms: C3_16  and  C4_17 
REMARK       I    between atoms: C4_17  and  N5_19 
ROOT
HETATM    1  C1  UNL     1       9.568  19.080  12.637  1.00  0.00     0.128 A 
HETATM    2  N2  UNL     1       9.863  18.174  13.595  1.00  0.00    -0.316 N 
ATOM      3  H2  UNL     1      10.708  17.611  13.506  1.00  0.00     0.169 HD
HETATM    4  C2  UNL     1       9.070  17.999  14.662  1.00  0.00     0.226 A 
HETATM    5  N4  UNL     1       7.963  18.758  14.750  1.00  0.00    -0.325 N 
ATOM      6  H4  UNL     1       7.355  18.629  15.560  1.00  0.00     0.168 HD
HETATM    7  C3  UNL     1       7.611  19.672  13.839  1.00  0.00     0.131 A 
HETATM    8  C6  UNL     1       8.428  19.849  12.743  1.00  0.00     0.122 A 
HETATM    9  N8  UNL     1       8.101  20.804  11.750  1.00  0.00    -0.096 NA
ENDROOT
BRANCH   7  10
HETATM   10  C4  UNL     1       6.383  20.467  14.003  1.00  0.00     0.276 C 
HETATM   11  O3  UNL     1       5.312  19.925  14.366  1.00  0.00    -0.266 OA
HETATM   12  N5  UNL     1       6.393  21.840  13.755  1.00  0.00    -0.298 N 
HETATM   13  C5  UNL     1       6.120  22.671  14.697  1.00  0.00     0.203 C 
ATOM     14  H5  UNL     1       6.618  22.186  12.822  1.00  0.00     0.171 HD
HETATM   15  N6  UNL     1       6.112  24.081  14.509  1.00  0.00    -0.066 NA
HETATM   16  N7  UNL     1       5.808  22.182  15.993  1.00  0.00    -0.066 NA
ENDBRANCH   7  10
BRANCH   4  17
HETATM   17  S1  UNL     1       9.453  16.817  15.915  1.00  0.00     0.289 S 
HETATM   18  O1  UNL     1       9.621  15.504  15.248  1.00  0.00    -0.198 OA
HETATM   19  O2  UNL     1       8.292  16.755  16.860  1.00  0.00    -0.198 OA
BRANCH  17  20
HETATM   20  N3  UNL     1      10.903  17.304  16.666  1.00  0.00    -0.322 N 
ATOM     21  H32 UNL     1      11.833  16.954  16.435  1.00  0.00     0.169 HD
ATOM     22  H31 UNL     1      10.669  17.998  17.375  1.00  0.00     0.169 HD
ENDBRANCH  17  20
ENDBRANCH   4  17
BRANCH   1  23
HETATM   23  N1  UNL     1      10.357  19.212  11.633  1.00  0.00    -0.384 N 
ATOM     24  H12 UNL     1      10.811  20.105  11.441  1.00  0.00     0.157 HD
ATOM     25  H11 UNL     1      10.530  18.412  11.024  1.00  0.00     0.157 HD
ENDBRANCH   1  23
TORSDOF 4
ENDMDL
MODEL 3
REMARK VINA RESULT: -6.765709471      2.880      6.167
REMARK  4 active torsions:
REMARK  status: ('A' for Active; 'I' for Inactive)
REMARK    1  A    between atoms: N1_1  and  C1_4 
REMARK    2  A    between atoms: C2_7  and  S1_8 
REMARK    3  A    between atoms: S1_8  and  N3_9 
REMARK    4  A    between atoms: C3_16  and  C4_17 
REMARK       I    between atoms: C4_17  and  N5_19 
ROOT
HETATM    1  C1  UNL     1       6.074  18.190  16.361  1.00  0.00     0.128 A 
HETATM    2  N2  UNL     1       6.920  17.145  16.490  1.00  0.00    -0.316 N 
ATOM      3  H2  UNL     1       6.754  16.456  17.224  1.00  0.00     0.169 HD
HETATM    4  C2  UNL     1       7.973  16.991  15.675  1.00  0.00     0.226 A 
HETATM    5  N4  UNL     1       8.164  17.916  14.717  1.00  0.00    -0.325 N 
ATOM      6  H4  UNL     1       8.964  17.804  14.094  1.00  0.00     0.168 HD
HETATM    7  C3  UNL     1       7.367  18.974  14.534  1.00  0.00     0.131 A 
HETATM    8  C6  UNL     1       6.285  19.130  15.374  1.00  0.00     0.122 A 
HETATM    9  N8  UNL     1       5.410  20.233  15.222  1.00  0.00    -0.096 NA
ENDROOT
BRANCH   7  10
HETATM   10  C4  UNL     1       7.639  19.947  13.463  1.00  0.00     0.276 C 
HETATM   11  O3  UNL     1       7.631  19.595  12.259  1.00  0.00    -0.266 OA
HETATM   12  N5  UNL     1       7.910  21.280  13.773  1.00  0.00    -0.298 N 
HETATM   13  C5  UNL     1       7.136  22.215  13.352  1.00  0.00     0.203 C 
ATOM     14  H5  UNL     1       8.728  21.514  14.338  1.00  0.00     0.171 HD
HETATM   15  N6  UNL     1       7.358  23.592  13.633  1.00  0.00    -0.066 NA
HETATM   16  N7  UNL     1       6.000  21.882  12.568  1.00  0.00    -0.066 NA
ENDBRANCH   7  10
BRANCH   4  17
HETATM   17  S1  UNL     1       9.080  15.626  15.841  1.00  0.00     0.289 S 
HETATM   18  O1  UNL     1       9.428  15.170  14.474  1.00  0.00    -0.198 OA
HETATM   19  O2  UNL     1       8.357  14.532  16.566  1.00  0.00    -0.198 OA
BRANCH  17  20
HETATM   20  N3  UNL     1      10.465  16.175  16.666  1.00  0.00    -0.322 N 
ATOM     21  H32 UNL     1      10.864  17.112  16.592  1.00  0.00     0.169 HD
ATOM     22  H31 UNL     1      10.814  15.406  17.238  1.00  0.00     0.169 HD
ENDBRANCH  17  20
ENDBRANCH   4  17
BRANCH   1  23
HETATM   23  N1  UNL     1       5.079  18.296  17.165  1.00  0.00    -0.384 N 
ATOM     24  H12 UNL     1       4.739  17.486  17.684  1.00  0.00     0.157 HD
ATOM     25  H11 UNL     1       4.626  19.202  17.284  1.00  0.00     0.157 HD
ENDBRANCH   1  23
TORSDOF 4
ENDMDL
MODEL 4
REMARK VINA RESULT: -6.700259689      2.367      5.699
REMARK  4 active torsions:
REMARK  status: ('A' for Active; 'I' for Inactive)
REMARK    1  A    between atoms: N1_1  and  C1_4 
REMARK    2  A    between atoms: C2_7  and  S1_8 
REMARK    3  A    between atoms: S1_8  and  N3_9 
REMARK    4  A    between atoms: C3_16  and  C4_17 
REMARK       I    between atoms: C4_17  and  N5_19 
ROOT
HETATM    1  C1  UNL     1       9.551  19.098  12.688  1.00  0.00     0.128 A 
HETATM    2  N2  UNL     1       9.875  18.226  13.667  1.00  0.00    -0.316 N 
ATOM      3  H2  UNL     1      10.729  17.675  13.581  1.00  0.00     0.169 HD
HETATM    4  C2  UNL     1       9.101  18.068  14.750  1.00  0.00     0.226 A 
HETATM    5  N4  UNL     1       7.981  18.810  14.833  1.00  0.00    -0.325 N 
ATOM      6  H4  UNL     1       7.388  18.693  15.654  1.00  0.00     0.168 HD
HETATM    7  C3  UNL     1       7.601  19.691  13.901  1.00  0.00     0.131 A 
HETATM    8  C6  UNL     1       8.399  19.851  12.789  1.00  0.00     0.122 A 
HETATM    9  N8  UNL     1       8.042  20.771  11.774  1.00  0.00    -0.096 NA
ENDROOT
BRANCH   7  10
HETATM   10  C4  UNL     1       6.361  20.469  14.060  1.00  0.00     0.276 C 
HETATM   11  O3  UNL     1       5.297  19.913  14.423  1.00  0.00    -0.266 OA
HETATM   12  N5  UNL     1       6.352  21.841  13.809  1.00  0.00    -0.298 N 
HETATM   13  C5  UNL     1       6.065  22.671  14.746  1.00  0.00     0.203 C 
ATOM     14  H5  UNL     1       6.574  22.188  12.875  1.00  0.00     0.171 HD
HETATM   15  N6  UNL     1       6.038  24.080  14.555  1.00  0.00    -0.066 NA
HETATM   16  N7  UNL     1       5.758  22.182  16.044  1.00  0.00    -0.066 NA
ENDBRANCH   7  10
BRANCH   4  17
HETATM   17  S1  UNL     1       9.522  16.929  16.030  1.00  0.00     0.289 S 
HETATM   18  O1  UNL     1       8.337  16.795  16.911  1.00  0.00    -0.198 OA
HETATM   19  O2  UNL     1      10.663  17.512  16.808  1.00  0.00    -0.198 OA
BRANCH  17  20
HETATM   20  N3  UNL     1       9.903  15.438  15.298  1.00  0.00    -0.322 N 
ATOM     21  H32 UNL     1       9.301  14.928  14.651  1.00  0.00     0.169 HD
ATOM     22  H31 UNL     1      10.828  15.158  15.622  1.00  0.00     0.169 HD
ENDBRANCH  17  20
ENDBRANCH   4  17
BRANCH   1  23
HETATM   23  N1  UNL     1      10.324  19.216  11.669  1.00  0.00    -0.384 N 
ATOM     24  H12 UNL     1      11.253  18.796  11.669  1.00  0.00     0.157 HD
ATOM     25  H11 UNL     1      10.000  19.736  10.853  1.00  0.00     0.157 HD
ENDBRANCH   1  23
TORSDOF 4
ENDMDL
MODEL 5
REMARK VINA RESULT: -6.652249573      0.882      1.034
REMARK  4 active torsions:
REMARK  status: ('A' for Active; 'I' for Inactive)
REMARK    1  A    between atoms: N1_1  and  C1_4 
REMARK    2  A    between atoms: C2_7  and  S1_8 
REMARK    3  A    between atoms: S1_8  and  N3_9 
REMARK    4  A    between atoms: C3_16  and  C4_17 
REMARK       I    between atoms: C4_17  and  N5_19 
ROOT
HETATM    1  C1  UNL     1       8.902  19.037  13.678  1.00  0.00     0.128 A 
HETATM    2  N2  UNL     1       7.856  19.825  14.011  1.00  0.00    -0.316 N 
ATOM      3  H2  UNL     1       7.704  20.695  13.499  1.00  0.00     0.169 HD
HETATM    4  C2  UNL     1       7.013  19.492  14.998  1.00  0.00     0.226 A 
HETATM    5  N4  UNL     1       7.241  18.340  15.654  1.00  0.00    -0.325 N 
ATOM      6  H4  UNL     1       6.603  18.081  16.407  1.00  0.00     0.168 HD
HETATM    7  C3  UNL     1       8.255  17.513  15.377  1.00  0.00     0.131 A 
HETATM    8  C6  UNL     1       9.121  17.859  14.361  1.00  0.00     0.122 A 
HETATM    9  N8  UNL     1      10.210  17.018  14.028  1.00  0.00    -0.096 NA
ENDROOT
BRANCH   7  10
HETATM   10  C4  UNL     1       8.442  16.267  16.138  1.00  0.00     0.276 C 
HETATM   11  O3  UNL     1       8.738  16.298  17.357  1.00  0.00    -0.266 OA
HETATM   12  N5  UNL     1       8.292  15.029  15.512  1.00  0.00    -0.298 N 
HETATM   13  C5  UNL     1       7.384  14.209  15.905  1.00  0.00     0.203 C 
ATOM     14  H5  UNL     1       8.907  14.773  14.739  1.00  0.00     0.171 HD
HETATM   15  N6  UNL     1       7.181  12.933  15.310  1.00  0.00    -0.066 NA
HETATM   16  N7  UNL     1       6.531  14.572  16.980  1.00  0.00    -0.066 NA
ENDBRANCH   7  10
BRANCH   4  17
HETATM   17  S1  UNL     1       5.647  20.521  15.435  1.00  0.00     0.289 S 
HETATM   18  O1  UNL     1       6.189  21.684  16.176  1.00  0.00    -0.198 OA
HETATM   19  O2  UNL     1       4.743  19.730  16.331  1.00  0.00    -0.198 OA
BRANCH  17  20
HETATM   20  N3  UNL     1       4.890  21.022  13.993  1.00  0.00    -0.322 N 
ATOM     21  H32 UNL     1       3.883  21.116  13.857  1.00  0.00     0.169 HD
ATOM     22  H31 UNL     1       5.620  21.207  13.305  1.00  0.00     0.169 HD
ENDBRANCH  17  20
ENDBRANCH   4  17
BRANCH   1  23
HETATM   23  N1  UNL     1       9.682  19.397  12.725  1.00  0.00    -0.384 N 
ATOM     24  H12 UNL     1      10.422  20.081  12.887  1.00  0.00     0.157 HD
ATOM     25  H11 UNL     1       9.558  18.993  11.797  1.00  0.00     0.157 HD
ENDBRANCH   1  23
TORSDOF 4
ENDMDL
