MODEL 1
REMARK VINA RESULT: -7.040955081      0.000      0.000
REMARK  3 active torsions:
REMARK  status: ('A' for Active; 'I' for Inactive)
REMARK    1  A    between atoms: N1_1  and  C1_4 
REMARK    2  A    between atoms: C2_7  and  C3_8 
REMARK    3  A    between atoms: C3_8  and  N3_9 
ROOT
HETATM    1  N3  UNL     1       7.102  15.147  15.704  1.00  0.00    -0.344 N 
ATOM      2  H3  UNL     1       6.776  16.107  15.591  1.00  0.00     0.167 HD
HETATM    3  C4  UNL     1       6.331  14.485  16.416  1.00  0.00     0.177 C 
HETATM    4  N4  UNL     1       5.181  15.207  16.910  1.00  0.00    -0.301 N 
ATOM      5  H4  UNL     1       5.276  16.222  16.942  1.00  0.00     0.171 HD
HETATM    6  C5  UNL     1       3.922  14.683  17.360  1.00  0.00     0.303 C 
HETATM    7  O1  UNL     1       3.031  15.480  17.725  1.00  0.00    -0.263 OA
HETATM    8  C6  UNL     1       3.516  13.277  17.456  1.00  0.00     0.306 C 
HETATM    9  O2  UNL     1       2.322  13.015  17.745  1.00  0.00    -0.276 OA
HETATM   10  C7  UNL     1       4.337  12.089  17.255  1.00  0.00     0.304 C 
HETATM   11  O3  UNL     1       3.783  10.974  17.403  1.00  0.00    -0.263 OA
HETATM   12  N5  UNL     1       5.719  11.984  16.904  1.00  0.00    -0.284 N 
ATOM     13  H5  UNL     1       6.107  11.047  16.790  1.00  0.00     0.172 HD
HETATM   14  C8  UNL     1       6.607  13.100  16.700  1.00  0.00     0.292 C 
HETATM   15  O4  UNL     1       7.807  12.802  16.786  1.00  0.00    -0.264 OA
ENDROOT
BRANCH   1  16
HETATM   16  C3  UNL     1       8.296  14.929  15.014  1.00  0.00     0.140 C 
BRANCH  16  17
HETATM   17  C2  UNL     1       9.228  16.079  15.276  1.00  0.00     0.151 A 
HETATM   18  N2  UNL     1       9.785  16.482  16.426  1.00  0.00    -0.173 N 
HETATM   19  C1  UNL     1      10.545  17.547  16.180  1.00  0.00     0.692 A 
ATOM     20  H2  UNL     1       9.650  16.046  17.337  1.00  0.00     0.186 HD
HETATM   21  N7  UNL     1      10.468  17.819  14.866  1.00  0.00    -0.131 N 
HETATM   22  N6  UNL     1       9.672  16.928  14.334  1.00  0.00    -0.270 N 
ATOM     23  H7  UNL     1      10.942  18.578  14.376  1.00  0.00     0.205 HD
ATOM     24  H6  UNL     1       9.423  16.884  13.345  1.00  0.00     0.189 HD
BRANCH  19  25
HETATM   25  N1  UNL     1      11.261  18.243  17.033  1.00  0.00    -0.233 N 
ATOM     26  H12 UNL     1      12.228  18.525  16.868  1.00  0.00     0.174 HD
ATOM     27  H11 UNL     1      10.980  18.594  17.948  1.00  0.00     0.174 HD
ENDBRANCH  19  25
ENDBRANCH  16  17
ENDBRANCH   1  16
TORSDOF 3
ENDMDL
MODEL 2
REMARK VINA RESULT: -7.004801074      6.232      8.668
REMARK  3 active torsions:
REMARK  status: ('A' for Active; 'I' for Inactive)
REMARK    1  A    between atoms: N1_1  and  C1_4 
REMARK    2  A    between atoms: C2_7  and  C3_8 
REMARK    3  A    between atoms: C3_8  and  N3_9 
ROOT
HETATM    1  N3  UNL     1       9.014  19.002  13.451  1.00  0.00    -0.344 N 
ATOM      2  H3  UNL     1       9.716  18.272  13.331  1.00  0.00     0.167 HD
HETATM    3  C4  UNL     1       8.970  19.758  12.469  1.00  0.00     0.177 C 
HETATM    4  N4  UNL     1       9.899  19.440  11.408  1.00  0.00    -0.301 N 
ATOM      5  H4  UNL     1      10.713  18.890  11.683  1.00  0.00     0.171 HD
HETATM    6  C5  UNL     1       9.827  19.796  10.019  1.00  0.00     0.303 C 
HETATM    7  O1  UNL     1      10.722  19.397   9.244  1.00  0.00    -0.263 OA
HETATM    8  C6  UNL     1       8.800  20.602   9.350  1.00  0.00     0.306 C 
HETATM    9  O2  UNL     1       8.830  20.694   8.097  1.00  0.00    -0.276 OA
HETATM   10  C7  UNL     1       7.700  21.342   9.958  1.00  0.00     0.304 C 
HETATM   11  O3  UNL     1       6.942  21.980   9.191  1.00  0.00    -0.263 OA
HETATM   12  N5  UNL     1       7.333  21.462  11.335  1.00  0.00    -0.284 N 
ATOM     13  H5  UNL     1       6.506  22.017  11.555  1.00  0.00     0.172 HD
HETATM   14  C8  UNL     1       8.041  20.858  12.434  1.00  0.00     0.292 C 
HETATM   15  O4  UNL     1       7.800  21.386  13.529  1.00  0.00    -0.264 OA
ENDROOT
BRANCH   1  16
HETATM   16  C3  UNL     1       8.359  18.882  14.678  1.00  0.00     0.140 C 
BRANCH  16  17
HETATM   17  C2  UNL     1       9.129  17.932  15.552  1.00  0.00     0.151 A 
HETATM   18  N2  UNL     1       8.734  16.788  16.126  1.00  0.00    -0.173 N 
HETATM   19  C1  UNL     1       9.756  16.281  16.811  1.00  0.00     0.692 A 
ATOM     20  H2  UNL     1       7.805  16.375  16.050  1.00  0.00     0.186 HD
HETATM   21  N7  UNL     1      10.804  17.110  16.670  1.00  0.00    -0.131 N 
HETATM   22  N6  UNL     1      10.413  18.100  15.910  1.00  0.00    -0.270 N 
ATOM     23  H7  UNL     1      11.731  16.989  17.079  1.00  0.00     0.205 HD
ATOM     24  H6  UNL     1      10.999  18.887  15.630  1.00  0.00     0.189 HD
BRANCH  19  25
HETATM   25  N1  UNL     1       9.786  15.172  17.515  1.00  0.00    -0.233 N 
ATOM     26  H12 UNL     1       9.481  14.265  17.162  1.00  0.00     0.174 HD
ATOM     27  H11 UNL     1      10.102  15.048  18.477  1.00  0.00     0.174 HD
ENDBRANCH  19  25
ENDBRANCH  16  17
ENDBRANCH   1  16
TORSDOF 3
ENDMDL
MODEL 3
REMARK VINA RESULT: -6.943846815      2.353      3.635
REMARK  3 active torsions:
REMARK  status: ('A' for Active; 'I' for Inactive)
REMARK    1  A    between atoms: N1_1  and  C1_4 
REMARK    2  A    between atoms: C2_7  and  C3_8 
REMARK    3  A    between atoms: C3_8  and  N3_9 
ROOT
HETATM    1  N3  UNL     1       8.643  16.442  15.621  1.00  0.00    -0.344 N 
ATOM      2  H3  UNL     1       9.392  15.868  15.233  1.00  0.00     0.167 HD
HETATM    3  C4  UNL     1       7.596  15.790  15.758  1.00  0.00     0.177 C 
HETATM    4  N4  UNL     1       7.676  14.407  15.349  1.00  0.00    -0.301 N 
ATOM      5  H4  UNL     1       8.416  14.185  14.682  1.00  0.00     0.171 HD
HETATM    6  C5  UNL     1       6.852  13.304  15.756  1.00  0.00     0.303 C 
HETATM    7  O1  UNL     1       7.101  12.164  15.308  1.00  0.00    -0.263 OA
HETATM    8  C6  UNL     1       5.703  13.329  16.667  1.00  0.00     0.306 C 
HETATM    9  O2  UNL     1       5.187  12.237  17.013  1.00  0.00    -0.276 OA
HETATM   10  C7  UNL     1       5.047  14.491  17.256  1.00  0.00     0.304 C 
HETATM   11  O3  UNL     1       4.064  14.280  18.004  1.00  0.00    -0.263 OA
HETATM   12  N5  UNL     1       5.354  15.880  17.114  1.00  0.00    -0.284 N 
ATOM     13  H5  UNL     1       4.780  16.545  17.632  1.00  0.00     0.172 HD
HETATM   14  C8  UNL     1       6.413  16.413  16.295  1.00  0.00     0.292 C 
HETATM   15  O4  UNL     1       6.267  17.611  16.012  1.00  0.00    -0.264 OA
ENDROOT
BRANCH   1  16
HETATM   16  C3  UNL     1       9.070  17.750  15.855  1.00  0.00     0.140 C 
BRANCH  16  17
HETATM   17  C2  UNL     1       9.115  18.491  14.549  1.00  0.00     0.151 A 
HETATM   18  N2  UNL     1       8.215  19.322  14.008  1.00  0.00    -0.173 N 
HETATM   19  C1  UNL     1       8.680  19.747  12.835  1.00  0.00     0.692 A 
ATOM     20  H2  UNL     1       7.322  19.586  14.424  1.00  0.00     0.186 HD
HETATM   21  N7  UNL     1       9.882  19.181  12.634  1.00  0.00    -0.131 N 
HETATM   22  N6  UNL     1      10.132  18.426  13.673  1.00  0.00    -0.270 N 
ATOM     23  H7  UNL     1      10.486  19.314  11.823  1.00  0.00     0.205 HD
ATOM     24  H6  UNL     1      10.977  17.869  13.800  1.00  0.00     0.189 HD
BRANCH  19  25
HETATM   25  N1  UNL     1       8.106  20.572  11.989  1.00  0.00    -0.233 N 
ATOM     26  H12 UNL     1       7.499  20.274  11.225  1.00  0.00     0.174 HD
ATOM     27  H11 UNL     1       8.171  21.590  11.962  1.00  0.00     0.174 HD
ENDBRANCH  19  25
ENDBRANCH  16  17
ENDBRANCH   1  16
TORSDOF 3
ENDMDL
MODEL 4
REMARK VINA RESULT: -6.868466260      1.182      1.504
REMARK  3 active torsions:
REMARK  status: ('A' for Active; 'I' for Inactive)
REMARK    1  A    between atoms: N1_1  and  C1_4 
REMARK    2  A    between atoms: C2_7  and  C3_8 
REMARK    3  A    between atoms: C3_8  and  N3_9 
ROOT
HETATM    1  N3  UNL     1       7.154  15.434  16.083  1.00  0.00    -0.344 N 
ATOM      2  H3  UNL     1       6.762  16.373  16.007  1.00  0.00     0.167 HD
HETATM    3  C4  UNL     1       6.378  14.663  16.668  1.00  0.00     0.177 C 
HETATM    4  N4  UNL     1       5.131  15.254  17.094  1.00  0.00    -0.301 N 
ATOM      5  H4  UNL     1       5.137  16.268  17.208  1.00  0.00     0.171 HD
HETATM    6  C5  UNL     1       3.883  14.603  17.380  1.00  0.00     0.303 C 
HETATM    7  O1  UNL     1       2.899  15.298  17.710  1.00  0.00    -0.263 OA
HETATM    8  C6  UNL     1       3.588  13.167  17.337  1.00  0.00     0.306 C 
HETATM    9  O2  UNL     1       2.398  12.793  17.486  1.00  0.00    -0.276 OA
HETATM   10  C7  UNL     1       4.520  12.063  17.135  1.00  0.00     0.304 C 
HETATM   11  O3  UNL     1       4.049  10.902  17.149  1.00  0.00    -0.263 OA
HETATM   12  N5  UNL     1       5.933  12.092  16.916  1.00  0.00    -0.284 N 
ATOM     13  H5  UNL     1       6.406  11.199  16.775  1.00  0.00     0.172 HD
HETATM   14  C8  UNL     1       6.740  13.284  16.879  1.00  0.00     0.292 C 
HETATM   15  O4  UNL     1       7.947  13.073  17.063  1.00  0.00    -0.264 OA
ENDROOT
BRANCH   1  16
HETATM   16  C3  UNL     1       8.421  15.362  15.502  1.00  0.00     0.140 C 
BRANCH  16  17
HETATM   17  C2  UNL     1       8.745  16.687  14.871  1.00  0.00     0.151 A 
HETATM   18  N2  UNL     1       7.978  17.776  14.729  1.00  0.00    -0.173 N 
HETATM   19  C1  UNL     1       8.686  18.718  14.110  1.00  0.00     0.692 A 
ATOM     20  H2  UNL     1       7.012  17.868  15.043  1.00  0.00     0.186 HD
HETATM   21  N7  UNL     1       9.909  18.221  13.859  1.00  0.00    -0.131 N 
HETATM   22  N6  UNL     1       9.931  16.998  14.321  1.00  0.00    -0.270 N 
ATOM     23  H7  UNL     1      10.676  18.707  13.394  1.00  0.00     0.205 HD
ATOM     24  H6  UNL     1      10.734  16.370  14.272  1.00  0.00     0.189 HD
BRANCH  19  25
HETATM   25  N1  UNL     1       8.304  19.931  13.781  1.00  0.00    -0.233 N 
ATOM     26  H12 UNL     1       7.835  20.574  14.419  1.00  0.00     0.174 HD
ATOM     27  H11 UNL     1       8.409  20.399  12.880  1.00  0.00     0.174 HD
ENDBRANCH  19  25
ENDBRANCH  16  17
ENDBRANCH   1  16
TORSDOF 3
ENDMDL
MODEL 5
REMARK VINA RESULT: -6.837557217      5.267      7.100
REMARK  3 active torsions:
REMARK  status: ('A' for Active; 'I' for Inactive)
REMARK    1  A    between atoms: N1_1  and  C1_4 
REMARK    2  A    between atoms: C2_7  and  C3_8 
REMARK    3  A    between atoms: C3_8  and  N3_9 
ROOT
HETATM    1  N3  UNL     1       7.637  18.588  14.451  1.00  0.00    -0.344 N 
ATOM      2  H3  UNL     1       7.103  17.914  14.999  1.00  0.00     0.167 HD
HETATM    3  C4  UNL     1       7.022  19.658  14.320  1.00  0.00     0.177 C 
HETATM    4  N4  UNL     1       5.726  19.702  14.957  1.00  0.00    -0.301 N 
ATOM      5  H4  UNL     1       5.288  18.797  15.133  1.00  0.00     0.171 HD
HETATM    6  C5  UNL     1       4.973  20.851  15.375  1.00  0.00     0.303 C 
HETATM    7  O1  UNL     1       3.872  20.680  15.941  1.00  0.00    -0.263 OA
HETATM    8  C6  UNL     1       5.332  22.265  15.222  1.00  0.00     0.306 C 
HETATM    9  O2  UNL     1       4.609  23.132  15.774  1.00  0.00    -0.276 OA
HETATM   10  C7  UNL     1       6.458  22.833  14.491  1.00  0.00     0.304 C 
HETATM   11  O3  UNL     1       6.568  24.081  14.480  1.00  0.00    -0.263 OA
HETATM   12  N5  UNL     1       7.495  22.174  13.758  1.00  0.00    -0.284 N 
ATOM     13  H5  UNL     1       8.212  22.758  13.328  1.00  0.00     0.172 HD
HETATM   14  C8  UNL     1       7.603  20.749  13.579  1.00  0.00     0.292 C 
HETATM   15  O4  UNL     1       8.319  20.421  12.623  1.00  0.00    -0.264 OA
ENDROOT
BRANCH   1  16
HETATM   16  C3  UNL     1       8.865  18.060  14.048  1.00  0.00     0.140 C 
BRANCH  16  17
HETATM   17  C2  UNL     1       9.545  17.443  15.238  1.00  0.00     0.151 A 
HETATM   18  N2  UNL     1       9.268  16.302  15.884  1.00  0.00    -0.173 N 
HETATM   19  C1  UNL     1      10.138  16.156  16.880  1.00  0.00     0.692 A 
ATOM     20  H2  UNL     1       8.515  15.655  15.651  1.00  0.00     0.186 HD
HETATM   21  N7  UNL     1      10.971  17.210  16.864  1.00  0.00    -0.131 N 
HETATM   22  N6  UNL     1      10.602  17.978  15.871  1.00  0.00    -0.270 N 
ATOM     23  H7  UNL     1      11.745  17.380  17.506  1.00  0.00     0.205 HD
ATOM     24  H6  UNL     1      11.053  18.856  15.614  1.00  0.00     0.189 HD
BRANCH  19  25
HETATM   25  N1  UNL     1      10.212  15.175  17.751  1.00  0.00    -0.233 N 
ATOM     26  H12 UNL     1      10.707  15.239  18.640  1.00  0.00     0.174 HD
ATOM     27  H11 UNL     1       9.807  14.241  17.680  1.00  0.00     0.174 HD
ENDBRANCH  19  25
ENDBRANCH  16  17
ENDBRANCH   1  16
TORSDOF 3
ENDMDL
