MODEL 1
REMARK VINA RESULT: -6.750251872      0.000      0.000
REMARK  4 active torsions:
REMARK  status: ('A' for Active; 'I' for Inactive)
REMARK    1  A    between atoms: N1_1  and  C1_5 
REMARK    2  A    between atoms: C1_5  and  N2_6 
REMARK    3  A    between atoms: C1_5  and  C2_10 
REMARK       I    between atoms: C2_10  and  N3_12 
REMARK    4  A    between atoms: N3_12  and  C3_14 
ROOT
HETATM    1  C3  UNL     1       7.328  19.807  14.990  1.00  0.00     0.178 A 
HETATM    2  N4  UNL     1       8.274  18.922  14.622  1.00  0.00    -0.330 N 
ATOM      3  H4  UNL     1       9.043  19.249  14.036  1.00  0.00     0.168 HD
HETATM    4  C4  UNL     1       8.256  17.630  14.991  1.00  0.00     0.147 A 
HETATM    5  C5  UNL     1       9.236  16.738  14.603  1.00  0.00     0.280 A 
HETATM    6  O2  UNL     1      10.173  17.165  13.881  1.00  0.00    -0.265 OA
HETATM    7  N5  UNL     1       9.158  15.447  15.010  1.00  0.00    -0.273 N 
ATOM      8  H5  UNL     1       9.873  14.774  14.733  1.00  0.00     0.173 HD
HETATM    9  C6  UNL     1       8.122  15.065  15.785  1.00  0.00     0.328 A 
HETATM   10  O3  UNL     1       8.071  13.864  16.149  1.00  0.00    -0.247 OA
HETATM   11  N6  UNL     1       7.164  15.908  16.171  1.00  0.00    -0.292 N 
ATOM     12  H6  UNL     1       6.398  15.577  16.757  1.00  0.00     0.172 HD
HETATM   13  C7  UNL     1       7.211  17.200  15.785  1.00  0.00     0.145 A 
HETATM   14  N7  UNL     1       6.234  18.061  16.177  1.00  0.00    -0.304 N 
ATOM     15  H7  UNL     1       5.468  17.732  16.764  1.00  0.00     0.171 HD
HETATM   16  C8  UNL     1       6.281  19.349  15.792  1.00  0.00     0.291 A 
HETATM   17  O4  UNL     1       5.383  20.131  16.157  1.00  0.00    -0.264 OA
ENDROOT
BRANCH   1  18
HETATM   18  N3  UNL     1       7.307  21.034  14.664  1.00  0.00    -0.305 N 
HETATM   19  C2  UNL     1       7.117  21.579  13.399  1.00  0.00     0.281 C 
HETATM   20  O1  UNL     1       7.829  21.206  12.442  1.00  0.00    -0.269 OA
ATOM     21  H3  UNL     1       7.448  21.701  15.423  1.00  0.00     0.170 HD
BRANCH  19  22
HETATM   22  C1  UNL     1       6.089  22.603  13.126  1.00  0.00     0.468 C 
BRANCH  22  23
HETATM   23  N1  UNL     1       5.264  22.805  14.295  1.00  0.00    -0.042 N 
ATOM     24  H13 UNL     1       4.674  22.004  14.520  1.00  0.00     0.277 HD
ATOM     25  H12 UNL     1       5.792  22.818  15.168  1.00  0.00     0.277 HD
ATOM     26  H11 UNL     1       4.738  23.663  14.125  1.00  0.00     0.277 HD
ENDBRANCH  22  23
BRANCH  22  27
HETATM   27  N2  UNL     1       6.809  23.867  12.913  1.00  0.00    -0.042 N 
ATOM     28  H23 UNL     1       7.185  24.271  13.771  1.00  0.00     0.277 HD
ATOM     29  H22 UNL     1       7.700  23.751  12.430  1.00  0.00     0.277 HD
ATOM     30  H21 UNL     1       6.160  24.484  12.424  1.00  0.00     0.277 HD
ENDBRANCH  22  27
ENDBRANCH  19  22
ENDBRANCH   1  18
TORSDOF 4
ENDMDL
MODEL 2
REMARK VINA RESULT: -6.689137634      2.433      5.855
REMARK  4 active torsions:
REMARK  status: ('A' for Active; 'I' for Inactive)
REMARK    1  A    between atoms: N1_1  and  C1_5 
REMARK    2  A    between atoms: C1_5  and  N2_6 
REMARK    3  A    between atoms: C1_5  and  C2_10 
REMARK       I    between atoms: C2_10  and  N3_12 
REMARK    4  A    between atoms: N3_12  and  C3_14 
ROOT
HETATM    1  C3  UNL     1       7.928  19.309  14.579  1.00  0.00     0.178 A 
HETATM    2  N4  UNL     1       8.664  19.281  13.451  1.00  0.00    -0.330 N 
ATOM      3  H4  UNL     1       9.481  18.671  13.419  1.00  0.00     0.168 HD
HETATM    4  C4  UNL     1       8.374  20.019  12.366  1.00  0.00     0.147 A 
HETATM    5  C5  UNL     1       9.142  19.977  11.218  1.00  0.00     0.280 A 
HETATM    6  O2  UNL     1      10.143  19.217  11.204  1.00  0.00    -0.265 OA
HETATM    7  N5  UNL     1       8.794  20.747  10.158  1.00  0.00    -0.273 N 
ATOM      8  H5  UNL     1       9.349  20.729   9.302  1.00  0.00     0.173 HD
HETATM    9  C6  UNL     1       7.704  21.537  10.251  1.00  0.00     0.328 A 
HETATM   10  O3  UNL     1       7.402  22.241   9.256  1.00  0.00    -0.247 OA
HETATM   11  N6  UNL     1       6.949  21.595  11.348  1.00  0.00    -0.292 N 
ATOM     12  H6  UNL     1       6.134  22.207  11.375  1.00  0.00     0.172 HD
HETATM   13  C7  UNL     1       7.266  20.842  12.421  1.00  0.00     0.145 A 
HETATM   14  N7  UNL     1       6.497  20.899  13.541  1.00  0.00    -0.304 N 
ATOM     15  H7  UNL     1       5.681  21.509  13.570  1.00  0.00     0.171 HD
HETATM   16  C8  UNL     1       6.813  20.148  14.612  1.00  0.00     0.291 A 
HETATM   17  O4  UNL     1       6.103  20.206  15.633  1.00  0.00    -0.264 OA
ENDROOT
BRANCH   1  18
HETATM   18  N3  UNL     1       8.167  18.630  15.625  1.00  0.00    -0.305 N 
HETATM   19  C2  UNL     1       8.887  17.444  15.728  1.00  0.00     0.281 C 
HETATM   20  O1  UNL     1       8.593  16.468  15.006  1.00  0.00    -0.269 OA
ATOM     21  H3  UNL     1       7.783  18.997  16.495  1.00  0.00     0.170 HD
BRANCH  19  22
HETATM   22  C1  UNL     1      10.010  17.282  16.672  1.00  0.00     0.468 C 
BRANCH  22  23
HETATM   23  N1  UNL     1      10.439  15.902  16.703  1.00  0.00    -0.042 N 
ATOM     24  H13 UNL     1      11.389  15.780  17.056  1.00  0.00     0.277 HD
ATOM     25  H12 UNL     1       9.969  15.346  17.417  1.00  0.00     0.277 HD
ATOM     26  H11 UNL     1      10.308  15.544  15.757  1.00  0.00     0.277 HD
ENDBRANCH  22  23
BRANCH  22  27
HETATM   27  N2  UNL     1      11.136  18.045  16.112  1.00  0.00    -0.042 N 
ATOM     28  H23 UNL     1      10.906  19.018  15.907  1.00  0.00     0.277 HD
ATOM     29  H22 UNL     1      11.877  18.232  16.787  1.00  0.00     0.277 HD
ATOM     30  H21 UNL     1      11.453  17.523  15.295  1.00  0.00     0.277 HD
ENDBRANCH  22  27
ENDBRANCH  19  22
ENDBRANCH   1  18
TORSDOF 4
ENDMDL
MODEL 3
REMARK VINA RESULT: -6.598854028      2.010      2.963
REMARK  4 active torsions:
REMARK  status: ('A' for Active; 'I' for Inactive)
REMARK    1  A    between atoms: N1_1  and  C1_5 
REMARK    2  A    between atoms: C1_5  and  N2_6 
REMARK    3  A    between atoms: C1_5  and  C2_10 
REMARK       I    between atoms: C2_10  and  N3_12 
REMARK    4  A    between atoms: N3_12  and  C3_14 
ROOT
HETATM    1  C3  UNL     1       7.584  19.448  13.228  1.00  0.00     0.178 A 
HETATM    2  N4  UNL     1       7.170  18.731  14.291  1.00  0.00    -0.330 N 
ATOM      3  H4  UNL     1       6.180  18.758  14.538  1.00  0.00     0.168 HD
HETATM    4  C4  UNL     1       7.997  17.982  15.040  1.00  0.00     0.147 A 
HETATM    5  C5  UNL     1       7.552  17.255  16.126  1.00  0.00     0.280 A 
HETATM    6  O2  UNL     1       6.329  17.305  16.412  1.00  0.00    -0.265 OA
HETATM    7  N5  UNL     1       8.439  16.520  16.841  1.00  0.00    -0.273 N 
ATOM      8  H5  UNL     1       8.129  15.976  17.647  1.00  0.00     0.173 HD
HETATM    9  C6  UNL     1       9.737  16.517  16.471  1.00  0.00     0.328 A 
HETATM   10  O3  UNL     1      10.540  15.828  17.149  1.00  0.00    -0.247 OA
HETATM   11  N6  UNL     1      10.189  17.212  15.427  1.00  0.00    -0.292 N 
ATOM     12  H6  UNL     1      11.179  17.182  15.183  1.00  0.00     0.172 HD
HETATM   13  C7  UNL     1       9.334  17.954  14.694  1.00  0.00     0.145 A 
HETATM   14  N7  UNL     1       9.792  18.663  13.628  1.00  0.00    -0.304 N 
ATOM     15  H7  UNL     1      10.781  18.633  13.383  1.00  0.00     0.171 HD
HETATM   16  C8  UNL     1       8.940  19.404  12.898  1.00  0.00     0.291 A 
HETATM   17  O4  UNL     1       9.368  20.050  11.923  1.00  0.00    -0.264 OA
ENDROOT
BRANCH   1  18
HETATM   18  N3  UNL     1       6.837  20.167  12.495  1.00  0.00    -0.305 N 
HETATM   19  C2  UNL     1       6.178  21.342  12.839  1.00  0.00     0.281 C 
HETATM   20  O1  UNL     1       5.436  21.373  13.844  1.00  0.00    -0.269 OA
ATOM     21  H3  UNL     1       6.705  19.843  11.537  1.00  0.00     0.170 HD
BRANCH  19  22
HETATM   22  C1  UNL     1       6.317  22.585  12.055  1.00  0.00     0.468 C 
BRANCH  22  23
HETATM   23  N1  UNL     1       6.923  23.618  12.862  1.00  0.00    -0.042 N 
ATOM     24  H13 UNL     1       6.288  24.021  13.551  1.00  0.00     0.277 HD
ATOM     25  H12 UNL     1       7.616  23.265  13.522  1.00  0.00     0.277 HD
ATOM     26  H11 UNL     1       7.300  24.304  12.207  1.00  0.00     0.277 HD
ENDBRANCH  22  23
BRANCH  22  27
HETATM   27  N2  UNL     1       7.278  22.291  10.980  1.00  0.00    -0.042 N 
ATOM     28  H23 UNL     1       7.018  22.697  10.081  1.00  0.00     0.277 HD
ATOM     29  H22 UNL     1       8.167  22.780  11.086  1.00  0.00     0.277 HD
ATOM     30  H21 UNL     1       7.373  21.276  10.956  1.00  0.00     0.277 HD
ENDBRANCH  22  27
ENDBRANCH  19  22
ENDBRANCH   1  18
TORSDOF 4
ENDMDL
MODEL 4
REMARK VINA RESULT: -6.469644502      1.200      1.325
REMARK  4 active torsions:
REMARK  status: ('A' for Active; 'I' for Inactive)
REMARK    1  A    between atoms: N1_1  and  C1_5 
REMARK    2  A    between atoms: C1_5  and  N2_6 
REMARK    3  A    between atoms: C1_5  and  C2_10 
REMARK       I    between atoms: C2_10  and  N3_12 
REMARK    4  A    between atoms: N3_12  and  C3_14 
ROOT
HETATM    1  C3  UNL     1       7.271  19.355  15.172  1.00  0.00     0.178 A 
HETATM    2  N4  UNL     1       7.933  18.201  14.961  1.00  0.00    -0.330 N 
ATOM      3  H4  UNL     1       8.771  18.222  14.379  1.00  0.00     0.168 HD
HETATM    4  C4  UNL     1       7.543  17.023  15.478  1.00  0.00     0.147 A 
HETATM    5  C5  UNL     1       8.236  15.851  15.249  1.00  0.00     0.280 A 
HETATM    6  O2  UNL     1       9.265  15.903  14.529  1.00  0.00    -0.265 OA
HETATM    7  N5  UNL     1       7.789  14.697  15.802  1.00  0.00    -0.273 N 
ATOM      8  H5  UNL     1       8.288  13.820  15.644  1.00  0.00     0.173 HD
HETATM    9  C6  UNL     1       6.675  14.722  16.564  1.00  0.00     0.328 A 
HETATM   10  O3  UNL     1       6.281  13.640  17.065  1.00  0.00    -0.247 OA
HETATM   11  N6  UNL     1       5.990  15.841  16.798  1.00  0.00    -0.292 N 
ATOM     12  H6  UNL     1       5.153  15.816  17.380  1.00  0.00     0.172 HD
HETATM   13  C7  UNL     1       6.407  17.008  16.264  1.00  0.00     0.145 A 
HETATM   14  N7  UNL     1       5.710  18.151  16.502  1.00  0.00    -0.304 N 
ATOM     15  H7  UNL     1       4.873  18.127  17.085  1.00  0.00     0.171 HD
HETATM   16  C8  UNL     1       6.125  19.314  15.969  1.00  0.00     0.291 A 
HETATM   17  O4  UNL     1       5.480  20.356  16.193  1.00  0.00    -0.264 OA
ENDROOT
BRANCH   1  18
HETATM   18  N3  UNL     1       7.604  20.486  14.703  1.00  0.00    -0.305 N 
HETATM   19  C2  UNL     1       7.582  20.900  13.375  1.00  0.00     0.281 C 
HETATM   20  O1  UNL     1       8.160  20.224  12.498  1.00  0.00    -0.269 OA
ATOM     21  H3  UNL     1       7.927  21.175  15.381  1.00  0.00     0.170 HD
BRANCH  19  22
HETATM   22  C1  UNL     1       6.891  22.131  12.943  1.00  0.00     0.468 C 
BRANCH  22  23
HETATM   23  N1  UNL     1       7.446  23.279  13.622  1.00  0.00    -0.042 N 
ATOM     24  H13 UNL     1       8.437  23.181  13.842  1.00  0.00     0.277 HD
ATOM     25  H12 UNL     1       7.533  24.102  13.025  1.00  0.00     0.277 HD
ATOM     26  H11 UNL     1       6.860  23.432  14.443  1.00  0.00     0.277 HD
ENDBRANCH  22  23
BRANCH  22  27
HETATM   27  N2  UNL     1       7.211  22.306  11.518  1.00  0.00    -0.042 N 
ATOM     28  H23 UNL     1       7.905  23.034  11.344  1.00  0.00     0.277 HD
ATOM     29  H22 UNL     1       7.742  21.531  11.122  1.00  0.00     0.277 HD
ATOM     30  H21 UNL     1       6.322  22.472  11.046  1.00  0.00     0.277 HD
ENDBRANCH  22  27
ENDBRANCH  19  22
ENDBRANCH   1  18
TORSDOF 4
ENDMDL
MODEL 5
REMARK VINA RESULT: -6.462636819      1.577      1.768
REMARK  4 active torsions:
REMARK  status: ('A' for Active; 'I' for Inactive)
REMARK    1  A    between atoms: N1_1  and  C1_5 
REMARK    2  A    between atoms: C1_5  and  N2_6 
REMARK    3  A    between atoms: C1_5  and  C2_10 
REMARK       I    between atoms: C2_10  and  N3_12 
REMARK    4  A    between atoms: N3_12  and  C3_14 
ROOT
HETATM    1  C3  UNL     1       7.160  18.527  15.587  1.00  0.00     0.178 A 
HETATM    2  N4  UNL     1       7.801  17.386  15.266  1.00  0.00    -0.330 N 
ATOM      3  H4  UNL     1       8.653  17.448  14.709  1.00  0.00     0.168 HD
HETATM    4  C4  UNL     1       7.371  16.170  15.643  1.00  0.00     0.147 A 
HETATM    5  C5  UNL     1       8.043  15.012  15.304  1.00  0.00     0.280 A 
HETATM    6  O2  UNL     1       9.091  15.116  14.617  1.00  0.00    -0.265 OA
HETATM    7  N5  UNL     1       7.556  13.816  15.717  1.00  0.00    -0.273 N 
ATOM      8  H5  UNL     1       8.038  12.950  15.476  1.00  0.00     0.173 HD
HETATM    9  C6  UNL     1       6.424  13.788  16.452  1.00  0.00     0.328 A 
HETATM   10  O3  UNL     1       5.993  12.668  16.823  1.00  0.00    -0.247 OA
HETATM   11  N6  UNL     1       5.759  14.891  16.791  1.00  0.00    -0.292 N 
ATOM     12  H6  UNL     1       4.907  14.824  17.347  1.00  0.00     0.172 HD
HETATM   13  C7  UNL     1       6.216  16.098  16.397  1.00  0.00     0.145 A 
HETATM   14  N7  UNL     1       5.539  17.226  16.742  1.00  0.00    -0.304 N 
ATOM     15  H7  UNL     1       4.687  17.160  17.299  1.00  0.00     0.171 HD
HETATM   16  C8  UNL     1       5.994  18.429  16.349  1.00  0.00     0.291 A 
HETATM   17  O4  UNL     1       5.368  19.457  16.670  1.00  0.00    -0.264 OA
ENDROOT
BRANCH   1  18
HETATM   18  N3  UNL     1       7.531  19.693  15.251  1.00  0.00    -0.305 N 
HETATM   19  C2  UNL     1       7.274  20.361  14.059  1.00  0.00     0.281 C 
HETATM   20  O1  UNL     1       7.550  19.822  12.966  1.00  0.00    -0.269 OA
ATOM     21  H3  UNL     1       8.084  20.203  15.939  1.00  0.00     0.170 HD
BRANCH  19  22
HETATM   22  C1  UNL     1       6.676  21.711  14.022  1.00  0.00     0.468 C 
BRANCH  22  23
HETATM   23  N1  UNL     1       6.377  22.160  15.362  1.00  0.00    -0.042 N 
ATOM     24  H13 UNL     1       6.365  23.176  15.457  1.00  0.00     0.277 HD
ATOM     25  H12 UNL     1       5.409  21.997  15.639  1.00  0.00     0.277 HD
ATOM     26  H11 UNL     1       7.056  21.703  15.971  1.00  0.00     0.277 HD
ENDBRANCH  22  23
BRANCH  22  27
HETATM   27  N2  UNL     1       7.721  22.612  13.514  1.00  0.00    -0.042 N 
ATOM     28  H23 UNL     1       7.505  23.012  12.600  1.00  0.00     0.277 HD
ATOM     29  H22 UNL     1       7.781  23.494  14.024  1.00  0.00     0.277 HD
ATOM     30  H21 UNL     1       8.589  22.076  13.528  1.00  0.00     0.277 HD
ENDBRANCH  22  27
ENDBRANCH  19  22
ENDBRANCH   1  18
TORSDOF 4
ENDMDL
