MODEL 1
REMARK VINA RESULT: -6.900635515      0.000      0.000
REMARK  4 active torsions:
REMARK  status: ('A' for Active; 'I' for Inactive)
REMARK       I    between atoms: C1_4  and  N2_5 
REMARK       I    between atoms: C1_4  and  N4_10 
REMARK    1  A    between atoms: N2_5  and  N3_7 
REMARK    2  A    between atoms: C4_19  and  N7_20 
REMARK    3  A    between atoms: N7_20  and  N8_22 
REMARK    4  A    between atoms: N8_22  and  S1_24 
ROOT
HETATM    1  N1  UNL     1       6.293  19.059  13.835  1.00  0.00    -0.232 N 
ATOM      2  H11 UNL     1       6.099  18.496  13.007  1.00  0.00     0.174 HD
ATOM      3  H12 UNL     1       5.697  19.094  14.662  1.00  0.00     0.174 HD
HETATM    4  C1  UNL     1       7.364  19.785  13.853  1.00  0.00     0.715 C 
HETATM    5  N2  UNL     1       7.629  20.555  14.986  1.00  0.00    -0.138 N 
ATOM      6  H2  UNL     1       8.591  20.714  15.286  1.00  0.00     0.205 HD
HETATM    7  N4  UNL     1       8.194  19.737  12.699  1.00  0.00     0.079 N 
HETATM    8  C2  UNL     1       7.852  20.211  11.501  1.00  0.00     0.366 A 
HETATM    9  O1  UNL     1       6.716  20.740  11.387  1.00  0.00    -0.245 OA
HETATM   10  N5  UNL     1       8.639  20.164  10.412  1.00  0.00    -0.259 N 
ATOM     11  H5  UNL     1       8.333  20.542   9.516  1.00  0.00     0.175 HD
HETATM   12  C3  UNL     1       9.851  19.595  10.557  1.00  0.00     0.342 A 
HETATM   13  O2  UNL     1      10.658  19.509   9.578  1.00  0.00    -0.246 OA
HETATM   14  N6  UNL     1      10.241  19.102  11.745  1.00  0.00    -0.138 N 
ATOM     15  H6  UNL     1      11.163  18.674  11.836  1.00  0.00     0.189 HD
HETATM   16  C4  UNL     1       9.430  19.165  12.815  1.00  0.00     0.727 A 
ENDROOT
BRANCH  16  17
HETATM   17  N7  UNL     1       9.800  18.693  13.956  1.00  0.00    -0.120 N 
ATOM     18  H7  UNL     1       9.868  19.294  14.777  1.00  0.00     0.206 HD
BRANCH  17  19
HETATM   19  N8  UNL     1      10.105  17.332  14.031  1.00  0.00    -0.199 N 
ATOM     20  H8  UNL     1      10.905  16.991  13.499  1.00  0.00     0.201 HD
BRANCH  19  21
HETATM   21  S1  UNL     1       9.219  16.200  14.963  1.00  0.00     0.373 S 
HETATM   22  O3  UNL     1       7.809  16.626  15.183  1.00  0.00    -0.186 OA
HETATM   23  O4  UNL     1       9.236  14.817  14.349  1.00  0.00    -0.186 OA
ENDBRANCH  19  21
ENDBRANCH  17  19
ENDBRANCH  16  17
BRANCH   5  24
HETATM   24  N3  UNL     1       6.569  21.106  15.704  1.00  0.00    -0.331 N 
ATOM     25  H32 UNL     1       5.613  20.896  15.422  1.00  0.00     0.177 HD
ATOM     26  H31 UNL     1       6.764  21.712  16.502  1.00  0.00     0.177 HD
ENDBRANCH   5  24
TORSDOF 4
ENDMDL
MODEL 2
REMARK VINA RESULT: -6.846882340      2.351      4.647
REMARK  4 active torsions:
REMARK  status: ('A' for Active; 'I' for Inactive)
REMARK       I    between atoms: C1_4  and  N2_5 
REMARK       I    between atoms: C1_4  and  N4_10 
REMARK    1  A    between atoms: N2_5  and  N3_7 
REMARK    2  A    between atoms: C4_19  and  N7_20 
REMARK    3  A    between atoms: N7_20  and  N8_22 
REMARK    4  A    between atoms: N8_22  and  S1_24 
ROOT
HETATM    1  N1  UNL     1       9.562  16.327  14.701  1.00  0.00    -0.232 N 
ATOM      2  H11 UNL     1       8.806  15.906  14.160  1.00  0.00     0.174 HD
ATOM      3  H12 UNL     1      10.376  15.821  15.047  1.00  0.00     0.174 HD
HETATM    4  C1  UNL     1       9.497  17.590  14.975  1.00  0.00     0.715 C 
HETATM    5  N2  UNL     1      10.530  18.166  15.715  1.00  0.00    -0.138 N 
ATOM      6  H2  UNL     1      10.813  19.130  15.539  1.00  0.00     0.205 HD
HETATM    7  N4  UNL     1       8.360  18.297  14.493  1.00  0.00     0.079 N 
HETATM    8  C2  UNL     1       7.113  18.106  14.922  1.00  0.00     0.366 A 
HETATM    9  O1  UNL     1       6.932  17.240  15.817  1.00  0.00    -0.245 OA
HETATM   10  N5  UNL     1       6.041  18.775  14.464  1.00  0.00    -0.259 N 
ATOM     11  H5  UNL     1       5.105  18.593  14.825  1.00  0.00     0.175 HD
HETATM   12  C3  UNL     1       6.258  19.697  13.507  1.00  0.00     0.342 A 
HETATM   13  O2  UNL     1       5.300  20.375  13.018  1.00  0.00    -0.246 OA
HETATM   14  N6  UNL     1       7.498  19.926  13.041  1.00  0.00    -0.138 N 
ATOM     15  H6  UNL     1       7.643  20.628  12.316  1.00  0.00     0.189 HD
HETATM   16  C4  UNL     1       8.550  19.239  13.521  1.00  0.00     0.727 A 
ENDROOT
BRANCH  16  17
HETATM   17  N7  UNL     1       9.740  19.455  13.077  1.00  0.00    -0.120 N 
ATOM     18  H7  UNL     1      10.413  20.000  13.618  1.00  0.00     0.206 HD
BRANCH  17  19
HETATM   19  N8  UNL     1      10.081  18.920  11.833  1.00  0.00    -0.199 N 
ATOM     20  H8  UNL     1      10.572  18.027  11.815  1.00  0.00     0.201 HD
BRANCH  19  21
HETATM   21  S1  UNL     1       9.723  19.671  10.335  1.00  0.00     0.373 S 
HETATM   22  O3  UNL     1      10.074  18.811   9.171  1.00  0.00    -0.186 OA
HETATM   23  O4  UNL     1       8.271  20.084  10.235  1.00  0.00    -0.186 OA
ENDBRANCH  19  21
ENDBRANCH  17  19
ENDBRANCH  16  17
BRANCH   5  24
HETATM   24  N3  UNL     1      11.173  17.414  16.697  1.00  0.00    -0.331 N 
ATOM     25  H32 UNL     1      12.163  17.195  16.590  1.00  0.00     0.177 HD
ATOM     26  H31 UNL     1      10.645  17.092  17.509  1.00  0.00     0.177 HD
ENDBRANCH   5  24
TORSDOF 4
ENDMDL
MODEL 3
REMARK VINA RESULT: -6.763918404      2.197      4.370
REMARK  4 active torsions:
REMARK  status: ('A' for Active; 'I' for Inactive)
REMARK       I    between atoms: C1_4  and  N2_5 
REMARK       I    between atoms: C1_4  and  N4_10 
REMARK    1  A    between atoms: N2_5  and  N3_7 
REMARK    2  A    between atoms: C4_19  and  N7_20 
REMARK    3  A    between atoms: N7_20  and  N8_22 
REMARK    4  A    between atoms: N8_22  and  S1_24 
ROOT
HETATM    1  N1  UNL     1       7.302  20.568  15.371  1.00  0.00    -0.232 N 
ATOM      2  H11 UNL     1       7.645  20.206  16.261  1.00  0.00     0.174 HD
ATOM      3  H12 UNL     1       6.877  21.487  15.247  1.00  0.00     0.174 HD
HETATM    4  C1  UNL     1       7.406  19.823  14.318  1.00  0.00     0.715 C 
HETATM    5  N2  UNL     1       6.937  20.319  13.101  1.00  0.00    -0.138 N 
ATOM      6  H2  UNL     1       7.407  20.072  12.230  1.00  0.00     0.205 HD
HETATM    7  N4  UNL     1       7.999  18.542  14.491  1.00  0.00     0.079 N 
HETATM    8  C2  UNL     1       7.451  17.543  15.184  1.00  0.00     0.366 A 
HETATM    9  O1  UNL     1       6.332  17.751  15.720  1.00  0.00    -0.245 OA
HETATM   10  N5  UNL     1       8.014  16.333  15.346  1.00  0.00    -0.259 N 
ATOM     11  H5  UNL     1       7.555  15.600  15.886  1.00  0.00     0.175 HD
HETATM   12  C3  UNL     1       9.211  16.132  14.764  1.00  0.00     0.342 A 
HETATM   13  O2  UNL     1       9.814  15.017  14.867  1.00  0.00    -0.246 OA
HETATM   14  N6  UNL     1       9.804  17.109  14.055  1.00  0.00    -0.138 N 
ATOM     15  H6  UNL     1      10.711  16.938  13.621  1.00  0.00     0.189 HD
HETATM   16  C4  UNL     1       9.214  18.308  13.912  1.00  0.00     0.727 A 
ENDROOT
BRANCH  16  17
HETATM   17  N7  UNL     1       9.779  19.247  13.233  1.00  0.00    -0.120 N 
ATOM     18  H7  UNL     1       9.856  20.193  13.607  1.00  0.00     0.206 HD
BRANCH  17  19
HETATM   19  N8  UNL     1      10.282  18.929  11.970  1.00  0.00    -0.199 N 
ATOM     20  H8  UNL     1      11.041  18.251  11.915  1.00  0.00     0.201 HD
BRANCH  19  21
HETATM   21  S1  UNL     1       9.702  19.606  10.507  1.00  0.00     0.373 S 
HETATM   22  O3  UNL     1       9.987  18.742   9.329  1.00  0.00    -0.186 OA
HETATM   23  O4  UNL     1       8.220  19.905  10.564  1.00  0.00    -0.186 OA
ENDBRANCH  19  21
ENDBRANCH  17  19
ENDBRANCH  16  17
BRANCH   5  24
HETATM   24  N3  UNL     1       5.822  21.156  13.085  1.00  0.00    -0.331 N 
ATOM     25  H32 UNL     1       5.923  22.114  12.753  1.00  0.00     0.177 HD
ATOM     26  H31 UNL     1       4.922  20.799  13.406  1.00  0.00     0.177 HD
ENDBRANCH   5  24
TORSDOF 4
ENDMDL
MODEL 4
REMARK VINA RESULT: -6.459436308      2.751      5.336
REMARK  4 active torsions:
REMARK  status: ('A' for Active; 'I' for Inactive)
REMARK       I    between atoms: C1_4  and  N2_5 
REMARK       I    between atoms: C1_4  and  N4_10 
REMARK    1  A    between atoms: N2_5  and  N3_7 
REMARK    2  A    between atoms: C4_19  and  N7_20 
REMARK    3  A    between atoms: N7_20  and  N8_22 
REMARK    4  A    between atoms: N8_22  and  S1_24 
ROOT
HETATM    1  N1  UNL     1       9.895  17.103  14.355  1.00  0.00    -0.232 N 
ATOM      2  H11 UNL     1       9.338  16.698  13.602  1.00  0.00     0.174 HD
ATOM      3  H12 UNL     1      10.914  17.109  14.380  1.00  0.00     0.174 HD
HETATM    4  C1  UNL     1       9.280  17.653  15.352  1.00  0.00     0.715 C 
HETATM    5  N2  UNL     1      10.042  18.207  16.381  1.00  0.00    -0.138 N 
ATOM      6  H2  UNL     1       9.713  19.037  16.875  1.00  0.00     0.205 HD
HETATM    7  N4  UNL     1       7.858  17.645  15.317  1.00  0.00     0.079 N 
HETATM    8  C2  UNL     1       7.106  16.548  15.414  1.00  0.00     0.366 A 
HETATM    9  O1  UNL     1       7.698  15.447  15.548  1.00  0.00    -0.245 OA
HETATM   10  N5  UNL     1       5.762  16.544  15.380  1.00  0.00    -0.259 N 
ATOM     11  H5  UNL     1       5.230  15.678  15.459  1.00  0.00     0.175 HD
HETATM   12  C3  UNL     1       5.150  17.735  15.237  1.00  0.00     0.342 A 
HETATM   13  O2  UNL     1       3.882  17.822  15.195  1.00  0.00    -0.246 OA
HETATM   14  N6  UNL     1       5.865  18.868  15.134  1.00  0.00    -0.138 N 
ATOM     15  H6  UNL     1       5.384  19.761  15.027  1.00  0.00     0.189 HD
HETATM   16  C4  UNL     1       7.209  18.838  15.172  1.00  0.00     0.727 A 
ENDROOT
BRANCH  16  17
HETATM   17  N7  UNL     1       7.899  19.922  15.074  1.00  0.00    -0.120 N 
ATOM     18  H7  UNL     1       8.489  20.242  15.843  1.00  0.00     0.206 HD
BRANCH  17  19
HETATM   19  N8  UNL     1       7.812  20.646  13.883  1.00  0.00    -0.199 N 
ATOM     20  H8  UNL     1       7.431  21.590  13.923  1.00  0.00     0.201 HD
BRANCH  19  21
HETATM   21  S1  UNL     1       8.308  20.044  12.357  1.00  0.00     0.373 S 
HETATM   22  O3  UNL     1       8.207  21.070  11.283  1.00  0.00    -0.186 OA
HETATM   23  O4  UNL     1       9.714  19.489  12.391  1.00  0.00    -0.186 OA
ENDBRANCH  19  21
ENDBRANCH  17  19
ENDBRANCH  16  17
BRANCH   5  24
HETATM   24  N3  UNL     1      11.257  17.620  16.729  1.00  0.00    -0.331 N 
ATOM     25  H32 UNL     1      11.696  16.963  16.084  1.00  0.00     0.177 HD
ATOM     26  H31 UNL     1      11.691  17.854  17.622  1.00  0.00     0.177 HD
ENDBRANCH   5  24
TORSDOF 4
ENDMDL
MODEL 5
REMARK VINA RESULT: -6.322685974      2.514      5.063
REMARK  4 active torsions:
REMARK  status: ('A' for Active; 'I' for Inactive)
REMARK       I    between atoms: C1_4  and  N2_5 
REMARK       I    between atoms: C1_4  and  N4_10 
REMARK    1  A    between atoms: N2_5  and  N3_7 
REMARK    2  A    between atoms: C4_19  and  N7_20 
REMARK    3  A    between atoms: N7_20  and  N8_22 
REMARK    4  A    between atoms: N8_22  and  S1_24 
ROOT
HETATM    1  N1  UNL     1       9.601  16.117  15.087  1.00  0.00    -0.232 N 
ATOM      2  H11 UNL     1       8.853  15.564  14.667  1.00  0.00     0.174 HD
ATOM      3  H12 UNL     1      10.528  15.758  15.313  1.00  0.00     0.174 HD
HETATM    4  C1  UNL     1       9.373  17.362  15.356  1.00  0.00     0.715 C 
HETATM    5  N2  UNL     1      10.395  18.118  15.929  1.00  0.00    -0.138 N 
ATOM      6  H2  UNL     1      10.490  19.109  15.704  1.00  0.00     0.205 HD
HETATM    7  N4  UNL     1       8.079  17.863  15.041  1.00  0.00     0.079 N 
HETATM    8  C2  UNL     1       6.954  17.490  15.652  1.00  0.00     0.366 A 
HETATM    9  O1  UNL     1       7.047  16.637  16.572  1.00  0.00    -0.245 OA
HETATM   10  N5  UNL     1       5.733  17.965  15.352  1.00  0.00    -0.259 N 
ATOM     11  H5  UNL     1       4.901  17.649  15.849  1.00  0.00     0.175 HD
HETATM   12  C3  UNL     1       5.657  18.878  14.365  1.00  0.00     0.342 A 
HETATM   13  O2  UNL     1       4.542  19.379  14.017  1.00  0.00    -0.246 OA
HETATM   14  N6  UNL     1       6.764  19.285  13.718  1.00  0.00    -0.138 N 
ATOM     15  H6  UNL     1       6.686  19.977  12.973  1.00  0.00     0.189 HD
HETATM   16  C4  UNL     1       7.971  18.790  14.043  1.00  0.00     0.727 A 
ENDROOT
BRANCH  16  17
HETATM   17  N7  UNL     1       9.033  19.178  13.426  1.00  0.00    -0.120 N 
ATOM     18  H7  UNL     1       9.910  18.663  13.512  1.00  0.00     0.206 HD
BRANCH  17  19
HETATM   19  N8  UNL     1       8.947  20.325  12.634  1.00  0.00    -0.199 N 
ATOM     20  H8  UNL     1       9.101  21.228  13.082  1.00  0.00     0.201 HD
BRANCH  19  21
HETATM   21  S1  UNL     1       8.598  20.310  10.957  1.00  0.00     0.373 S 
HETATM   22  O3  UNL     1       9.519  19.423  10.194  1.00  0.00    -0.186 OA
HETATM   23  O4  UNL     1       7.167  19.910  10.675  1.00  0.00    -0.186 OA
ENDBRANCH  19  21
ENDBRANCH  17  19
ENDBRANCH  16  17
BRANCH   5  24
HETATM   24  N3  UNL     1      11.286  17.511  16.812  1.00  0.00    -0.331 N 
ATOM     25  H32 UNL     1      10.931  16.854  17.506  1.00  0.00     0.177 HD
ATOM     26  H31 UNL     1      12.281  17.731  16.752  1.00  0.00     0.177 HD
ENDBRANCH   5  24
TORSDOF 4
ENDMDL
