MODEL 1
REMARK VINA RESULT: -6.691737895      0.000      0.000
REMARK  4 active torsions:
REMARK  status: ('A' for Active; 'I' for Inactive)
REMARK    1  A    between atoms: S1_2  and  N1_5 
REMARK    2  A    between atoms: N1_5  and  N2_7 
REMARK    3  A    between atoms: N2_7  and  C2_9 
REMARK    4  A    between atoms: N6_21  and  N7_23 
ROOT
HETATM    1  C2  UNL     1       7.605  19.253  14.927  1.00  0.00     0.171 C 
HETATM    2  N3  UNL     1       6.615  18.644  15.595  1.00  0.00    -0.290 N 
ATOM      3  H3  UNL     1       6.741  17.646  15.760  1.00  0.00     0.172 HD
HETATM    4  C3  UNL     1       5.462  19.185  16.083  1.00  0.00     0.329 C 
HETATM    5  O3  UNL     1       4.652  18.389  16.603  1.00  0.00    -0.246 OA
HETATM    6  N4  UNL     1       5.099  20.496  16.061  1.00  0.00    -0.260 N 
ATOM      7  H4  UNL     1       4.209  20.694  16.517  1.00  0.00     0.175 HD
HETATM    8  C4  UNL     1       5.710  21.577  15.543  1.00  0.00     0.329 C 
HETATM    9  O4  UNL     1       5.267  22.723  15.881  1.00  0.00    -0.246 OA
HETATM   10  N5  UNL     1       6.753  21.550  14.693  1.00  0.00    -0.290 N 
ATOM     11  H5  UNL     1       7.005  22.447  14.277  1.00  0.00     0.172 HD
HETATM   12  C5  UNL     1       7.515  20.496  14.314  1.00  0.00     0.170 C 
HETATM   13  N6  UNL     1       8.237  20.674  13.262  1.00  0.00    -0.289 N 
ATOM     14  H6  UNL     1       8.199  21.574  12.784  1.00  0.00     0.188 HD
ENDROOT
BRANCH   1  15
HETATM   15  N2  UNL     1       8.752  18.679  14.815  1.00  0.00    -0.273 N 
ATOM     16  H2  UNL     1       9.185  18.647  13.893  1.00  0.00     0.189 HD
BRANCH  15  17
HETATM   17  N1  UNL     1       9.432  18.102  15.875  1.00  0.00    -0.226 N 
ATOM     18  H1  UNL     1      10.070  18.676  16.427  1.00  0.00     0.200 HD
BRANCH  17  19
HETATM   19  S1  UNL     1       9.229  16.447  16.284  1.00  0.00     0.240 S 
HETATM   20  C1  UNL     1       9.220  15.406  14.847  1.00  0.00     0.187 C 
HETATM   21  O1  UNL     1      10.375  16.013  17.147  1.00  0.00    -0.205 OA
HETATM   22  O2  UNL     1       7.972  16.241  17.056  1.00  0.00    -0.205 OA
ENDBRANCH  17  19
ENDBRANCH  15  17
ENDBRANCH   1  15
BRANCH  13  23
HETATM   23  N7  UNL     1       9.065  19.679  12.760  1.00  0.00    -0.344 N 
ATOM     24  H72 UNL     1      10.024  19.930  12.521  1.00  0.00     0.176 HD
ATOM     25  H71 UNL     1       8.741  18.721  12.629  1.00  0.00     0.176 HD
ENDBRANCH  13  23
TORSDOF 4
ENDMDL
MODEL 2
REMARK VINA RESULT: -6.605336018      2.653      5.200
REMARK  4 active torsions:
REMARK  status: ('A' for Active; 'I' for Inactive)
REMARK    1  A    between atoms: S1_2  and  N1_5 
REMARK    2  A    between atoms: N1_5  and  N2_7 
REMARK    3  A    between atoms: N2_7  and  C2_9 
REMARK    4  A    between atoms: N6_21  and  N7_23 
ROOT
HETATM    1  C2  UNL     1       8.463  17.391  15.819  1.00  0.00     0.171 C 
HETATM    2  N3  UNL     1       7.138  17.461  16.005  1.00  0.00    -0.290 N 
ATOM      3  H3  UNL     1       6.729  18.392  15.933  1.00  0.00     0.172 HD
HETATM    4  C3  UNL     1       6.263  16.450  16.278  1.00  0.00     0.329 C 
HETATM    5  O3  UNL     1       5.078  16.782  16.489  1.00  0.00    -0.246 OA
HETATM    6  N4  UNL     1       6.545  15.120  16.346  1.00  0.00    -0.260 N 
ATOM      7  H4  UNL     1       5.735  14.527  16.525  1.00  0.00     0.175 HD
HETATM    8  C4  UNL     1       7.706  14.452  16.219  1.00  0.00     0.329 C 
HETATM    9  O4  UNL     1       7.645  13.186  16.082  1.00  0.00    -0.246 OA
HETATM   10  N5  UNL     1       8.931  15.009  16.225  1.00  0.00    -0.290 N 
ATOM     11  H5  UNL     1       9.711  14.354  16.269  1.00  0.00     0.172 HD
HETATM   12  C5  UNL     1       9.269  16.319  16.181  1.00  0.00     0.170 C 
HETATM   13  N6  UNL     1      10.482  16.598  16.516  1.00  0.00    -0.289 N 
ATOM     14  H6  UNL     1      11.106  15.838  16.788  1.00  0.00     0.188 HD
ENDROOT
BRANCH   1  15
HETATM   15  N2  UNL     1       9.086  18.371  15.266  1.00  0.00    -0.273 N 
ATOM     16  H2  UNL     1       9.927  18.725  15.723  1.00  0.00     0.189 HD
BRANCH  15  17
HETATM   17  N1  UNL     1       8.682  18.974  14.086  1.00  0.00    -0.226 N 
ATOM     18  H1  UNL     1       9.216  18.804  13.233  1.00  0.00     0.200 HD
BRANCH  17  19
HETATM   19  S1  UNL     1       7.308  20.001  14.022  1.00  0.00     0.240 S 
HETATM   20  C1  UNL     1       7.561  21.380  12.934  1.00  0.00     0.187 C 
HETATM   21  O1  UNL     1       6.139  19.221  13.496  1.00  0.00    -0.205 OA
HETATM   22  O2  UNL     1       6.951  20.498  15.380  1.00  0.00    -0.205 OA
ENDBRANCH  17  19
ENDBRANCH  15  17
ENDBRANCH   1  15
BRANCH  13  23
HETATM   23  N7  UNL     1      10.965  17.900  16.518  1.00  0.00    -0.344 N 
ATOM     24  H72 UNL     1      10.323  18.648  16.777  1.00  0.00     0.176 HD
ATOM     25  H71 UNL     1      11.931  18.119  16.271  1.00  0.00     0.176 HD
ENDBRANCH  13  23
TORSDOF 4
ENDMDL
MODEL 3
REMARK VINA RESULT: -6.432714666      2.648      3.831
REMARK  4 active torsions:
REMARK  status: ('A' for Active; 'I' for Inactive)
REMARK    1  A    between atoms: S1_2  and  N1_5 
REMARK    2  A    between atoms: N1_5  and  N2_7 
REMARK    3  A    between atoms: N2_7  and  C2_9 
REMARK    4  A    between atoms: N6_21  and  N7_23 
ROOT
HETATM    1  C2  UNL     1       9.713  17.708  14.287  1.00  0.00     0.171 C 
HETATM    2  N3  UNL     1       9.883  18.191  13.049  1.00  0.00    -0.290 N 
ATOM      3  H3  UNL     1      10.518  17.662  12.451  1.00  0.00     0.172 HD
HETATM    4  C3  UNL     1       9.319  19.296  12.482  1.00  0.00     0.329 C 
HETATM    5  O3  UNL     1       9.701  19.585  11.329  1.00  0.00    -0.246 OA
HETATM    6  N4  UNL     1       8.388  20.116  13.040  1.00  0.00    -0.260 N 
ATOM      7  H4  UNL     1       8.068  20.867  12.428  1.00  0.00     0.175 HD
HETATM    8  C4  UNL     1       7.816  20.110  14.258  1.00  0.00     0.329 C 
HETATM    9  O4  UNL     1       6.791  20.848  14.432  1.00  0.00    -0.246 OA
HETATM   10  N5  UNL     1       8.236  19.389  15.313  1.00  0.00    -0.290 N 
ATOM     11  H5  UNL     1       7.788  19.607  16.202  1.00  0.00     0.172 HD
HETATM   12  C5  UNL     1       9.173  18.412  15.356  1.00  0.00     0.170 C 
HETATM   13  N6  UNL     1       9.611  18.105  16.529  1.00  0.00    -0.289 N 
ATOM     14  H6  UNL     1       9.239  18.599  17.340  1.00  0.00     0.188 HD
ENDROOT
BRANCH   1  15
HETATM   15  N2  UNL     1      10.064  16.500  14.560  1.00  0.00    -0.273 N 
ATOM     16  H2  UNL     1      11.000  16.345  14.933  1.00  0.00     0.189 HD
BRANCH  15  17
HETATM   17  N1  UNL     1       9.244  15.399  14.374  1.00  0.00    -0.226 N 
ATOM     18  H1  UNL     1       9.301  14.880  13.498  1.00  0.00     0.200 HD
BRANCH  17  19
HETATM   19  S1  UNL     1       8.135  14.886  15.581  1.00  0.00     0.240 S 
HETATM   20  C1  UNL     1       6.669  15.885  15.600  1.00  0.00     0.187 C 
HETATM   21  O1  UNL     1       7.716  13.476  15.291  1.00  0.00    -0.205 OA
HETATM   22  O2  UNL     1       8.769  14.906  16.928  1.00  0.00    -0.205 OA
ENDBRANCH  17  19
ENDBRANCH  15  17
ENDBRANCH   1  15
BRANCH  13  23
HETATM   23  N7  UNL     1      10.574  17.122  16.722  1.00  0.00    -0.344 N 
ATOM     24  H72 UNL     1      11.475  17.239  16.260  1.00  0.00     0.176 HD
ATOM     25  H71 UNL     1      10.401  16.302  17.304  1.00  0.00     0.176 HD
ENDBRANCH  13  23
TORSDOF 4
ENDMDL
MODEL 4
REMARK VINA RESULT: -6.413868344      2.905      5.186
REMARK  4 active torsions:
REMARK  status: ('A' for Active; 'I' for Inactive)
REMARK    1  A    between atoms: S1_2  and  N1_5 
REMARK    2  A    between atoms: N1_5  and  N2_7 
REMARK    3  A    between atoms: N2_7  and  C2_9 
REMARK    4  A    between atoms: N6_21  and  N7_23 
ROOT
HETATM    1  C2  UNL     1       8.147  17.551  15.620  1.00  0.00     0.171 C 
HETATM    2  N3  UNL     1       6.847  17.529  15.945  1.00  0.00    -0.290 N 
ATOM      3  H3  UNL     1       6.407  18.440  16.075  1.00  0.00     0.172 HD
HETATM    4  C3  UNL     1       6.033  16.449  16.125  1.00  0.00     0.329 C 
HETATM    5  O3  UNL     1       4.869  16.688  16.507  1.00  0.00    -0.246 OA
HETATM    6  N4  UNL     1       6.357  15.141  15.936  1.00  0.00    -0.260 N 
ATOM      7  H4  UNL     1       5.586  14.491  16.090  1.00  0.00     0.175 HD
HETATM    8  C4  UNL     1       7.515  14.556  15.581  1.00  0.00     0.329 C 
HETATM    9  O4  UNL     1       7.475  13.329  15.235  1.00  0.00    -0.246 OA
HETATM   10  N5  UNL     1       8.718  15.157  15.561  1.00  0.00    -0.290 N 
ATOM     11  H5  UNL     1       9.517  14.540  15.414  1.00  0.00     0.172 HD
HETATM   12  C5  UNL     1       9.015  16.470  15.710  1.00  0.00     0.170 C 
HETATM   13  N6  UNL     1      10.248  16.742  15.966  1.00  0.00    -0.289 N 
ATOM     14  H6  UNL     1      10.918  15.976  16.040  1.00  0.00     0.188 HD
ENDROOT
BRANCH   1  15
HETATM   15  N2  UNL     1       8.682  18.637  15.184  1.00  0.00    -0.273 N 
ATOM     16  H2  UNL     1       9.688  18.644  15.018  1.00  0.00     0.189 HD
BRANCH  15  17
HETATM   17  N1  UNL     1       7.970  19.797  14.927  1.00  0.00    -0.226 N 
ATOM     18  H1  UNL     1       7.619  20.348  15.710  1.00  0.00     0.200 HD
BRANCH  17  19
HETATM   19  S1  UNL     1       7.664  20.332  13.324  1.00  0.00     0.240 S 
HETATM   20  C1  UNL     1       7.284  22.064  13.265  1.00  0.00     0.187 C 
HETATM   21  O1  UNL     1       8.893  20.112  12.492  1.00  0.00    -0.205 OA
HETATM   22  O2  UNL     1       6.551  19.557  12.708  1.00  0.00    -0.205 OA
ENDBRANCH  17  19
ENDBRANCH  15  17
ENDBRANCH   1  15
BRANCH  13  23
HETATM   23  N7  UNL     1      10.694  18.046  16.144  1.00  0.00    -0.344 N 
ATOM     24  H72 UNL     1      10.105  18.684  16.677  1.00  0.00     0.176 HD
ATOM     25  H71 UNL     1      11.581  18.371  15.759  1.00  0.00     0.176 HD
ENDBRANCH  13  23
TORSDOF 4
ENDMDL
MODEL 5
REMARK VINA RESULT: -6.330716284      2.909      4.793
REMARK  4 active torsions:
REMARK  status: ('A' for Active; 'I' for Inactive)
REMARK    1  A    between atoms: S1_2  and  N1_5 
REMARK    2  A    between atoms: N1_5  and  N2_7 
REMARK    3  A    between atoms: N2_7  and  C2_9 
REMARK    4  A    between atoms: N6_21  and  N7_23 
ROOT
HETATM    1  C2  UNL     1       7.916  18.354  14.999  1.00  0.00     0.171 C 
HETATM    2  N3  UNL     1       6.856  18.969  15.541  1.00  0.00    -0.290 N 
ATOM      3  H3  UNL     1       6.742  19.953  15.297  1.00  0.00     0.172 HD
HETATM    4  C3  UNL     1       5.908  18.452  16.375  1.00  0.00     0.329 C 
HETATM    5  O3  UNL     1       5.056  19.254  16.812  1.00  0.00    -0.246 OA
HETATM    6  N4  UNL     1       5.793  17.159  16.782  1.00  0.00    -0.260 N 
ATOM      7  H4  UNL     1       4.986  16.975  17.377  1.00  0.00     0.175 HD
HETATM    8  C4  UNL     1       6.559  16.081  16.536  1.00  0.00     0.329 C 
HETATM    9  O4  UNL     1       6.084  14.937  16.841  1.00  0.00    -0.246 OA
HETATM   10  N5  UNL     1       7.791  16.106  15.994  1.00  0.00    -0.290 N 
ATOM     11  H5  UNL     1       8.297  15.221  16.011  1.00  0.00     0.172 HD
HETATM   12  C5  UNL     1       8.450  17.146  15.429  1.00  0.00     0.170 C 
HETATM   13  N6  UNL     1       9.720  16.989  15.276  1.00  0.00    -0.289 N 
ATOM     14  H6  UNL     1      10.150  16.116  15.579  1.00  0.00     0.188 HD
ENDROOT
BRANCH   1  15
HETATM   15  N2  UNL     1       8.526  18.887  13.999  1.00  0.00    -0.273 N 
ATOM     16  H2  UNL     1       9.208  18.320  13.496  1.00  0.00     0.189 HD
BRANCH  15  17
HETATM   17  N1  UNL     1       8.309  20.184  13.566  1.00  0.00    -0.226 N 
ATOM     18  H1  UNL     1       8.399  20.952  14.232  1.00  0.00     0.200 HD
BRANCH  17  19
HETATM   19  S1  UNL     1       7.892  20.535  11.938  1.00  0.00     0.240 S 
HETATM   20  C1  UNL     1       9.207  20.132  10.816  1.00  0.00     0.187 C 
HETATM   21  O1  UNL     1       6.701  19.711  11.549  1.00  0.00    -0.205 OA
HETATM   22  O2  UNL     1       7.526  21.970  11.780  1.00  0.00    -0.205 OA
ENDBRANCH  17  19
ENDBRANCH  15  17
ENDBRANCH   1  15
BRANCH  13  23
HETATM   23  N7  UNL     1      10.521  17.974  14.712  1.00  0.00    -0.344 N 
ATOM     24  H72 UNL     1      10.218  18.391  13.832  1.00  0.00     0.176 HD
ATOM     25  H71 UNL     1      11.388  18.284  15.152  1.00  0.00     0.176 HD
ENDBRANCH  13  23
TORSDOF 4
ENDMDL
