MODEL 1
REMARK VINA RESULT: -6.577017056      0.000      0.000
REMARK  4 active torsions:
REMARK  status: ('A' for Active; 'I' for Inactive)
REMARK    1  A    between atoms: N1_1  and  N2_4 
REMARK       I    between atoms: N2_4  and  C1_6 
REMARK    2  A    between atoms: C1_6  and  C2_8 
REMARK       I    between atoms: C2_8  and  N3_10 
REMARK    3  A    between atoms: N3_10  and  C3_12 
REMARK    4  A    between atoms: C5_19  and  S1_20 
ROOT
HETATM    1  C3  UNL     1       5.725  15.469  15.459  1.00  0.00     0.154 A 
HETATM    2  N4  UNL     1       4.703  16.154  14.953  1.00  0.00    -0.292 N 
ATOM      3  H4  UNL     1       4.650  17.171  14.920  1.00  0.00     0.172 HD
HETATM    4  C4  UNL     1       3.736  15.316  14.486  1.00  0.00     0.327 A 
HETATM    5  O3  UNL     1       2.642  15.608  13.948  1.00  0.00    -0.247 OA
HETATM    6  N5  UNL     1       4.159  14.061  14.703  1.00  0.00    -0.294 N 
ATOM      7  H5  UNL     1       3.656  13.208  14.462  1.00  0.00     0.171 HD
HETATM    8  C5  UNL     1       5.364  14.130  15.292  1.00  0.00     0.199 A 
ENDROOT
BRANCH   1   9
HETATM    9  N3  UNL     1       6.945  15.856  16.054  1.00  0.00    -0.302 N 
HETATM   10  C2  UNL     1       8.194  15.882  15.380  1.00  0.00     0.316 C 
HETATM   11  O2  UNL     1       8.236  15.540  14.174  1.00  0.00    -0.262 OA
ATOM     12  H3  UNL     1       6.928  16.136  17.035  1.00  0.00     0.171 HD
BRANCH  10  13
HETATM   13  C1  UNL     1       9.416  16.297  16.073  1.00  0.00     0.327 C 
HETATM   14  N2  UNL     1      10.293  17.268  15.532  1.00  0.00    -0.268 N 
ATOM     15  H2  UNL     1      10.068  17.693  14.633  1.00  0.00     0.190 HD
HETATM   16  O1  UNL     1       9.666  15.756  17.177  1.00  0.00    -0.261 OA
BRANCH  14  17
HETATM   17  N1  UNL     1      11.457  17.661  16.196  1.00  0.00    -0.342 N 
ATOM     18  H12 UNL     1      11.427  17.738  17.212  1.00  0.00     0.176 HD
ATOM     19  H11 UNL     1      12.320  17.869  15.693  1.00  0.00     0.176 HD
ENDBRANCH  14  17
ENDBRANCH  10  13
ENDBRANCH   1   9
BRANCH   8  20
HETATM   20  S1  UNL     1       6.288  12.720  15.755  1.00  0.00     0.158 S 
HETATM   21  O4  UNL     1       7.146  13.144  16.940  1.00  0.00    -0.590 OA
HETATM   22  O5  UNL     1       7.219  12.269  14.692  1.00  0.00    -0.590 OA
HETATM   23  O6  UNL     1       5.308  11.473  16.248  1.00  0.00    -0.590 OA
ENDBRANCH   8  20
TORSDOF 4
ENDMDL
MODEL 2
REMARK VINA RESULT: -6.481452699      5.922      7.228
REMARK  4 active torsions:
REMARK  status: ('A' for Active; 'I' for Inactive)
REMARK    1  A    between atoms: N1_1  and  N2_4 
REMARK       I    between atoms: N2_4  and  C1_6 
REMARK    2  A    between atoms: C1_6  and  C2_8 
REMARK       I    between atoms: C2_8  and  N3_10 
REMARK    3  A    between atoms: N3_10  and  C3_12 
REMARK    4  A    between atoms: C5_19  and  S1_20 
ROOT
HETATM    1  C3  UNL     1       7.297  21.142  13.170  1.00  0.00     0.154 A 
HETATM    2  N4  UNL     1       6.794  22.138  13.895  1.00  0.00    -0.292 N 
ATOM      3  H4  UNL     1       6.784  22.160  14.915  1.00  0.00     0.172 HD
HETATM    4  C4  UNL     1       6.295  23.122  13.097  1.00  0.00     0.327 A 
HETATM    5  O3  UNL     1       5.751  24.199  13.433  1.00  0.00    -0.247 OA
HETATM    6  N5  UNL     1       6.488  22.738  11.826  1.00  0.00    -0.294 N 
ATOM      7  H5  UNL     1       6.222  23.263  10.994  1.00  0.00     0.171 HD
HETATM    8  C5  UNL     1       7.094  21.540  11.846  1.00  0.00     0.199 A 
ENDROOT
BRANCH   1   9
HETATM    9  N3  UNL     1       7.916  19.919  13.507  1.00  0.00    -0.302 N 
HETATM   10  C2  UNL     1       7.346  18.942  14.365  1.00  0.00     0.316 C 
HETATM   11  O2  UNL     1       6.218  19.163  14.867  1.00  0.00    -0.262 OA
ATOM     12  H3  UNL     1       8.834  19.724  13.108  1.00  0.00     0.171 HD
BRANCH  10  13
HETATM   13  C1  UNL     1       8.057  17.696  14.665  1.00  0.00     0.327 C 
HETATM   14  N2  UNL     1       9.459  17.660  14.857  1.00  0.00    -0.268 N 
ATOM     15  H2  UNL     1       9.992  18.527  14.786  1.00  0.00     0.190 HD
HETATM   16  O1  UNL     1       7.375  16.647  14.746  1.00  0.00    -0.261 OA
BRANCH  14  17
HETATM   17  N1  UNL     1      10.134  16.472  15.143  1.00  0.00    -0.342 N 
ATOM     18  H12 UNL     1      10.273  15.805  14.384  1.00  0.00     0.176 HD
ATOM     19  H11 UNL     1      10.483  16.262  16.078  1.00  0.00     0.176 HD
ENDBRANCH  14  17
ENDBRANCH  10  13
ENDBRANCH   1   9
BRANCH   8  20
HETATM   20  S1  UNL     1       7.536  20.663  10.400  1.00  0.00     0.158 S 
HETATM   21  O4  UNL     1       6.524  19.534  10.260  1.00  0.00    -0.590 OA
HETATM   22  O5  UNL     1       8.874  20.030  10.498  1.00  0.00    -0.590 OA
HETATM   23  O6  UNL     1       7.434  21.617   9.043  1.00  0.00    -0.590 OA
ENDBRANCH   8  20
TORSDOF 4
ENDMDL
MODEL 3
REMARK VINA RESULT: -6.418926071      1.536      1.605
REMARK  4 active torsions:
REMARK  status: ('A' for Active; 'I' for Inactive)
REMARK    1  A    between atoms: N1_1  and  N2_4 
REMARK       I    between atoms: N2_4  and  C1_6 
REMARK    2  A    between atoms: C1_6  and  C2_8 
REMARK       I    between atoms: C2_8  and  N3_10 
REMARK    3  A    between atoms: N3_10  and  C3_12 
REMARK    4  A    between atoms: C5_19  and  S1_20 
ROOT
HETATM    1  C3  UNL     1       5.836  15.638  16.084  1.00  0.00     0.154 A 
HETATM    2  N4  UNL     1       4.741  16.375  16.254  1.00  0.00    -0.292 N 
ATOM      3  H4  UNL     1       4.727  17.394  16.260  1.00  0.00     0.172 HD
HETATM    4  C4  UNL     1       3.642  15.587  16.418  1.00  0.00     0.327 A 
HETATM    5  O3  UNL     1       2.452  15.935  16.600  1.00  0.00    -0.247 OA
HETATM    6  N5  UNL     1       4.053  14.312  16.350  1.00  0.00    -0.294 N 
ATOM      7  H5  UNL     1       3.463  13.485  16.436  1.00  0.00     0.171 HD
HETATM    8  C5  UNL     1       5.381  14.319  16.148  1.00  0.00     0.199 A 
ENDROOT
BRANCH   1   9
HETATM    9  N3  UNL     1       7.195  15.962  15.879  1.00  0.00    -0.302 N 
HETATM   10  C2  UNL     1       7.650  17.029  15.062  1.00  0.00     0.316 C 
HETATM   11  O2  UNL     1       6.804  17.743  14.473  1.00  0.00    -0.262 OA
ATOM     12  H3  UNL     1       7.896  15.390  16.350  1.00  0.00     0.171 HD
BRANCH  10  13
HETATM   13  C1  UNL     1       9.082  17.297  14.902  1.00  0.00     0.327 C 
HETATM   14  N2  UNL     1       9.958  17.382  16.011  1.00  0.00    -0.268 N 
ATOM     15  H2  UNL     1       9.582  17.252  16.951  1.00  0.00     0.190 HD
HETATM   16  O1  UNL     1       9.514  17.452  13.735  1.00  0.00    -0.261 OA
BRANCH  14  17
HETATM   17  N1  UNL     1      11.322  17.637  15.856  1.00  0.00    -0.342 N 
ATOM     18  H12 UNL     1      11.790  17.258  15.033  1.00  0.00     0.176 HD
ATOM     19  H11 UNL     1      11.848  18.185  16.536  1.00  0.00     0.176 HD
ENDBRANCH  14  17
ENDBRANCH  10  13
ENDBRANCH   1   9
BRANCH   8  20
HETATM   20  S1  UNL     1       6.337  12.863  15.996  1.00  0.00     0.158 S 
HETATM   21  O4  UNL     1       7.459  12.982  17.019  1.00  0.00    -0.590 OA
HETATM   22  O5  UNL     1       6.980  12.734  14.666  1.00  0.00    -0.590 OA
HETATM   23  O6  UNL     1       5.453  11.503  16.357  1.00  0.00    -0.590 OA
ENDBRANCH   8  20
TORSDOF 4
ENDMDL
MODEL 4
REMARK VINA RESULT: -6.386430092      3.531      5.873
REMARK  4 active torsions:
REMARK  status: ('A' for Active; 'I' for Inactive)
REMARK    1  A    between atoms: N1_1  and  N2_4 
REMARK       I    between atoms: N2_4  and  C1_6 
REMARK    2  A    between atoms: C1_6  and  C2_8 
REMARK       I    between atoms: C2_8  and  N3_10 
REMARK    3  A    between atoms: N3_10  and  C3_12 
REMARK    4  A    between atoms: C5_19  and  S1_20 
ROOT
HETATM    1  C3  UNL     1       7.966  18.351  14.065  1.00  0.00     0.154 A 
HETATM    2  N4  UNL     1       8.327  19.038  12.984  1.00  0.00    -0.292 N 
ATOM      3  H4  UNL     1       7.771  19.782  12.562  1.00  0.00     0.172 HD
HETATM    4  C4  UNL     1       9.535  18.618  12.517  1.00  0.00     0.327 A 
HETATM    5  O3  UNL     1      10.177  19.036  11.526  1.00  0.00    -0.247 OA
HETATM    6  N5  UNL     1       9.953  17.634  13.327  1.00  0.00    -0.294 N 
ATOM      7  H5  UNL     1      10.827  17.115  13.240  1.00  0.00     0.171 HD
HETATM    8  C5  UNL     1       9.017  17.455  14.273  1.00  0.00     0.199 A 
ENDROOT
BRANCH   1   9
HETATM    9  N3  UNL     1       6.832  18.397  14.905  1.00  0.00    -0.302 N 
HETATM   10  C2  UNL     1       5.652  19.132  14.618  1.00  0.00     0.316 C 
HETATM   11  O2  UNL     1       5.594  19.790  13.553  1.00  0.00    -0.262 OA
ATOM     12  H3  UNL     1       6.864  17.868  15.776  1.00  0.00     0.171 HD
BRANCH  10  13
HETATM   13  C1  UNL     1       4.518  19.127  15.546  1.00  0.00     0.327 C 
HETATM   14  N2  UNL     1       4.372  18.136  16.548  1.00  0.00    -0.268 N 
ATOM     15  H2  UNL     1       5.077  17.403  16.626  1.00  0.00     0.190 HD
HETATM   16  O1  UNL     1       3.668  20.041  15.425  1.00  0.00    -0.261 OA
BRANCH  14  17
HETATM   17  N1  UNL     1       3.291  18.134  17.431  1.00  0.00    -0.342 N 
ATOM     18  H12 UNL     1       3.226  18.891  18.111  1.00  0.00     0.176 HD
ATOM     19  H11 UNL     1       2.579  17.405  17.409  1.00  0.00     0.176 HD
ENDBRANCH  14  17
ENDBRANCH  10  13
ENDBRANCH   1   9
BRANCH   8  20
HETATM   20  S1  UNL     1       9.154  16.263  15.546  1.00  0.00     0.158 S 
HETATM   21  O4  UNL     1       9.517  14.951  14.863  1.00  0.00    -0.590 OA
HETATM   22  O5  UNL     1       7.875  16.036  16.260  1.00  0.00    -0.590 OA
HETATM   23  O6  UNL     1      10.368  16.640  16.616  1.00  0.00    -0.590 OA
ENDBRANCH   8  20
TORSDOF 4
ENDMDL
MODEL 5
REMARK VINA RESULT: -6.376005733      3.198      5.657
REMARK  4 active torsions:
REMARK  status: ('A' for Active; 'I' for Inactive)
REMARK    1  A    between atoms: N1_1  and  N2_4 
REMARK       I    between atoms: N2_4  and  C1_6 
REMARK    2  A    between atoms: C1_6  and  C2_8 
REMARK       I    between atoms: C2_8  and  N3_10 
REMARK    3  A    between atoms: N3_10  and  C3_12 
REMARK    4  A    between atoms: C5_19  and  S1_20 
ROOT
HETATM    1  C3  UNL     1       7.148  17.966  14.407  1.00  0.00     0.154 A 
HETATM    2  N4  UNL     1       7.271  18.915  13.484  1.00  0.00    -0.292 N 
ATOM      3  H4  UNL     1       6.501  19.488  13.140  1.00  0.00     0.172 HD
HETATM    4  C4  UNL     1       8.561  19.021  13.059  1.00  0.00     0.327 A 
HETATM    5  O3  UNL     1       9.040  19.802  12.204  1.00  0.00    -0.247 OA
HETATM    6  N5  UNL     1       9.277  18.110  13.735  1.00  0.00    -0.294 N 
ATOM      7  H5  UNL     1      10.279  17.944  13.641  1.00  0.00     0.171 HD
HETATM    8  C5  UNL     1       8.441  17.458  14.559  1.00  0.00     0.199 A 
ENDROOT
BRANCH   1   9
HETATM    9  N3  UNL     1       6.050  17.474  15.146  1.00  0.00    -0.302 N 
HETATM   10  C2  UNL     1       5.099  18.292  15.809  1.00  0.00     0.316 C 
HETATM   11  O2  UNL     1       5.227  19.538  15.748  1.00  0.00    -0.262 OA
ATOM     12  H3  UNL     1       5.932  16.462  15.207  1.00  0.00     0.171 HD
BRANCH  10  13
HETATM   13  C1  UNL     1       3.986  17.700  16.557  1.00  0.00     0.327 C 
HETATM   14  N2  UNL     1       3.766  16.301  16.592  1.00  0.00    -0.268 N 
ATOM     15  H2  UNL     1       4.402  15.687  16.082  1.00  0.00     0.190 HD
HETATM   16  O1  UNL     1       3.223  18.480  17.172  1.00  0.00    -0.261 OA
BRANCH  14  17
HETATM   17  N1  UNL     1       2.706  15.739  17.305  1.00  0.00    -0.342 N 
ATOM     18  H12 UNL     1       1.779  15.757  16.879  1.00  0.00     0.176 HD
ATOM     19  H11 UNL     1       2.837  15.320  18.225  1.00  0.00     0.176 HD
ENDBRANCH  14  17
ENDBRANCH  10  13
ENDBRANCH   1   9
BRANCH   8  20
HETATM   20  S1  UNL     1       8.955  16.178  15.633  1.00  0.00     0.158 S 
HETATM   21  O4  UNL     1       9.387  15.022  14.741  1.00  0.00    -0.590 OA
HETATM   22  O5  UNL     1       7.856  15.672  16.490  1.00  0.00    -0.590 OA
HETATM   23  O6  UNL     1      10.259  16.634  16.556  1.00  0.00    -0.590 OA
ENDBRANCH   8  20
TORSDOF 4
ENDMDL
