MODEL 1
REMARK VINA RESULT: -7.082062600      0.000      0.000
REMARK  2 active torsions:
REMARK  status: ('A' for Active; 'I' for Inactive)
REMARK    1  A    between atoms: C2_2  and  C4_10 
REMARK    2  A    between atoms: N1_3  and  N2_5 
REMARK       I    between atoms: C4_10  and  N5_12 
ROOT
HETATM    1  C4  UNL     1       8.362  19.721  12.795  1.00  0.00     0.269 C 
HETATM    2  O1  UNL     1       9.077  19.500  11.799  1.00  0.00    -0.266 OA
HETATM    3  N5  UNL     1       7.783  20.977  12.981  1.00  0.00    -0.313 N 
ATOM      4  H5  UNL     1       8.279  21.615  13.604  1.00  0.00     0.169 HD
HETATM    5  C5  UNL     1       6.712  21.415  12.464  1.00  0.00     0.173 A 
HETATM    6  C6  UNL     1       6.279  22.768  12.792  1.00  0.00     0.292 A 
HETATM    7  O2  UNL     1       7.000  23.450  13.588  1.00  0.00    -0.265 OA
HETATM    8  N6  UNL     1       5.091  23.333  12.254  1.00  0.00    -0.154 N 
ATOM      9  H6  UNL     1       4.823  24.283  12.509  1.00  0.00     0.187 HD
HETATM   10  C7  UNL     1       4.276  22.590  11.367  1.00  0.00     0.681 A 
HETATM   11  N7  UNL     1       3.180  23.116  10.873  1.00  0.00    -0.234 N 
ATOM     12  H71 UNL     1       2.593  22.581  10.234  1.00  0.00     0.174 HD
ATOM     13  H72 UNL     1       2.888  24.064  11.111  1.00  0.00     0.174 HD
HETATM   14  N8  UNL     1       4.684  21.266  11.036  1.00  0.00    -0.154 N 
ATOM     15  H8  UNL     1       4.101  20.725  10.397  1.00  0.00     0.187 HD
HETATM   16  C8  UNL     1       5.865  20.661  11.551  1.00  0.00     0.292 A 
HETATM   17  O3  UNL     1       6.228  19.493  11.260  1.00  0.00    -0.265 OA
ENDROOT
BRANCH   1  18
HETATM   18  C2  UNL     1       8.137  18.664  13.756  1.00  0.00     0.089 C 
HETATM   19  C1  UNL     1       6.804  18.459  14.364  1.00  0.00     0.076 C 
HETATM   20  N1  UNL     1       9.119  17.868  14.104  1.00  0.00    -0.298 N 
ATOM     21  H1  UNL     1      10.041  18.002  13.690  1.00  0.00     0.187 HD
BRANCH  20  22
HETATM   22  N2  UNL     1       8.931  16.855  15.016  1.00  0.00    -0.276 N 
HETATM   23  C3  UNL     1       9.718  16.725  16.028  1.00  0.00     0.215 C 
HETATM   24  N3  UNL     1       9.560  15.694  16.992  1.00  0.00    -0.065 NA
HETATM   25  N4  UNL     1      10.797  17.640  16.206  1.00  0.00    -0.065 NA
ATOM     26  H2  UNL     1       8.159  16.200  14.890  1.00  0.00     0.189 HD
ENDBRANCH  20  22
ENDBRANCH   1  18
TORSDOF 2
ENDMDL
MODEL 2
REMARK VINA RESULT: -6.974829426      2.867      6.546
REMARK  2 active torsions:
REMARK  status: ('A' for Active; 'I' for Inactive)
REMARK    1  A    between atoms: C2_2  and  C4_10 
REMARK    2  A    between atoms: N1_3  and  N2_5 
REMARK       I    between atoms: C4_10  and  N5_12 
ROOT
HETATM    1  C4  UNL     1       7.203  19.541  14.143  1.00  0.00     0.269 C 
HETATM    2  O1  UNL     1       6.478  20.164  14.940  1.00  0.00    -0.266 OA
HETATM    3  N5  UNL     1       8.125  18.605  14.615  1.00  0.00    -0.313 N 
ATOM      4  H5  UNL     1       9.085  18.931  14.724  1.00  0.00     0.169 HD
HETATM    5  C5  UNL     1       7.904  17.395  14.924  1.00  0.00     0.173 A 
HETATM    6  C6  UNL     1       9.014  16.580  15.400  1.00  0.00     0.292 A 
HETATM    7  O2  UNL     1      10.162  17.123  15.484  1.00  0.00    -0.265 OA
HETATM    8  N6  UNL     1       8.849  15.217  15.767  1.00  0.00    -0.154 N 
ATOM      9  H6  UNL     1       9.653  14.681  16.095  1.00  0.00     0.187 HD
HETATM   10  C7  UNL     1       7.581  14.595  15.681  1.00  0.00     0.681 A 
HETATM   11  N7  UNL     1       7.434  13.336  16.020  1.00  0.00    -0.234 N 
ATOM     12  H71 UNL     1       6.520  12.888  15.958  1.00  0.00     0.174 HD
ATOM     13  H72 UNL     1       8.220  12.777  16.352  1.00  0.00     0.174 HD
HETATM   14  N8  UNL     1       6.484  15.376  15.217  1.00  0.00    -0.154 N 
ATOM     15  H8  UNL     1       5.568  14.934  15.152  1.00  0.00     0.187 HD
HETATM   16  C8  UNL     1       6.604  16.743  14.839  1.00  0.00     0.292 A 
HETATM   17  O3  UNL     1       5.638  17.436  14.430  1.00  0.00    -0.265 OA
ENDROOT
BRANCH   1  18
HETATM   18  C2  UNL     1       7.083  19.795  12.725  1.00  0.00     0.089 C 
HETATM   19  C1  UNL     1       5.779  19.667  12.036  1.00  0.00     0.076 C 
HETATM   20  N1  UNL     1       8.134  20.146  12.025  1.00  0.00    -0.298 N 
ATOM     21  H1  UNL     1       9.037  20.237  12.491  1.00  0.00     0.187 HD
BRANCH  20  22
HETATM   22  N2  UNL     1       8.046  20.393  10.674  1.00  0.00    -0.276 N 
HETATM   23  C3  UNL     1       8.895  19.879   9.852  1.00  0.00     0.215 C 
HETATM   24  N3  UNL     1       8.841  20.110   8.452  1.00  0.00    -0.065 NA
HETATM   25  N4  UNL     1       9.940  19.043  10.348  1.00  0.00    -0.065 NA
ATOM     26  H2  UNL     1       7.299  20.991  10.319  1.00  0.00     0.189 HD
ENDBRANCH  20  22
ENDBRANCH   1  18
TORSDOF 2
ENDMDL
MODEL 3
REMARK VINA RESULT: -6.876937951      3.172      6.920
REMARK  2 active torsions:
REMARK  status: ('A' for Active; 'I' for Inactive)
REMARK    1  A    between atoms: C2_2  and  C4_10 
REMARK    2  A    between atoms: N1_3  and  N2_5 
REMARK       I    between atoms: C4_10  and  N5_12 
ROOT
HETATM    1  C4  UNL     1       4.459  17.918  14.262  1.00  0.00     0.269 C 
HETATM    2  O1  UNL     1       4.294  17.778  13.036  1.00  0.00    -0.266 OA
HETATM    3  N5  UNL     1       5.317  17.067  14.959  1.00  0.00    -0.313 N 
ATOM      4  H5  UNL     1       4.882  16.280  15.439  1.00  0.00     0.169 HD
HETATM    5  C5  UNL     1       6.577  17.161  15.063  1.00  0.00     0.173 A 
HETATM    6  C6  UNL     1       7.292  16.159  15.843  1.00  0.00     0.292 A 
HETATM    7  O2  UNL     1       6.613  15.230  16.389  1.00  0.00    -0.265 OA
HETATM    8  N6  UNL     1       8.703  16.193  16.007  1.00  0.00    -0.154 N 
ATOM      9  H6  UNL     1       9.165  15.472  16.562  1.00  0.00     0.187 HD
HETATM   10  C7  UNL     1       9.474  17.216  15.409  1.00  0.00     0.681 A 
HETATM   11  N7  UNL     1      10.778  17.243  15.563  1.00  0.00    -0.234 N 
ATOM     12  H71 UNL     1      11.334  17.981  15.131  1.00  0.00     0.174 HD
ATOM     13  H72 UNL     1      11.265  16.536  16.112  1.00  0.00     0.174 HD
HETATM   14  N8  UNL     1       8.793  18.205  14.642  1.00  0.00    -0.154 N 
ATOM     15  H8  UNL     1       9.343  18.946  14.208  1.00  0.00     0.187 HD
HETATM   16  C8  UNL     1       7.382  18.209  14.452  1.00  0.00     0.292 A 
HETATM   17  O3  UNL     1       6.778  19.080  13.775  1.00  0.00    -0.265 OA
ENDROOT
BRANCH   1  18
HETATM   18  C2  UNL     1       3.752  18.971  14.958  1.00  0.00     0.089 C 
HETATM   19  C1  UNL     1       2.562  18.671  15.786  1.00  0.00     0.076 C 
HETATM   20  N1  UNL     1       4.158  20.214  14.864  1.00  0.00    -0.298 N 
ATOM     21  H1  UNL     1       4.977  20.429  14.295  1.00  0.00     0.187 HD
BRANCH  20  22
HETATM   22  N2  UNL     1       3.503  21.233  15.515  1.00  0.00    -0.276 N 
HETATM   23  C3  UNL     1       3.856  22.461  15.342  1.00  0.00     0.215 C 
HETATM   24  N3  UNL     1       3.208  23.542  15.995  1.00  0.00    -0.065 NA
HETATM   25  N4  UNL     1       4.938  22.767  14.465  1.00  0.00    -0.065 NA
ATOM     26  H2  UNL     1       2.729  21.015  16.143  1.00  0.00     0.189 HD
ENDBRANCH  20  22
ENDBRANCH   1  18
TORSDOF 2
ENDMDL
MODEL 4
REMARK VINA RESULT: -6.792477336      5.625      7.640
REMARK  2 active torsions:
REMARK  status: ('A' for Active; 'I' for Inactive)
REMARK    1  A    between atoms: C2_2  and  C4_10 
REMARK    2  A    between atoms: N1_3  and  N2_5 
REMARK       I    between atoms: C4_10  and  N5_12 
ROOT
HETATM    1  C4  UNL     1       5.761  13.903  16.206  1.00  0.00     0.269 C 
HETATM    2  O1  UNL     1       6.241  13.474  17.272  1.00  0.00    -0.266 OA
HETATM    3  N5  UNL     1       5.941  15.238  15.841  1.00  0.00    -0.313 N 
ATOM      4  H5  UNL     1       5.175  15.874  16.061  1.00  0.00     0.169 HD
HETATM    5  C5  UNL     1       6.949  15.750  15.267  1.00  0.00     0.173 A 
HETATM    6  C6  UNL     1       6.936  17.177  14.971  1.00  0.00     0.292 A 
HETATM    7  O2  UNL     1       5.907  17.848  15.304  1.00  0.00    -0.265 OA
HETATM    8  N6  UNL     1       8.026  17.826  14.331  1.00  0.00    -0.154 N 
ATOM      9  H6  UNL     1       7.977  18.828  14.141  1.00  0.00     0.187 HD
HETATM   10  C7  UNL     1       9.179  17.098  13.953  1.00  0.00     0.681 A 
HETATM   11  N7  UNL     1      10.183  17.703  13.362  1.00  0.00    -0.234 N 
ATOM     12  H71 UNL     1      11.014  17.178  13.090  1.00  0.00     0.174 HD
ATOM     13  H72 UNL     1      10.161  18.702  13.161  1.00  0.00     0.174 HD
HETATM   14  N8  UNL     1       9.209  15.702  14.234  1.00  0.00    -0.154 N 
ATOM     15  H8  UNL     1      10.037  15.171  13.965  1.00  0.00     0.187 HD
HETATM   16  C8  UNL     1       8.141  15.011  14.873  1.00  0.00     0.292 A 
HETATM   17  O3  UNL     1       8.164  13.780  15.123  1.00  0.00    -0.265 OA
ENDROOT
BRANCH   1  18
HETATM   18  C2  UNL     1       5.015  13.007  15.351  1.00  0.00     0.089 C 
HETATM   19  C1  UNL     1       4.061  13.530  14.347  1.00  0.00     0.076 C 
HETATM   20  N1  UNL     1       5.175  11.710  15.453  1.00  0.00    -0.298 N 
ATOM     21  H1  UNL     1       5.831  11.341  16.143  1.00  0.00     0.187 HD
BRANCH  20  22
HETATM   22  N2  UNL     1       4.478  10.836  14.652  1.00  0.00    -0.276 N 
HETATM   23  C3  UNL     1       3.924   9.783  15.149  1.00  0.00     0.215 C 
HETATM   24  N3  UNL     1       3.197   8.856  14.357  1.00  0.00    -0.065 NA
HETATM   25  N4  UNL     1       4.035   9.520  16.546  1.00  0.00    -0.065 NA
ATOM     26  H2  UNL     1       4.397  11.024  13.652  1.00  0.00     0.189 HD
ENDBRANCH  20  22
ENDBRANCH   1  18
TORSDOF 2
ENDMDL
MODEL 5
REMARK VINA RESULT: -6.677530344      4.390      7.420
REMARK  2 active torsions:
REMARK  status: ('A' for Active; 'I' for Inactive)
REMARK    1  A    between atoms: C2_2  and  C4_10 
REMARK    2  A    between atoms: N1_3  and  N2_5 
REMARK       I    between atoms: C4_10  and  N5_12 
ROOT
HETATM    1  C4  UNL     1       8.720  15.891  15.668  1.00  0.00     0.269 C 
HETATM    2  O1  UNL     1       9.188  16.089  16.805  1.00  0.00    -0.266 OA
HETATM    3  N5  UNL     1       8.093  14.682  15.366  1.00  0.00    -0.313 N 
ATOM      4  H5  UNL     1       8.666  13.982  14.894  1.00  0.00     0.169 HD
HETATM    5  C5  UNL     1       6.894  14.353  15.611  1.00  0.00     0.173 A 
HETATM    6  C6  UNL     1       6.434  13.030  15.208  1.00  0.00     0.292 A 
HETATM    7  O2  UNL     1       7.263  12.261  14.624  1.00  0.00    -0.265 OA
HETATM    8  N6  UNL     1       5.106  12.586  15.448  1.00  0.00    -0.154 N 
ATOM      9  H6  UNL     1       4.824  11.652  15.149  1.00  0.00     0.187 HD
HETATM   10  C7  UNL     1       4.169  13.426  16.095  1.00  0.00     0.681 A 
HETATM   11  N7  UNL     1       2.944  13.011  16.314  1.00  0.00    -0.234 N 
ATOM     12  H71 UNL     1       2.269  13.617  16.781  1.00  0.00     0.174 HD
ATOM     13  H72 UNL     1       2.634  12.083  16.027  1.00  0.00     0.174 HD
HETATM   14  N8  UNL     1       4.601  14.723  16.496  1.00  0.00    -0.154 N 
ATOM     15  H8  UNL     1       3.931  15.334  16.963  1.00  0.00     0.187 HD
HETATM   16  C8  UNL     1       5.921  15.209  16.276  1.00  0.00     0.292 A 
HETATM   17  O3  UNL     1       6.306  16.353  16.629  1.00  0.00    -0.265 OA
ENDROOT
BRANCH   1  18
HETATM   18  C2  UNL     1       8.831  16.927  14.665  1.00  0.00     0.089 C 
HETATM   19  C1  UNL     1       9.783  16.797  13.539  1.00  0.00     0.076 C 
HETATM   20  N1  UNL     1       8.085  18.002  14.739  1.00  0.00    -0.298 N 
ATOM     21  H1  UNL     1       7.426  18.100  15.512  1.00  0.00     0.187 HD
BRANCH  20  22
HETATM   22  N2  UNL     1       8.172  19.001  13.797  1.00  0.00    -0.276 N 
HETATM   23  C3  UNL     1       7.234  19.877  13.675  1.00  0.00     0.215 C 
HETATM   24  N3  UNL     1       7.284  20.923  12.717  1.00  0.00    -0.065 NA
HETATM   25  N4  UNL     1       6.091  19.809  14.526  1.00  0.00    -0.065 NA
ATOM     26  H2  UNL     1       8.989  19.050  13.188  1.00  0.00     0.189 HD
ENDBRANCH  20  22
ENDBRANCH   1  18
TORSDOF 2
ENDMDL
