MODEL 1
REMARK VINA RESULT: -7.333376659      0.000      0.000
REMARK  3 active torsions:
REMARK  status: ('A' for Active; 'I' for Inactive)
REMARK       I    between atoms: N1_1  and  C1_4 
REMARK       I    between atoms: C1_4  and  N3_6 
REMARK       I    between atoms: N3_6  and  C2_8 
REMARK    1  A    between atoms: C2_8  and  C3_10 
REMARK    2  A    between atoms: C3_10  and  C4_11 
REMARK    3  A    between atoms: N8_24  and  O3_25 
ROOT
HETATM    1  C4  UNL     1       8.673  17.602  14.540  1.00  0.00     0.138 A 
HETATM    2  N4  UNL     1       7.576  18.243  14.978  1.00  0.00    -0.335 N 
ATOM      3  H4  UNL     1       7.110  17.929  15.829  1.00  0.00     0.167 HD
HETATM    4  C5  UNL     1       7.091  19.294  14.299  1.00  0.00     0.151 A 
HETATM    5  C6  UNL     1       6.042  20.163  14.423  1.00  0.00     0.290 A 
HETATM    6  O2  UNL     1       5.208  20.111  15.370  1.00  0.00    -0.264 OA
HETATM    7  N5  UNL     1       6.086  21.027  13.393  1.00  0.00    -0.263 N 
ATOM      8  H5  UNL     1       5.429  21.789  13.225  1.00  0.00     0.190 HD
HETATM    9  N6  UNL     1       7.123  20.720  12.640  1.00  0.00    -0.280 N 
ATOM     10  H6  UNL     1       7.391  21.218  11.790  1.00  0.00     0.189 HD
HETATM   11  C7  UNL     1       7.776  19.666  13.145  1.00  0.00     0.169 A 
HETATM   12  N7  UNL     1       8.871  19.010  12.725  1.00  0.00    -0.254 N 
ATOM     13  H7  UNL     1       9.351  19.307  11.875  1.00  0.00     0.191 HD
HETATM   14  N8  UNL     1       9.323  17.980  13.418  1.00  0.00    -0.148 N 
ENDROOT
BRANCH   1  15
HETATM   15  C3  UNL     1       9.164  16.458  15.316  1.00  0.00     0.184 C 
BRANCH  15  16
HETATM   16  C2  UNL     1       8.580  15.182  14.908  1.00  0.00     0.231 C 
HETATM   17  N3  UNL     1       7.542  14.523  15.704  1.00  0.00    -0.301 N 
HETATM   18  C1  UNL     1       7.018  13.354  15.308  1.00  0.00     0.188 C 
ATOM     19  H3  UNL     1       7.215  14.956  16.568  1.00  0.00     0.171 HD
HETATM   20  N1  UNL     1       6.531  12.274  14.948  1.00  0.00    -0.373 N 
HETATM   21  N2  UNL     1       5.961  13.265  16.704  1.00  0.00    -0.064 NA
ATOM     22  H12 UNL     1       6.132  11.384  14.647  1.00  0.00     0.158 HD
ATOM     23  H11 UNL     1       7.146  12.325  14.137  1.00  0.00     0.158 HD
HETATM   24  O1  UNL     1       8.956  14.616  13.855  1.00  0.00    -0.273 OA
ENDBRANCH  15  16
ENDBRANCH   1  15
BRANCH  14  25
HETATM   25  O3  UNL     1      10.431  17.261  13.055  1.00  0.00    -0.267 OA
ATOM     26  H3  UNL     1      10.761  17.379  12.172  1.00  0.00     0.247 HD
ENDBRANCH  14  25
TORSDOF 3
ENDMDL
MODEL 2
REMARK VINA RESULT: -7.311953455      2.075      5.528
REMARK  3 active torsions:
REMARK  status: ('A' for Active; 'I' for Inactive)
REMARK       I    between atoms: N1_1  and  C1_4 
REMARK       I    between atoms: C1_4  and  N3_6 
REMARK       I    between atoms: N3_6  and  C2_8 
REMARK    1  A    between atoms: C2_8  and  C3_10 
REMARK    2  A    between atoms: C3_10  and  C4_11 
REMARK    3  A    between atoms: N8_24  and  O3_25 
ROOT
HETATM    1  C4  UNL     1       8.146  18.676  13.565  1.00  0.00     0.138 A 
HETATM    2  N4  UNL     1       7.567  17.893  14.491  1.00  0.00    -0.335 N 
ATOM      3  H4  UNL     1       6.624  18.103  14.817  1.00  0.00     0.167 HD
HETATM    4  C5  UNL     1       8.226  16.835  14.988  1.00  0.00     0.151 A 
HETATM    5  C6  UNL     1       7.982  15.848  15.904  1.00  0.00     0.290 A 
HETATM    6  O2  UNL     1       6.899  15.753  16.546  1.00  0.00    -0.264 OA
HETATM    7  N5  UNL     1       9.066  15.056  15.969  1.00  0.00    -0.263 N 
ATOM      8  H5  UNL     1       9.172  14.236  16.568  1.00  0.00     0.190 HD
HETATM    9  N6  UNL     1       9.969  15.519  15.128  1.00  0.00    -0.280 N 
ATOM     10  H6  UNL     1      10.889  15.105  14.977  1.00  0.00     0.189 HD
HETATM   11  C7  UNL     1       9.510  16.609  14.499  1.00  0.00     0.169 A 
HETATM   12  N7  UNL     1      10.070  17.406  13.573  1.00  0.00    -0.254 N 
ATOM     13  H7  UNL     1      11.013  17.215  13.235  1.00  0.00     0.191 HD
HETATM   14  N8  UNL     1       9.393  18.439  13.103  1.00  0.00    -0.148 N 
ENDROOT
BRANCH   1  15
HETATM   15  C3  UNL     1       7.385  19.822  13.053  1.00  0.00     0.184 C 
BRANCH  15  16
HETATM   16  C2  UNL     1       6.003  19.863  13.525  1.00  0.00     0.231 C 
HETATM   17  N3  UNL     1       5.501  20.972  14.339  1.00  0.00    -0.301 N 
HETATM   18  C1  UNL     1       4.228  20.989  14.758  1.00  0.00     0.188 C 
ATOM     19  H3  UNL     1       6.127  21.738  14.591  1.00  0.00     0.171 HD
HETATM   20  N1  UNL     1       3.053  21.011  15.148  1.00  0.00    -0.373 N 
HETATM   21  N2  UNL     1       4.444  22.511  15.602  1.00  0.00    -0.064 NA
ATOM     22  H12 UNL     1       2.084  21.025  15.467  1.00  0.00     0.158 HD
ATOM     23  H11 UNL     1       2.927  20.126  14.657  1.00  0.00     0.158 HD
HETATM   24  O1  UNL     1       5.204  18.940  13.240  1.00  0.00    -0.273 OA
ENDBRANCH  15  16
ENDBRANCH   1  15
BRANCH  14  25
HETATM   25  O3  UNL     1       9.893  19.296  12.161  1.00  0.00    -0.267 OA
ATOM     26  H3  UNL     1      10.213  20.140  12.459  1.00  0.00     0.247 HD
ENDBRANCH  14  25
TORSDOF 3
ENDMDL
MODEL 3
REMARK VINA RESULT: -7.102929135      1.329      1.569
REMARK  3 active torsions:
REMARK  status: ('A' for Active; 'I' for Inactive)
REMARK       I    between atoms: N1_1  and  C1_4 
REMARK       I    between atoms: C1_4  and  N3_6 
REMARK       I    between atoms: N3_6  and  C2_8 
REMARK    1  A    between atoms: C2_8  and  C3_10 
REMARK    2  A    between atoms: C3_10  and  C4_11 
REMARK    3  A    between atoms: N8_24  and  O3_25 
ROOT
HETATM    1  C4  UNL     1       8.223  17.655  14.290  1.00  0.00     0.138 A 
HETATM    2  N4  UNL     1       7.085  17.736  15.001  1.00  0.00    -0.335 N 
ATOM      3  H4  UNL     1       6.783  16.943  15.567  1.00  0.00     0.167 HD
HETATM    4  C5  UNL     1       6.347  18.856  14.968  1.00  0.00     0.151 A 
HETATM    5  C6  UNL     1       5.180  19.297  15.530  1.00  0.00     0.290 A 
HETATM    6  O2  UNL     1       4.481  18.596  16.315  1.00  0.00    -0.264 OA
HETATM    7  N5  UNL     1       4.951  20.550  15.098  1.00  0.00    -0.263 N 
ATOM      8  H5  UNL     1       4.153  21.133  15.352  1.00  0.00     0.190 HD
HETATM    9  N6  UNL     1       5.934  20.895  14.291  1.00  0.00    -0.280 N 
ATOM     10  H6  UNL     1       6.011  21.798  13.822  1.00  0.00     0.189 HD
HETATM   11  C7  UNL     1       6.819  19.897  14.173  1.00  0.00     0.169 A 
HETATM   12  N7  UNL     1       7.959  19.793  13.469  1.00  0.00    -0.254 N 
ATOM     13  H7  UNL     1       8.279  20.573  12.895  1.00  0.00     0.191 HD
HETATM   14  N8  UNL     1       8.664  18.677  13.525  1.00  0.00    -0.148 N 
ENDROOT
BRANCH   1  15
HETATM   15  C3  UNL     1       8.995  16.410  14.357  1.00  0.00     0.184 C 
BRANCH  15  16
HETATM   16  C2  UNL     1       8.529  15.488  15.390  1.00  0.00     0.231 C 
HETATM   17  N3  UNL     1       7.818  14.253  15.055  1.00  0.00    -0.301 N 
HETATM   18  C1  UNL     1       7.403  13.421  16.021  1.00  0.00     0.188 C 
ATOM     19  H3  UNL     1       7.637  14.023  14.078  1.00  0.00     0.171 HD
HETATM   20  N1  UNL     1       7.016  12.648  16.908  1.00  0.00    -0.373 N 
HETATM   21  N2  UNL     1       6.700  12.305  14.866  1.00  0.00    -0.064 NA
ATOM     22  H12 UNL     1       6.700  12.016  17.643  1.00  0.00     0.158 HD
ATOM     23  H11 UNL     1       7.425  13.298  17.580  1.00  0.00     0.158 HD
HETATM   24  O1  UNL     1       8.730  15.736  16.603  1.00  0.00    -0.273 OA
ENDBRANCH  15  16
ENDBRANCH   1  15
BRANCH  14  25
HETATM   25  O3  UNL     1       9.834  18.495  12.837  1.00  0.00    -0.267 OA
ATOM     26  H3  UNL     1      10.608  18.938  13.163  1.00  0.00     0.247 HD
ENDBRANCH  14  25
TORSDOF 3
ENDMDL
MODEL 4
REMARK VINA RESULT: -7.086048424      1.171      1.366
REMARK  3 active torsions:
REMARK  status: ('A' for Active; 'I' for Inactive)
REMARK       I    between atoms: N1_1  and  C1_4 
REMARK       I    between atoms: C1_4  and  N3_6 
REMARK       I    between atoms: N3_6  and  C2_8 
REMARK    1  A    between atoms: C2_8  and  C3_10 
REMARK    2  A    between atoms: C3_10  and  C4_11 
REMARK    3  A    between atoms: N8_24  and  O3_25 
ROOT
HETATM    1  C4  UNL     1       8.387  17.358  14.242  1.00  0.00     0.138 A 
HETATM    2  N4  UNL     1       7.344  18.054  14.725  1.00  0.00    -0.335 N 
ATOM      3  H4  UNL     1       6.724  17.629  15.414  1.00  0.00     0.167 HD
HETATM    4  C5  UNL     1       7.116  19.308  14.302  1.00  0.00     0.151 A 
HETATM    5  C6  UNL     1       6.197  20.291  14.549  1.00  0.00     0.290 A 
HETATM    6  O2  UNL     1       5.241  20.156  15.363  1.00  0.00    -0.264 OA
HETATM    7  N5  UNL     1       6.507  21.358  13.791  1.00  0.00    -0.263 N 
ATOM      8  H5  UNL     1       5.997  22.241  13.766  1.00  0.00     0.190 HD
HETATM    9  N6  UNL     1       7.583  21.067  13.088  1.00  0.00    -0.280 N 
ATOM     10  H6  UNL     1       8.036  21.701  12.429  1.00  0.00     0.189 HD
HETATM   11  C7  UNL     1       8.000  19.824  13.359  1.00  0.00     0.169 A 
HETATM   12  N7  UNL     1       9.037  19.108  12.889  1.00  0.00    -0.254 N 
ATOM     13  H7  UNL     1       9.668  19.514  12.198  1.00  0.00     0.191 HD
HETATM   14  N8  UNL     1       9.234  17.877  13.327  1.00  0.00    -0.148 N 
ENDROOT
BRANCH   1  15
HETATM   15  C3  UNL     1       8.595  15.991  14.733  1.00  0.00     0.184 C 
BRANCH  15  16
HETATM   16  C2  UNL     1       7.551  15.535  15.648  1.00  0.00     0.231 C 
HETATM   17  N3  UNL     1       6.660  14.424  15.306  1.00  0.00    -0.301 N 
HETATM   18  C1  UNL     1       5.712  14.021  16.164  1.00  0.00     0.188 C 
ATOM     19  H3  UNL     1       6.761  13.954  14.407  1.00  0.00     0.171 HD
HETATM   20  N1  UNL     1       4.833  13.644  16.951  1.00  0.00    -0.373 N 
HETATM   21  N2  UNL     1       5.142  12.775  15.070  1.00  0.00    -0.064 NA
ATOM     22  H12 UNL     1       4.112  13.338  17.604  1.00  0.00     0.158 HD
ATOM     23  H11 UNL     1       5.165  14.369  17.587  1.00  0.00     0.158 HD
HETATM   24  O1  UNL     1       7.393  16.089  16.762  1.00  0.00    -0.273 OA
ENDBRANCH  15  16
ENDBRANCH   1  15
BRANCH  14  25
HETATM   25  O3  UNL     1      10.266  17.086  12.897  1.00  0.00    -0.267 OA
ATOM     26  H3  UNL     1      10.851  17.445  12.241  1.00  0.00     0.247 HD
ENDBRANCH  14  25
TORSDOF 3
ENDMDL
MODEL 5
REMARK VINA RESULT: -7.082377134      2.735      4.342
REMARK  3 active torsions:
REMARK  status: ('A' for Active; 'I' for Inactive)
REMARK       I    between atoms: N1_1  and  C1_4 
REMARK       I    between atoms: C1_4  and  N3_6 
REMARK       I    between atoms: N3_6  and  C2_8 
REMARK    1  A    between atoms: C2_8  and  C3_10 
REMARK    2  A    between atoms: C3_10  and  C4_11 
REMARK    3  A    between atoms: N8_24  and  O3_25 
ROOT
HETATM    1  C4  UNL     1       6.537  17.019  15.090  1.00  0.00     0.138 A 
HETATM    2  N4  UNL     1       7.355  16.264  15.843  1.00  0.00    -0.335 N 
ATOM      3  H4  UNL     1       6.970  15.515  16.418  1.00  0.00     0.167 HD
HETATM    4  C5  UNL     1       8.678  16.492  15.839  1.00  0.00     0.151 A 
HETATM    5  C6  UNL     1       9.782  15.960  16.446  1.00  0.00     0.290 A 
HETATM    6  O2  UNL     1       9.730  14.991  17.254  1.00  0.00    -0.264 OA
HETATM    7  N5  UNL     1      10.863  16.643  16.028  1.00  0.00    -0.263 N 
ATOM      8  H5  UNL     1      11.827  16.469  16.313  1.00  0.00     0.190 HD
HETATM    9  N6  UNL     1      10.463  17.575  15.186  1.00  0.00    -0.280 N 
ATOM     10  H6  UNL     1      11.081  18.238  14.717  1.00  0.00     0.189 HD
HETATM   11  C7  UNL     1       9.134  17.531  15.032  1.00  0.00     0.169 A 
HETATM   12  N7  UNL     1       8.297  18.274  14.288  1.00  0.00    -0.254 N 
ATOM     13  H7  UNL     1       8.661  19.028  13.706  1.00  0.00     0.191 HD
HETATM   14  N8  UNL     1       7.000  18.022  14.313  1.00  0.00    -0.148 N 
ENDROOT
BRANCH   1  15
HETATM   15  C3  UNL     1       5.099  16.731  15.128  1.00  0.00     0.184 C 
BRANCH  15  16
HETATM   16  C2  UNL     1       4.783  15.398  15.635  1.00  0.00     0.231 C 
HETATM   17  N3  UNL     1       3.765  15.189  16.668  1.00  0.00    -0.301 N 
HETATM   18  C1  UNL     1       3.490  13.956  17.115  1.00  0.00     0.188 C 
ATOM     19  H3  UNL     1       3.261  15.990  17.050  1.00  0.00     0.171 HD
HETATM   20  N1  UNL     1       3.232  12.819  17.533  1.00  0.00    -0.373 N 
HETATM   21  N2  UNL     1       2.282  14.548  18.239  1.00  0.00    -0.064 NA
ATOM     22  H12 UNL     1       3.023  11.881  17.874  1.00  0.00     0.158 HD
ATOM     23  H11 UNL     1       3.935  12.475  16.879  1.00  0.00     0.158 HD
HETATM   24  O1  UNL     1       5.382  14.389  15.193  1.00  0.00    -0.273 OA
ENDBRANCH  15  16
ENDBRANCH   1  15
BRANCH  14  25
HETATM   25  O3  UNL     1       6.085  18.733  13.585  1.00  0.00    -0.267 OA
ATOM     26  H3  UNL     1       5.437  18.242  13.092  1.00  0.00     0.247 HD
ENDBRANCH  14  25
TORSDOF 3
ENDMDL
