MODEL 1
REMARK VINA RESULT: -5.734408456      0.000      0.000
REMARK  4 active torsions:
REMARK  status: ('A' for Active; 'I' for Inactive)
REMARK    1  A    between atoms: C2_2  and  C3_3 
REMARK    2  A    between atoms: C10_10  and  O1_11 
REMARK    3  A    between atoms: C15_19  and  O4_20 
REMARK    4  A    between atoms: C16_22  and  O5_23 
ROOT
HETATM    1  C3  UNL     1      21.754   4.837  35.331  1.00  0.00     0.036 C 
HETATM    2  C4  UNL     1      22.643   3.992  36.133  1.00  0.00    -0.024 A 
HETATM    3  C5  UNL     1      22.602   3.785  37.581  1.00  0.00     0.012 A 
HETATM    4  C6  UNL     1      22.072   2.696  36.724  1.00  0.00     0.012 A 
HETATM    5  C7  UNL     1      23.951   3.886  35.388  1.00  0.00    -0.005 C 
HETATM    6  C8  UNL     1      24.611   2.551  35.809  1.00  0.00     0.019 C 
HETATM    7  C9  UNL     1      23.876   3.811  33.918  1.00  0.00     0.053 C 
HETATM    8  C10 UNL     1      22.850   4.616  33.180  1.00  0.00     0.096 C 
HETATM    9  C11 UNL     1      23.427   5.571  32.134  1.00  0.00     0.077 C 
HETATM   10  C12 UNL     1      23.005   7.018  32.373  1.00  0.00     0.171 C 
HETATM   11  O2  UNL     1      21.627   6.950  32.577  1.00  0.00    -0.234 OA
HETATM   12  O3  UNL     1      21.422   6.401  33.707  1.00  0.00    -0.225 OA
HETATM   13  C13 UNL     1      22.437   5.645  34.263  1.00  0.00     0.138 C 
HETATM   14  C14 UNL     1      23.705   6.332  34.502  1.00  0.00     0.068 C 
HETATM   15  C15 UNL     1      24.322   6.347  35.816  1.00  0.00     0.155 C 
HETATM   16  C16 UNL     1      24.887   4.916  35.965  1.00  0.00     0.156 C 
HETATM   17  C17 UNL     1      23.558   7.603  33.685  1.00  0.00    -0.009 C 
HETATM   18  C18 UNL     1      22.677   8.614  34.289  1.00  0.00     0.018 C 
HETATM   19  C19 UNL     1      24.876   8.252  33.328  1.00  0.00     0.018 C 
ENDROOT
BRANCH   1  20
HETATM   20  C2  UNL     1      20.607   5.547  35.936  1.00  0.00     0.004 C 
HETATM   21  C1  UNL     1      19.275   4.849  35.940  1.00  0.00     0.005 C 
ENDBRANCH   1  20
BRANCH   8  22
HETATM   22  O1  UNL     1      21.775   3.907  32.733  1.00  0.00    -0.386 OA
ATOM     23  H1  UNL     1      20.946   4.139  33.135  1.00  0.00     0.210 HD
ENDBRANCH   8  22
BRANCH  16  24
HETATM   24  O5  UNL     1      25.397   4.656  37.190  1.00  0.00    -0.392 OA
ATOM     25  H5  UNL     1      25.963   3.897  37.265  1.00  0.00     0.210 HD
ENDBRANCH  16  24
BRANCH  15  26
HETATM   26  O4  UNL     1      23.659   6.775  36.909  1.00  0.00    -0.392 OA
ATOM     27  H4  UNL     1      24.084   6.853  37.754  1.00  0.00     0.210 HD
ENDBRANCH  15  26
TORSDOF 4
ENDMDL
MODEL 2
REMARK VINA RESULT: -4.559729880      2.214      4.861
REMARK  4 active torsions:
REMARK  status: ('A' for Active; 'I' for Inactive)
REMARK    1  A    between atoms: C2_2  and  C3_3 
REMARK    2  A    between atoms: C10_10  and  O1_11 
REMARK    3  A    between atoms: C15_19  and  O4_20 
REMARK    4  A    between atoms: C16_22  and  O5_23 
ROOT
HETATM    1  C3  UNL     1      21.194   6.091  32.135  1.00  0.00     0.036 C 
HETATM    2  C4  UNL     1      22.458   6.709  32.544  1.00  0.00    -0.024 A 
HETATM    3  C5  UNL     1      23.810   6.200  32.311  1.00  0.00     0.012 A 
HETATM    4  C6  UNL     1      23.350   7.323  31.458  1.00  0.00     0.012 A 
HETATM    5  C7  UNL     1      22.167   7.563  33.754  1.00  0.00    -0.005 C 
HETATM    6  C8  UNL     1      23.232   8.686  33.788  1.00  0.00     0.019 C 
HETATM    7  C9  UNL     1      20.878   8.278  33.771  1.00  0.00     0.053 C 
HETATM    8  C10 UNL     1      19.652   7.620  33.215  1.00  0.00     0.096 C 
HETATM    9  C11 UNL     1      18.494   7.499  34.206  1.00  0.00     0.077 C 
HETATM   10  C12 UNL     1      18.028   6.056  34.382  1.00  0.00     0.171 C 
HETATM   11  O2  UNL     1      17.892   5.572  33.081  1.00  0.00    -0.234 OA
HETATM   12  O3  UNL     1      19.057   5.439  32.586  1.00  0.00    -0.225 OA
HETATM   13  C13 UNL     1      20.100   6.136  33.165  1.00  0.00     0.138 C 
HETATM   14  C14 UNL     1      20.356   5.869  34.580  1.00  0.00     0.068 C 
HETATM   15  C15 UNL     1      21.666   5.452  35.046  1.00  0.00     0.155 C 
HETATM   16  C16 UNL     1      22.504   6.749  34.977  1.00  0.00     0.156 C 
HETATM   17  C17 UNL     1      19.096   5.148  35.019  1.00  0.00    -0.009 C 
HETATM   18  C18 UNL     1      19.011   3.749  34.574  1.00  0.00     0.018 C 
HETATM   19  C19 UNL     1      18.852   5.203  36.511  1.00  0.00     0.018 C 
ENDROOT
BRANCH   1  20
HETATM   20  C2  UNL     1      21.163   4.854  31.326  1.00  0.00     0.004 C 
HETATM   21  C1  UNL     1      21.886   3.650  31.862  1.00  0.00     0.005 C 
ENDBRANCH   1  20
BRANCH   8  22
HETATM   22  O1  UNL     1      19.269   8.063  31.983  1.00  0.00    -0.386 OA
ATOM     23  H1  UNL     1      18.491   7.647  31.631  1.00  0.00     0.210 HD
ENDBRANCH   8  22
BRANCH  16  24
HETATM   24  O5  UNL     1      23.816   6.565  35.242  1.00  0.00    -0.392 OA
ATOM     25  H5  UNL     1      24.067   5.720  35.596  1.00  0.00     0.210 HD
ENDBRANCH  16  24
BRANCH  15  26
HETATM   26  O4  UNL     1      22.298   4.381  34.528  1.00  0.00    -0.392 OA
ATOM     27  H4  UNL     1      22.017   3.493  34.715  1.00  0.00     0.210 HD
ENDBRANCH  15  26
TORSDOF 4
ENDMDL
MODEL 3
REMARK VINA RESULT: -4.552973686      7.679     10.718
REMARK  4 active torsions:
REMARK  status: ('A' for Active; 'I' for Inactive)
REMARK    1  A    between atoms: C2_2  and  C3_3 
REMARK    2  A    between atoms: C10_10  and  O1_11 
REMARK    3  A    between atoms: C15_19  and  O4_20 
REMARK    4  A    between atoms: C16_22  and  O5_23 
ROOT
HETATM    1  C3  UNL     1      30.131   2.007  41.185  1.00  0.00     0.036 C 
HETATM    2  C4  UNL     1      29.785   2.598  39.889  1.00  0.00    -0.024 A 
HETATM    3  C5  UNL     1      30.683   2.845  38.759  1.00  0.00     0.012 A 
HETATM    4  C6  UNL     1      29.766   1.684  38.657  1.00  0.00     0.012 A 
HETATM    5  C7  UNL     1      28.579   3.478  40.106  1.00  0.00    -0.005 C 
HETATM    6  C8  UNL     1      27.821   3.557  38.760  1.00  0.00     0.019 C 
HETATM    7  C9  UNL     1      27.571   3.001  41.069  1.00  0.00     0.053 C 
HETATM    8  C10 UNL     1      28.004   2.291  42.315  1.00  0.00     0.096 C 
HETATM    9  C11 UNL     1      27.525   2.940  43.614  1.00  0.00     0.077 C 
HETATM   10  C12 UNL     1      28.680   3.286  44.550  1.00  0.00     0.171 C 
HETATM   11  O2  UNL     1      29.456   2.128  44.590  1.00  0.00    -0.234 OA
HETATM   12  O3  UNL     1      30.031   2.000  43.461  1.00  0.00    -0.225 OA
HETATM   13  C13 UNL     1      29.505   2.676  42.376  1.00  0.00     0.138 C 
HETATM   14  C14 UNL     1      29.421   4.130  42.494  1.00  0.00     0.068 C 
HETATM   15  C15 UNL     1      30.025   5.006  41.505  1.00  0.00     0.155 C 
HETATM   16  C16 UNL     1      29.075   4.890  40.292  1.00  0.00     0.156 C 
HETATM   17  C17 UNL     1      29.623   4.361  43.980  1.00  0.00    -0.009 C 
HETATM   18  C18 UNL     1      31.015   4.214  44.432  1.00  0.00     0.018 C 
HETATM   19  C19 UNL     1      29.087   5.687  44.468  1.00  0.00     0.018 C 
ENDROOT
BRANCH   1  20
HETATM   20  C2  UNL     1      31.490   1.498  41.466  1.00  0.00     0.004 C 
HETATM   21  C1  UNL     1      31.761   0.043  41.201  1.00  0.00     0.005 C 
ENDBRANCH   1  20
BRANCH   8  22
HETATM   22  O1  UNL     1      27.840   0.937  42.293  1.00  0.00    -0.386 OA
ATOM     23  H1  UNL     1      27.006   0.628  42.627  1.00  0.00     0.210 HD
ENDBRANCH   8  22
BRANCH  16  24
HETATM   24  O5  UNL     1      29.521   5.527  39.186  1.00  0.00    -0.392 OA
ATOM     25  H5  UNL     1      30.238   6.139  39.306  1.00  0.00     0.210 HD
ENDBRANCH  16  24
BRANCH  15  26
HETATM   26  O4  UNL     1      31.327   4.912  41.173  1.00  0.00    -0.392 OA
ATOM     27  H4  UNL     1      32.019   5.127  41.788  1.00  0.00     0.210 HD
ENDBRANCH  15  26
TORSDOF 4
ENDMDL
MODEL 4
REMARK VINA RESULT: -4.530018448      1.855      4.552
REMARK  4 active torsions:
REMARK  status: ('A' for Active; 'I' for Inactive)
REMARK    1  A    between atoms: C2_2  and  C3_3 
REMARK    2  A    between atoms: C10_10  and  O1_11 
REMARK    3  A    between atoms: C15_19  and  O4_20 
REMARK    4  A    between atoms: C16_22  and  O5_23 
ROOT
HETATM    1  C3  UNL     1      22.427   5.357  33.342  1.00  0.00     0.036 C 
HETATM    2  C4  UNL     1      22.847   6.696  32.921  1.00  0.00    -0.024 A 
HETATM    3  C5  UNL     1      23.312   7.104  31.594  1.00  0.00     0.012 A 
HETATM    4  C6  UNL     1      21.929   7.481  31.974  1.00  0.00     0.012 A 
HETATM    5  C7  UNL     1      23.338   7.419  34.151  1.00  0.00    -0.005 C 
HETATM    6  C8  UNL     1      23.145   8.934  33.901  1.00  0.00     0.019 C 
HETATM    7  C9  UNL     1      22.614   7.160  35.409  1.00  0.00     0.053 C 
HETATM    8  C10 UNL     1      22.105   5.783  35.708  1.00  0.00     0.096 C 
HETATM    9  C11 UNL     1      22.625   5.185  37.015  1.00  0.00     0.077 C 
HETATM   10  C12 UNL     1      23.326   3.846  36.803  1.00  0.00     0.171 C 
HETATM   11  O2  UNL     1      22.452   3.118  35.997  1.00  0.00    -0.234 OA
HETATM   12  O3  UNL     1      22.464   3.635  34.834  1.00  0.00    -0.225 OA
HETATM   13  C13 UNL     1      22.919   4.933  34.698  1.00  0.00     0.138 C 
HETATM   14  C14 UNL     1      24.286   5.194  35.143  1.00  0.00     0.068 C 
HETATM   15  C15 UNL     1      25.269   5.794  34.259  1.00  0.00     0.155 C 
HETATM   16  C16 UNL     1      24.838   7.277  34.194  1.00  0.00     0.156 C 
HETATM   17  C17 UNL     1      24.613   3.962  35.965  1.00  0.00    -0.009 C 
HETATM   18  C18 UNL     1      24.900   2.759  35.168  1.00  0.00     0.018 C 
HETATM   19  C19 UNL     1      25.737   4.172  36.955  1.00  0.00     0.018 C 
ENDROOT
BRANCH   1  20
HETATM   20  C2  UNL     1      22.352   4.233  32.386  1.00  0.00     0.004 C 
HETATM   21  C1  UNL     1      21.211   4.222  31.407  1.00  0.00     0.005 C 
ENDBRANCH   1  20
BRANCH   8  22
HETATM   22  O1  UNL     1      20.763   5.614  35.530  1.00  0.00    -0.386 OA
ATOM     23  H1  UNL     1      20.369   6.188  34.883  1.00  0.00     0.210 HD
ENDBRANCH   8  22
BRANCH  16  24
HETATM   24  O5  UNL     1      25.543   8.012  33.305  1.00  0.00    -0.392 OA
ATOM     25  H5  UNL     1      25.060   8.378  32.573  1.00  0.00     0.210 HD
ENDBRANCH  16  24
BRANCH  15  26
HETATM   26  O4  UNL     1      25.554   5.269  33.051  1.00  0.00    -0.392 OA
ATOM     27  H4  UNL     1      26.130   4.521  32.953  1.00  0.00     0.210 HD
ENDBRANCH  15  26
TORSDOF 4
ENDMDL
MODEL 5
REMARK VINA RESULT: -4.383428752      1.611      4.584
REMARK  4 active torsions:
REMARK  status: ('A' for Active; 'I' for Inactive)
REMARK    1  A    between atoms: C2_2  and  C3_3 
REMARK    2  A    between atoms: C10_10  and  O1_11 
REMARK    3  A    between atoms: C15_19  and  O4_20 
REMARK    4  A    between atoms: C16_22  and  O5_23 
ROOT
HETATM    1  C3  UNL     1      22.868   6.707  33.926  1.00  0.00     0.036 C 
HETATM    2  C4  UNL     1      21.769   6.467  32.987  1.00  0.00    -0.024 A 
HETATM    3  C5  UNL     1      20.602   7.319  32.751  1.00  0.00     0.012 A 
HETATM    4  C6  UNL     1      21.680   7.348  31.734  1.00  0.00     0.012 A 
HETATM    5  C7  UNL     1      21.673   4.976  32.782  1.00  0.00    -0.005 C 
HETATM    6  C8  UNL     1      21.049   4.744  31.385  1.00  0.00     0.019 C 
HETATM    7  C9  UNL     1      22.941   4.225  32.748  1.00  0.00     0.053 C 
HETATM    8  C10 UNL     1      24.066   4.616  33.658  1.00  0.00     0.096 C 
HETATM    9  C11 UNL     1      24.551   3.498  34.581  1.00  0.00     0.077 C 
HETATM   10  C12 UNL     1      24.487   3.893  36.054  1.00  0.00     0.171 C 
HETATM   11  O2  UNL     1      25.083   5.153  36.104  1.00  0.00    -0.234 OA
HETATM   12  O3  UNL     1      24.294   5.984  35.549  1.00  0.00    -0.225 OA
HETATM   13  C13 UNL     1      23.323   5.498  34.695  1.00  0.00     0.138 C 
HETATM   14  C14 UNL     1      22.378   4.538  35.261  1.00  0.00     0.068 C 
HETATM   15  C15 UNL     1      20.944   4.755  35.191  1.00  0.00     0.155 C 
HETATM   16  C16 UNL     1      20.606   4.457  33.713  1.00  0.00     0.156 C 
HETATM   17  C17 UNL     1      23.051   4.128  36.557  1.00  0.00    -0.009 C 
HETATM   18  C18 UNL     1      22.967   5.132  37.629  1.00  0.00     0.018 C 
HETATM   19  C19 UNL     1      22.576   2.797  37.095  1.00  0.00     0.018 C 
ENDROOT
BRANCH   1  20
HETATM   20  C2  UNL     1      22.949   7.951  34.721  1.00  0.00     0.004 C 
HETATM   21  C1  UNL     1      22.782   9.257  33.995  1.00  0.00     0.005 C 
ENDBRANCH   1  20
BRANCH   8  22
HETATM   22  O1  UNL     1      25.079   5.303  33.057  1.00  0.00    -0.386 OA
ATOM     23  H1  UNL     1      24.983   6.248  33.065  1.00  0.00     0.210 HD
ENDBRANCH   8  22
BRANCH  16  24
HETATM   24  O5  UNL     1      19.325   4.730  33.380  1.00  0.00    -0.392 OA
ATOM     25  H5  UNL     1      18.975   4.281  32.620  1.00  0.00     0.210 HD
ENDBRANCH  16  24
BRANCH  15  26
HETATM   26  O4  UNL     1      20.373   5.885  35.651  1.00  0.00    -0.392 OA
ATOM     27  H4  UNL     1      20.642   6.744  35.346  1.00  0.00     0.210 HD
ENDBRANCH  15  26
TORSDOF 4
ENDMDL
