MODEL 1
REMARK VINA RESULT: -6.718358559      0.000      0.000
REMARK  1 active torsions:
REMARK  status: ('A' for Active; 'I' for Inactive)
REMARK    1  A    between atoms: C2_3  and  N2_4 
ROOT
HETATM    1  N1  UNL     1      29.855  48.626  64.840  1.00  0.00    -0.196 NA
HETATM    2  C1  UNL     1      29.103  49.203  64.168  1.00  0.00     0.079 C 
HETATM    3  C2  UNL     1      28.129  49.919  63.319  1.00  0.00     0.262 C 
ENDROOT
BRANCH   3   4
HETATM    4  N2  UNL     1      28.125  49.321  62.013  1.00  0.00    -0.212 N 
HETATM    5  C3  UNL     1      28.206  49.975  60.931  1.00  0.00     0.708 C 
HETATM    6  N3  UNL     1      28.187  49.205  59.733  1.00  0.00    -0.130 N 
HETATM    7  N7  UNL     1      28.308  51.405  61.033  1.00  0.00    -0.021 N 
HETATM    8  N4  UNL     1      28.098  49.701  58.428  1.00  0.00    -0.261 N 
ATOM      9  H3  UNL     1      28.244  48.192  59.836  1.00  0.00     0.205 HD
HETATM   10  C4  UNL     1      28.134  51.025  57.902  1.00  0.00     0.208 C 
ATOM     11  H4  UNL     1      27.986  48.977  57.718  1.00  0.00     0.190 HD
HETATM   12 CL1  UNL     1      28.075  51.187  56.136  1.00  0.00    -0.043 Cl
HETATM   13  N5  UNL     1      28.205  52.113  58.585  1.00  0.00    -0.164 N 
HETATM   14  C5  UNL     1      28.268  52.362  59.982  1.00  0.00     0.692 C 
ATOM     15  H5  UNL     1      28.220  52.958  58.014  1.00  0.00     0.186 HD
HETATM   16  N6  UNL     1      28.294  53.594  60.367  1.00  0.00    -0.234 N 
ATOM     17  H62 UNL     1      28.265  54.281  59.613  1.00  0.00     0.174 HD
ATOM     18  H61 UNL     1      28.339  53.774  61.370  1.00  0.00     0.174 HD
ATOM     19  H7  UNL     1      28.422  51.780  61.975  1.00  0.00     0.203 HD
ATOM     20  H2  UNL     1      28.054  48.305  61.953  1.00  0.00     0.178 HD
ENDBRANCH   3   4
TORSDOF 1
ENDMDL
MODEL 2
REMARK VINA RESULT: -6.374795874      1.391      2.557
REMARK  1 active torsions:
REMARK  status: ('A' for Active; 'I' for Inactive)
REMARK    1  A    between atoms: C2_3  and  N2_4 
ROOT
HETATM    1  N1  UNL     1      30.402  48.180  64.486  1.00  0.00    -0.196 NA
HETATM    2  C1  UNL     1      29.346  48.512  64.128  1.00  0.00     0.079 C 
HETATM    3  C2  UNL     1      28.014  48.929  63.649  1.00  0.00     0.262 C 
ENDROOT
BRANCH   3   4
HETATM    4  N2  UNL     1      28.061  50.324  63.308  1.00  0.00    -0.212 N 
HETATM    5  C3  UNL     1      28.052  50.766  62.120  1.00  0.00     0.708 C 
HETATM    6  N3  UNL     1      28.104  52.183  61.981  1.00  0.00    -0.130 N 
HETATM    7  N7  UNL     1      27.990  49.800  61.059  1.00  0.00    -0.021 N 
HETATM    8  N4  UNL     1      28.271  52.896  60.789  1.00  0.00    -0.261 N 
ATOM      9  H3  UNL     1      28.011  52.733  62.835  1.00  0.00     0.205 HD
HETATM   10  C4  UNL     1      28.301  52.486  59.425  1.00  0.00     0.208 C 
ATOM     11  H4  UNL     1      28.394  53.899  60.922  1.00  0.00     0.190 HD
HETATM   12 CL1  UNL     1      28.449  53.767  58.207  1.00  0.00    -0.043 Cl
HETATM   13  N5  UNL     1      28.230  51.276  58.993  1.00  0.00    -0.164 N 
HETATM   14  C5  UNL     1      28.109  50.027  59.660  1.00  0.00     0.692 C 
ATOM     15  H5  UNL     1      28.269  51.199  57.976  1.00  0.00     0.186 HD
HETATM   16  N6  UNL     1      28.103  48.961  58.932  1.00  0.00    -0.234 N 
ATOM     17  H62 UNL     1      28.188  49.125  57.929  1.00  0.00     0.174 HD
ATOM     18  H61 UNL     1      28.015  48.064  59.411  1.00  0.00     0.174 HD
ATOM     19  H7  UNL     1      27.842  48.831  61.343  1.00  0.00     0.203 HD
ATOM     20  H2  UNL     1      28.103  51.001  64.069  1.00  0.00     0.178 HD
ENDBRANCH   3   4
TORSDOF 1
ENDMDL
MODEL 3
REMARK VINA RESULT: -5.728134423      2.707      4.801
REMARK  1 active torsions:
REMARK  status: ('A' for Active; 'I' for Inactive)
REMARK    1  A    between atoms: C2_3  and  N2_4 
ROOT
HETATM    1  N1  UNL     1      30.472  53.815  58.291  1.00  0.00    -0.196 NA
HETATM    2  C1  UNL     1      30.054  52.895  57.716  1.00  0.00     0.079 C 
HETATM    3  C2  UNL     1      29.499  51.731  56.996  1.00  0.00     0.262 C 
ENDROOT
BRANCH   3   4
HETATM    4  N2  UNL     1      29.438  50.615  57.897  1.00  0.00    -0.212 N 
HETATM    5  C3  UNL     1      28.935  50.666  59.059  1.00  0.00     0.708 C 
HETATM    6  N3  UNL     1      28.966  49.454  59.807  1.00  0.00    -0.130 N 
HETATM    7  N7  UNL     1      28.396  51.927  59.487  1.00  0.00    -0.021 N 
HETATM    8  N4  UNL     1      28.628  49.300  61.155  1.00  0.00    -0.261 N 
ATOM      9  H3  UNL     1      29.264  48.615  59.310  1.00  0.00     0.205 HD
HETATM   10  C4  UNL     1      28.058  50.194  62.107  1.00  0.00     0.208 C 
ATOM     11  H4  UNL     1      28.826  48.371  61.527  1.00  0.00     0.190 HD
HETATM   12 CL1  UNL     1      27.709  49.534  63.717  1.00  0.00    -0.043 Cl
HETATM   13  N5  UNL     1      27.773  51.434  61.911  1.00  0.00    -0.164 N 
HETATM   14  C5  UNL     1      27.911  52.279  60.778  1.00  0.00     0.692 C 
ATOM     15  H5  UNL     1      27.371  51.898  62.726  1.00  0.00     0.186 HD
HETATM   16  N6  UNL     1      27.563  53.515  60.910  1.00  0.00    -0.234 N 
ATOM     17  H62 UNL     1      27.215  53.767  61.835  1.00  0.00     0.174 HD
ATOM     18  H61 UNL     1      27.661  54.122  60.096  1.00  0.00     0.174 HD
ATOM     19  H7  UNL     1      28.355  52.661  58.779  1.00  0.00     0.203 HD
ATOM     20  H2  UNL     1      29.823  49.724  57.582  1.00  0.00     0.178 HD
ENDBRANCH   3   4
TORSDOF 1
ENDMDL
MODEL 4
REMARK VINA RESULT: -5.594766375      2.704      4.929
REMARK  1 active torsions:
REMARK  status: ('A' for Active; 'I' for Inactive)
REMARK    1  A    between atoms: C2_3  and  N2_4 
ROOT
HETATM    1  N1  UNL     1      27.446  51.188  56.109  1.00  0.00    -0.196 NA
HETATM    2  C1  UNL     1      28.444  50.782  56.544  1.00  0.00     0.079 C 
HETATM    3  C2  UNL     1      29.708  50.242  57.085  1.00  0.00     0.262 C 
ENDROOT
BRANCH   3   4
HETATM    4  N2  UNL     1      29.429  49.562  58.320  1.00  0.00    -0.212 N 
HETATM    5  C3  UNL     1      28.933  50.121  59.343  1.00  0.00     0.708 C 
HETATM    6  N3  UNL     1      28.729  49.282  60.475  1.00  0.00    -0.130 N 
HETATM    7  N7  UNL     1      28.635  51.524  59.247  1.00  0.00    -0.021 N 
HETATM    8  N4  UNL     1      28.354  49.693  61.759  1.00  0.00    -0.261 N 
ATOM      9  H3  UNL     1      28.869  48.281  60.338  1.00  0.00     0.205 HD
HETATM   10  C4  UNL     1      27.953  50.958  62.279  1.00  0.00     0.208 C 
ATOM     11  H4  UNL     1      28.371  48.947  62.454  1.00  0.00     0.190 HD
HETATM   12 CL1  UNL     1      27.470  51.004  63.986  1.00  0.00    -0.043 Cl
HETATM   13  N5  UNL     1      27.907  52.068  61.630  1.00  0.00    -0.164 N 
HETATM   14  C5  UNL     1      28.212  52.401  60.283  1.00  0.00     0.692 C 
ATOM     15  H5  UNL     1      27.591  52.860  62.190  1.00  0.00     0.186 HD
HETATM   16  N6  UNL     1      28.100  53.640  59.935  1.00  0.00    -0.234 N 
ATOM     17  H62 UNL     1      27.796  54.269  60.679  1.00  0.00     0.174 HD
ATOM     18  H61 UNL     1      28.318  53.880  58.969  1.00  0.00     0.174 HD
ATOM     19  H7  UNL     1      28.740  51.941  58.322  1.00  0.00     0.203 HD
ATOM     20  H2  UNL     1      29.644  48.567  58.376  1.00  0.00     0.178 HD
ENDBRANCH   3   4
TORSDOF 1
ENDMDL
MODEL 5
REMARK VINA RESULT: -5.125332665      2.788      5.350
REMARK  1 active torsions:
REMARK  status: ('A' for Active; 'I' for Inactive)
REMARK    1  A    between atoms: C2_3  and  N2_4 
ROOT
HETATM    1  N1  UNL     1      30.614  53.781  57.942  1.00  0.00    -0.196 NA
HETATM    2  C1  UNL     1      29.526  53.715  58.347  1.00  0.00     0.079 C 
HETATM    3  C2  UNL     1      28.146  53.657  58.868  1.00  0.00     0.262 C 
ENDROOT
BRANCH   3   4
HETATM    4  N2  UNL     1      28.196  53.433  60.286  1.00  0.00    -0.212 N 
HETATM    5  C3  UNL     1      28.235  52.287  60.824  1.00  0.00     0.708 C 
HETATM    6  N3  UNL     1      28.281  52.266  62.248  1.00  0.00    -0.130 N 
HETATM    7  N7  UNL     1      28.230  51.148  59.947  1.00  0.00    -0.021 N 
HETATM    8  N4  UNL     1      28.165  51.139  63.067  1.00  0.00    -0.261 N 
ATOM      9  H3  UNL     1      28.412  53.162  62.717  1.00  0.00     0.205 HD
HETATM   10  C4  UNL     1      28.107  49.745  62.775  1.00  0.00     0.208 C 
ATOM     11  H4  UNL     1      28.111  51.355  64.062  1.00  0.00     0.190 HD
HETATM   12 CL1  UNL     1      28.048  48.638  64.161  1.00  0.00    -0.043 Cl
HETATM   13  N5  UNL     1      28.093  49.213  61.603  1.00  0.00    -0.164 N 
HETATM   14  C5  UNL     1      28.127  49.774  60.298  1.00  0.00     0.692 C 
ATOM     15  H5  UNL     1      28.049  48.194  61.614  1.00  0.00     0.186 HD
HETATM   16  N6  UNL     1      28.059  48.961  59.298  1.00  0.00    -0.234 N 
ATOM     17  H62 UNL     1      27.986  47.975  59.550  1.00  0.00     0.174 HD
ATOM     18  H61 UNL     1      28.084  49.362  58.361  1.00  0.00     0.174 HD
ATOM     19  H7  UNL     1      28.310  51.351  58.950  1.00  0.00     0.203 HD
ATOM     20  H2  UNL     1      28.200  54.249  60.899  1.00  0.00     0.178 HD
ENDBRANCH   3   4
TORSDOF 1
ENDMDL
