MODEL 1
REMARK VINA RESULT: -6.090402527      0.000      0.000
REMARK  5 active torsions:
REMARK  status: ('A' for Active; 'I' for Inactive)
REMARK    1  A    between atoms: N1_1  and  C1_4 
REMARK    2  A    between atoms: C3_6  and  C4_7 
REMARK    3  A    between atoms: C4_7  and  N2_8 
REMARK    4  A    between atoms: N2_8  and  N3_10 
REMARK    5  A    between atoms: C5_13  and  N4_14 
ROOT
HETATM    1  C1  UNL     1      28.223  52.491  60.236  1.00  0.00     0.101 C 
HETATM    2  C2  UNL     1      27.941  52.122  61.547  1.00  0.00     0.064 C 
HETATM    3  C3  UNL     1      27.761  50.821  62.004  1.00  0.00     0.028 C 
HETATM    4  C5  UNL     1      27.324  49.743  61.261  1.00  0.00     0.112 C 
HETATM    5  N5  UNL     1      27.766  49.473  60.006  1.00  0.00    -0.318 N 
ATOM      6  H5  UNL     1      27.684  48.499  59.716  1.00  0.00     0.170 HD
HETATM    7  C6  UNL     1      28.302  50.314  59.076  1.00  0.00     0.182 C 
HETATM    8 CL1  UNL     1      29.023  49.577  57.666  1.00  0.00    -0.045 Cl
HETATM    9  N6  UNL     1      28.324  51.677  59.151  1.00  0.00    -0.319 N 
ATOM     10  H6  UNL     1      28.433  52.158  58.257  1.00  0.00     0.170 HD
ENDROOT
BRANCH   3  11
HETATM   11  C4  UNL     1      28.096  50.597  63.399  1.00  0.00     0.121 C 
BRANCH  11  12
HETATM   12  N2  UNL     1      29.177  50.055  63.810  1.00  0.00    -0.318 N 
ATOM     13  H2  UNL     1      29.924  50.651  64.168  1.00  0.00     0.185 HD
BRANCH  12  14
HETATM   14  N3  UNL     1      29.370  48.679  63.785  1.00  0.00    -0.345 N 
ATOM     15  H32 UNL     1      29.234  48.162  64.654  1.00  0.00     0.176 HD
ATOM     16  H31 UNL     1      29.639  48.185  62.934  1.00  0.00     0.176 HD
ENDBRANCH  12  14
ENDBRANCH  11  12
ENDBRANCH   3  11
BRANCH   4  17
HETATM   17  N4  UNL     1      26.440  48.979  61.768  1.00  0.00    -0.385 N 
ATOM     18  H42 UNL     1      26.046  49.229  62.675  1.00  0.00     0.157 HD
ATOM     19  H41 UNL     1      26.180  48.136  61.257  1.00  0.00     0.157 HD
ENDBRANCH   4  17
BRANCH   1  20
HETATM   20  N1  UNL     1      28.400  53.748  60.079  1.00  0.00    -0.385 N 
ATOM     21  H12 UNL     1      28.913  54.071  59.259  1.00  0.00     0.157 HD
ATOM     22  H11 UNL     1      27.992  54.318  60.820  1.00  0.00     0.157 HD
ENDBRANCH   1  20
TORSDOF 5
ENDMDL
MODEL 2
REMARK VINA RESULT: -5.563097881      2.357      4.708
REMARK  5 active torsions:
REMARK  status: ('A' for Active; 'I' for Inactive)
REMARK    1  A    between atoms: N1_1  and  C1_4 
REMARK    2  A    between atoms: C3_6  and  C4_7 
REMARK    3  A    between atoms: C4_7  and  N2_8 
REMARK    4  A    between atoms: N2_8  and  N3_10 
REMARK    5  A    between atoms: C5_13  and  N4_14 
ROOT
HETATM    1  C1  UNL     1      27.985  49.617  59.328  1.00  0.00     0.101 C 
HETATM    2  C2  UNL     1      28.436  50.810  58.772  1.00  0.00     0.064 C 
HETATM    3  C3  UNL     1      28.691  51.986  59.469  1.00  0.00     0.028 C 
HETATM    4  C5  UNL     1      28.106  52.380  60.655  1.00  0.00     0.112 C 
HETATM    5  N5  UNL     1      27.911  51.543  61.706  1.00  0.00    -0.318 N 
ATOM      6  H5  UNL     1      27.838  51.997  62.616  1.00  0.00     0.170 HD
HETATM    7  C6  UNL     1      27.798  50.185  61.723  1.00  0.00     0.182 C 
HETATM    8 CL1  UNL     1      27.834  49.407  63.287  1.00  0.00    -0.045 Cl
HETATM    9  N6  UNL     1      27.659  49.382  60.628  1.00  0.00    -0.319 N 
ATOM     10  H6  UNL     1      27.247  48.466  60.812  1.00  0.00     0.170 HD
ENDROOT
BRANCH   3  11
HETATM   11  C4  UNL     1      29.693  52.857  58.880  1.00  0.00     0.121 C 
BRANCH  11  12
HETATM   12  N2  UNL     1      30.346  52.597  57.814  1.00  0.00    -0.318 N 
ATOM     13  H2  UNL     1      30.572  51.627  57.597  1.00  0.00     0.185 HD
BRANCH  12  14
HETATM   14  N3  UNL     1      30.758  53.595  56.939  1.00  0.00    -0.345 N 
ATOM     15  H32 UNL     1      31.183  54.433  57.336  1.00  0.00     0.176 HD
ATOM     16  H31 UNL     1      30.647  53.510  55.928  1.00  0.00     0.176 HD
ENDBRANCH  12  14
ENDBRANCH  11  12
ENDBRANCH   3  11
BRANCH   4  17
HETATM   17  N4  UNL     1      27.702  53.584  60.758  1.00  0.00    -0.385 N 
ATOM     18  H42 UNL     1      27.106  53.960  60.020  1.00  0.00     0.157 HD
ATOM     19  H41 UNL     1      28.010  54.130  61.563  1.00  0.00     0.157 HD
ENDBRANCH   4  17
BRANCH   1  20
HETATM   20  N1  UNL     1      27.882  48.660  58.487  1.00  0.00    -0.385 N 
ATOM     21  H12 UNL     1      28.576  48.585  57.743  1.00  0.00     0.157 HD
ATOM     22  H11 UNL     1      27.082  48.048  58.653  1.00  0.00     0.157 HD
ENDBRANCH   1  20
TORSDOF 5
ENDMDL
MODEL 3
REMARK VINA RESULT: -4.826698934      1.566      2.088
REMARK  5 active torsions:
REMARK  status: ('A' for Active; 'I' for Inactive)
REMARK    1  A    between atoms: N1_1  and  C1_4 
REMARK    2  A    between atoms: C3_6  and  C4_7 
REMARK    3  A    between atoms: C4_7  and  N2_8 
REMARK    4  A    between atoms: N2_8  and  N3_10 
REMARK    5  A    between atoms: C5_13  and  N4_14 
ROOT
HETATM    1  C1  UNL     1      28.185  52.973  60.425  1.00  0.00     0.101 C 
HETATM    2  C2  UNL     1      27.845  51.861  61.189  1.00  0.00     0.064 C 
HETATM    3  C3  UNL     1      28.099  50.536  60.852  1.00  0.00     0.028 C 
HETATM    4  C5  UNL     1      28.242  50.025  59.579  1.00  0.00     0.112 C 
HETATM    5  N5  UNL     1      28.961  50.639  58.604  1.00  0.00    -0.318 N 
ATOM      6  H5  UNL     1      29.308  50.024  57.868  1.00  0.00     0.170 HD
HETATM    7  C6  UNL     1      29.287  51.955  58.465  1.00  0.00     0.182 C 
HETATM    8 CL1  UNL     1      30.466  52.353  57.239  1.00  0.00    -0.045 Cl
HETATM    9  N6  UNL     1      28.775  52.985  59.199  1.00  0.00    -0.319 N 
ATOM     10  H6  UNL     1      28.844  53.905  58.762  1.00  0.00     0.170 HD
ENDROOT
BRANCH   3  11
HETATM   11  C4  UNL     1      28.249  49.625  61.974  1.00  0.00     0.121 C 
BRANCH  11  12
HETATM   12  N2  UNL     1      27.298  49.248  62.738  1.00  0.00    -0.318 N 
ATOM     13  H2  UNL     1      27.427  49.297  63.748  1.00  0.00     0.185 HD
BRANCH  12  14
HETATM   14  N3  UNL     1      26.093  48.772  62.236  1.00  0.00    -0.345 N 
ATOM     15  H32 UNL     1      25.792  47.839  62.518  1.00  0.00     0.176 HD
ATOM     16  H31 UNL     1      25.513  49.324  61.604  1.00  0.00     0.176 HD
ENDBRANCH  12  14
ENDBRANCH  11  12
ENDBRANCH   3  11
BRANCH   4  17
HETATM   17  N4  UNL     1      27.643  48.937  59.294  1.00  0.00    -0.385 N 
ATOM     18  H42 UNL     1      27.004  48.541  59.984  1.00  0.00     0.157 HD
ATOM     19  H41 UNL     1      27.845  48.495  58.398  1.00  0.00     0.157 HD
ENDBRANCH   4  17
BRANCH   1  20
HETATM   20  N1  UNL     1      27.894  54.089  60.978  1.00  0.00    -0.385 N 
ATOM     21  H12 UNL     1      27.031  54.559  60.706  1.00  0.00     0.157 HD
ATOM     22  H11 UNL     1      28.584  54.405  61.660  1.00  0.00     0.157 HD
ENDBRANCH   1  20
TORSDOF 5
ENDMDL
MODEL 4
REMARK VINA RESULT: -4.617815781      2.481      4.820
REMARK  5 active torsions:
REMARK  status: ('A' for Active; 'I' for Inactive)
REMARK    1  A    between atoms: N1_1  and  C1_4 
REMARK    2  A    between atoms: C3_6  and  C4_7 
REMARK    3  A    between atoms: C4_7  and  N2_8 
REMARK    4  A    between atoms: N2_8  and  N3_10 
REMARK    5  A    between atoms: C5_13  and  N4_14 
ROOT
HETATM    1  C1  UNL     1      27.098  49.728  62.061  1.00  0.00     0.101 C 
HETATM    2  C2  UNL     1      27.391  49.804  60.703  1.00  0.00     0.064 C 
HETATM    3  C3  UNL     1      28.125  50.811  60.086  1.00  0.00     0.028 C 
HETATM    4  C5  UNL     1      28.262  52.112  60.522  1.00  0.00     0.112 C 
HETATM    5  N5  UNL     1      28.484  52.446  61.819  1.00  0.00    -0.318 N 
ATOM      6  H5  UNL     1      28.935  53.349  61.964  1.00  0.00     0.170 HD
HETATM    7  C6  UNL     1      28.194  51.751  62.955  1.00  0.00     0.182 C 
HETATM    8 CL1  UNL     1      28.875  52.353  64.447  1.00  0.00    -0.045 Cl
HETATM    9  N6  UNL     1      27.418  50.630  63.028  1.00  0.00    -0.319 N 
ATOM     10  H6  UNL     1      27.019  50.439  63.947  1.00  0.00     0.170 HD
ENDROOT
BRANCH   3  11
HETATM   11  C4  UNL     1      28.828  50.418  58.876  1.00  0.00     0.121 C 
BRANCH  11  12
HETATM   12  N2  UNL     1      28.262  50.060  57.789  1.00  0.00    -0.318 N 
ATOM     13  H2  UNL     1      28.227  49.068  57.554  1.00  0.00     0.185 HD
BRANCH  12  14
HETATM   14  N3  UNL     1      27.691  50.977  56.916  1.00  0.00    -0.345 N 
ATOM     15  H32 UNL     1      27.151  51.745  57.316  1.00  0.00     0.176 HD
ATOM     16  H31 UNL     1      27.797  50.902  55.904  1.00  0.00     0.176 HD
ENDBRANCH  12  14
ENDBRANCH  11  12
ENDBRANCH   3  11
BRANCH   4  17
HETATM   17  N4  UNL     1      28.144  53.050  59.668  1.00  0.00    -0.385 N 
ATOM     18  H42 UNL     1      28.578  53.950  59.874  1.00  0.00     0.157 HD
ATOM     19  H41 UNL     1      27.602  52.869  58.824  1.00  0.00     0.157 HD
ENDBRANCH   4  17
BRANCH   1  20
HETATM   20  N1  UNL     1      26.454  48.675  62.394  1.00  0.00    -0.385 N 
ATOM     21  H12 UNL     1      26.790  47.770  62.062  1.00  0.00     0.157 HD
ATOM     22  H11 UNL     1      25.639  48.856  62.979  1.00  0.00     0.157 HD
ENDBRANCH   1  20
TORSDOF 5
ENDMDL
MODEL 5
REMARK VINA RESULT: -4.477846323      2.079      4.025
REMARK  5 active torsions:
REMARK  status: ('A' for Active; 'I' for Inactive)
REMARK    1  A    between atoms: N1_1  and  C1_4 
REMARK    2  A    between atoms: C3_6  and  C4_7 
REMARK    3  A    between atoms: C4_7  and  N2_8 
REMARK    4  A    between atoms: N2_8  and  N3_10 
REMARK    5  A    between atoms: C5_13  and  N4_14 
ROOT
HETATM    1  C1  UNL     1      27.979  51.213  62.705  1.00  0.00     0.101 C 
HETATM    2  C2  UNL     1      28.428  51.916  61.592  1.00  0.00     0.064 C 
HETATM    3  C3  UNL     1      28.237  51.545  60.265  1.00  0.00     0.028 C 
HETATM    4  C5  UNL     1      28.056  50.262  59.790  1.00  0.00     0.112 C 
HETATM    5  N5  UNL     1      27.248  49.351  60.389  1.00  0.00    -0.318 N 
ATOM      6  H5  UNL     1      26.899  48.612  59.778  1.00  0.00     0.170 HD
HETATM    7  C6  UNL     1      26.835  49.277  61.686  1.00  0.00     0.182 C 
HETATM    8 CL1  UNL     1      25.568  48.130  62.049  1.00  0.00    -0.045 Cl
HETATM    9  N6  UNL     1      27.323  50.021  62.721  1.00  0.00    -0.319 N 
ATOM     10  H6  UNL     1      27.174  49.621  63.649  1.00  0.00     0.170 HD
ENDROOT
BRANCH   3  11
HETATM   11  C4  UNL     1      28.205  52.638  59.310  1.00  0.00     0.121 C 
BRANCH  11  12
HETATM   12  N2  UNL     1      29.129  53.508  59.168  1.00  0.00    -0.318 N 
ATOM     13  H2  UNL     1      28.959  54.464  59.482  1.00  0.00     0.185 HD
BRANCH  12  14
HETATM   14  N3  UNL     1      30.357  53.195  58.600  1.00  0.00    -0.345 N 
ATOM     15  H32 UNL     1      31.128  53.849  58.737  1.00  0.00     0.176 HD
ATOM     16  H31 UNL     1      30.504  52.341  58.060  1.00  0.00     0.176 HD
ENDBRANCH  12  14
ENDBRANCH  11  12
ENDBRANCH   3  11
BRANCH   4  17
HETATM   17  N4  UNL     1      28.704  49.907  58.752  1.00  0.00    -0.385 N 
ATOM     18  H42 UNL     1      29.615  50.333  58.580  1.00  0.00     0.157 HD
ATOM     19  H41 UNL     1      28.274  49.228  58.124  1.00  0.00     0.157 HD
ENDBRANCH   4  17
BRANCH   1  20
HETATM   20  N1  UNL     1      28.231  51.789  63.818  1.00  0.00    -0.385 N 
ATOM     21  H12 UNL     1      27.829  52.710  63.995  1.00  0.00     0.157 HD
ATOM     22  H11 UNL     1      28.833  51.246  64.438  1.00  0.00     0.157 HD
ENDBRANCH   1  20
TORSDOF 5
ENDMDL
