MODEL 1
REMARK VINA RESULT: -6.414146989      0.000      0.000
REMARK  3 active torsions:
REMARK  status: ('A' for Active; 'I' for Inactive)
REMARK    1  A    between atoms: C2_2  and  N1_3 
REMARK    2  A    between atoms: N1_3  and  C3_5 
REMARK    3  A    between atoms: C5_15  and  N6_16 
ROOT
HETATM    1  C3  UNL     1      28.125  50.899  61.012  1.00  0.00     0.148 A 
HETATM    2  N2  UNL     1      27.596  52.063  61.422  1.00  0.00    -0.269 N 
ATOM      3  H2  UNL     1      27.218  52.136  62.365  1.00  0.00     0.190 HD
HETATM    4  N3  UNL     1      27.557  53.124  60.619  1.00  0.00    -0.239 N 
ATOM      5  H3  UNL     1      27.145  53.986  60.974  1.00  0.00     0.208 HD
HETATM    6  N4  UNL     1      28.025  53.114  59.385  1.00  0.00    -0.268 N 
ATOM      7  H4  UNL     1      27.973  53.953  58.807  1.00  0.00     0.190 HD
HETATM    8  C4  UNL     1      28.572  51.985  58.896  1.00  0.00     0.168 A 
HETATM    9  N5  UNL     1      29.129  51.659  57.696  1.00  0.00    -0.173 N 
ATOM     10  H5  UNL     1      29.233  52.278  56.892  1.00  0.00     0.186 HD
HETATM   11  C5  UNL     1      29.516  50.374  57.764  1.00  0.00     0.678 A 
HETATM   12  N7  UNL     1      29.214  49.906  58.968  1.00  0.00    -0.184 N 
ATOM     13  H7  UNL     1      29.403  48.954  59.282  1.00  0.00     0.184 HD
HETATM   14  C6  UNL     1      28.622  50.860  59.724  1.00  0.00     0.140 A 
ENDROOT
BRANCH   1  15
HETATM   15  N1  UNL     1      28.192  49.839  61.741  1.00  0.00    -0.374 N 
ATOM     16  H1  UNL     1      28.418  48.959  61.277  1.00  0.00     0.161 HD
BRANCH  15  17
HETATM   17  C2  UNL     1      27.973  49.806  63.151  1.00  0.00     0.117 C 
HETATM   18  C1  UNL     1      28.977  48.881  63.806  1.00  0.00     0.026 C 
ENDBRANCH  15  17
ENDBRANCH   1  15
BRANCH  11  19
HETATM   19  N6  UNL     1      30.087  49.699  56.825  1.00  0.00    -0.234 N 
ATOM     20  H62 UNL     1      30.898  50.007  56.288  1.00  0.00     0.174 HD
ATOM     21  H61 UNL     1      29.811  48.775  56.493  1.00  0.00     0.174 HD
ENDBRANCH  11  19
TORSDOF 3
ENDMDL
MODEL 2
REMARK VINA RESULT: -6.396236264      1.462      4.624
REMARK  3 active torsions:
REMARK  status: ('A' for Active; 'I' for Inactive)
REMARK    1  A    between atoms: C2_2  and  N1_3 
REMARK    2  A    between atoms: N1_3  and  C3_5 
REMARK    3  A    between atoms: C5_15  and  N6_16 
ROOT
HETATM    1  C3  UNL     1      28.051  51.889  58.949  1.00  0.00     0.148 A 
HETATM    2  N2  UNL     1      28.181  51.072  57.893  1.00  0.00    -0.269 N 
ATOM      3  H2  UNL     1      28.249  51.470  56.957  1.00  0.00     0.190 HD
HETATM    4  N3  UNL     1      28.223  49.750  58.044  1.00  0.00    -0.239 N 
ATOM      5  H3  UNL     1      28.322  49.169  57.211  1.00  0.00     0.208 HD
HETATM    6  N4  UNL     1      28.142  49.154  59.219  1.00  0.00    -0.268 N 
ATOM      7  H4  UNL     1      28.179  48.136  59.284  1.00  0.00     0.190 HD
HETATM    8  C4  UNL     1      28.009  49.902  60.329  1.00  0.00     0.168 A 
HETATM    9  N5  UNL     1      27.903  49.599  61.654  1.00  0.00    -0.173 N 
ATOM     10  H5  UNL     1      27.906  48.664  62.060  1.00  0.00     0.186 HD
HETATM   11  C5  UNL     1      27.793  50.757  62.327  1.00  0.00     0.678 A 
HETATM   12  N7  UNL     1      27.830  51.756  61.456  1.00  0.00    -0.184 N 
ATOM     13  H7  UNL     1      27.767  52.743  61.706  1.00  0.00     0.184 HD
HETATM   14  C6  UNL     1      27.964  51.292  60.191  1.00  0.00     0.140 A 
ENDROOT
BRANCH   1  15
HETATM   15  N1  UNL     1      28.005  53.174  58.868  1.00  0.00    -0.374 N 
ATOM     16  H1  UNL     1      27.120  53.600  58.590  1.00  0.00     0.161 HD
BRANCH  15  17
HETATM   17  C2  UNL     1      29.101  54.046  59.138  1.00  0.00     0.117 C 
HETATM   18  C1  UNL     1      30.345  53.541  58.438  1.00  0.00     0.026 C 
ENDBRANCH  15  17
ENDBRANCH   1  15
BRANCH  11  19
HETATM   19  N6  UNL     1      27.672  50.888  63.605  1.00  0.00    -0.234 N 
ATOM     20  H62 UNL     1      27.756  50.131  64.284  1.00  0.00     0.174 HD
ATOM     21  H61 UNL     1      27.479  51.754  64.107  1.00  0.00     0.174 HD
ENDBRANCH  11  19
TORSDOF 3
ENDMDL
MODEL 3
REMARK VINA RESULT: -6.126987585      1.505      2.927
REMARK  3 active torsions:
REMARK  status: ('A' for Active; 'I' for Inactive)
REMARK    1  A    between atoms: C2_2  and  N1_3 
REMARK    2  A    between atoms: N1_3  and  C3_5 
REMARK    3  A    between atoms: C5_15  and  N6_16 
ROOT
HETATM    1  C3  UNL     1      28.210  49.937  60.075  1.00  0.00     0.148 A 
HETATM    2  N2  UNL     1      27.879  49.058  59.117  1.00  0.00    -0.269 N 
ATOM      3  H2  UNL     1      27.710  48.084  59.367  1.00  0.00     0.190 HD
HETATM    4  N3  UNL     1      27.767  49.433  57.845  1.00  0.00    -0.239 N 
ATOM      5  H3  UNL     1      27.513  48.729  57.152  1.00  0.00     0.208 HD
HETATM    6  N4  UNL     1      27.968  50.672  57.436  1.00  0.00    -0.268 N 
ATOM      7  H4  UNL     1      27.870  50.911  56.449  1.00  0.00     0.190 HD
HETATM    8  C4  UNL     1      28.304  51.615  58.335  1.00  0.00     0.168 A 
HETATM    9  N5  UNL     1      28.572  52.948  58.237  1.00  0.00    -0.173 N 
ATOM     10  H5  UNL     1      28.560  53.503  57.381  1.00  0.00     0.186 HD
HETATM   11  C5  UNL     1      28.854  53.398  59.471  1.00  0.00     0.678 A 
HETATM   12  N7  UNL     1      28.766  52.382  60.320  1.00  0.00    -0.184 N 
ATOM     13  H7  UNL     1      28.932  52.453  61.324  1.00  0.00     0.184 HD
HETATM   14  C6  UNL     1      28.426  51.241  59.676  1.00  0.00     0.140 A 
ENDROOT
BRANCH   1  15
HETATM   15  N1  UNL     1      28.334  49.635  61.322  1.00  0.00    -0.374 N 
ATOM     16  H1  UNL     1      29.223  49.238  61.627  1.00  0.00     0.161 HD
BRANCH  15  17
HETATM   17  C2  UNL     1      27.317  49.815  62.307  1.00  0.00     0.117 C 
HETATM   18  C1  UNL     1      27.791  50.794  63.361  1.00  0.00     0.026 C 
ENDBRANCH  15  17
ENDBRANCH   1  15
BRANCH  11  19
HETATM   19  N6  UNL     1      29.159  54.610  59.790  1.00  0.00    -0.234 N 
ATOM     20  H62 UNL     1      29.477  55.327  59.138  1.00  0.00     0.174 HD
ATOM     21  H61 UNL     1      29.124  55.014  60.725  1.00  0.00     0.174 HD
ENDBRANCH  11  19
TORSDOF 3
ENDMDL
MODEL 4
REMARK VINA RESULT: -6.071508221      1.314      2.440
REMARK  3 active torsions:
REMARK  status: ('A' for Active; 'I' for Inactive)
REMARK    1  A    between atoms: C2_2  and  N1_3 
REMARK    2  A    between atoms: N1_3  and  C3_5 
REMARK    3  A    between atoms: C5_15  and  N6_16 
ROOT
HETATM    1  C3  UNL     1      28.138  50.602  60.616  1.00  0.00     0.148 A 
HETATM    2  N2  UNL     1      27.583  49.404  60.374  1.00  0.00    -0.269 N 
ATOM      3  H2  UNL     1      27.136  48.896  61.136  1.00  0.00     0.190 HD
HETATM    4  N3  UNL     1      27.606  48.866  59.157  1.00  0.00    -0.239 N 
ATOM      5  H3  UNL     1      27.172  47.953  59.021  1.00  0.00     0.208 HD
HETATM    6  N4  UNL     1      28.164  49.455  58.116  1.00  0.00    -0.268 N 
ATOM      7  H4  UNL     1      28.156  49.003  57.202  1.00  0.00     0.190 HD
HETATM    8  C4  UNL     1      28.743  50.660  58.274  1.00  0.00     0.168 A 
HETATM    9  N5  UNL     1      29.386  51.507  57.422  1.00  0.00    -0.173 N 
ATOM     10  H5  UNL     1      29.550  51.352  56.427  1.00  0.00     0.186 HD
HETATM   11  C5  UNL     1      29.765  52.584  58.129  1.00  0.00     0.678 A 
HETATM   12  N7  UNL     1      29.373  52.422  59.386  1.00  0.00    -0.184 N 
ATOM     13  H7  UNL     1      29.535  53.097  60.134  1.00  0.00     0.184 HD
HETATM   14  C6  UNL     1      28.729  51.242  59.544  1.00  0.00     0.140 A 
ENDROOT
BRANCH   1  15
HETATM   15  N1  UNL     1      28.148  51.174  61.770  1.00  0.00    -0.374 N 
ATOM     16  H1  UNL     1      28.594  52.089  61.841  1.00  0.00     0.161 HD
BRANCH  15  17
HETATM   17  C2  UNL     1      27.581  50.621  62.957  1.00  0.00     0.117 C 
HETATM   18  C1  UNL     1      28.561  49.659  63.595  1.00  0.00     0.026 C 
ENDBRANCH  15  17
ENDBRANCH   1  15
BRANCH  11  19
HETATM   19  N6  UNL     1      30.402  53.610  57.676  1.00  0.00    -0.234 N 
ATOM     20  H62 UNL     1      30.395  54.540  58.095  1.00  0.00     0.174 HD
ATOM     21  H61 UNL     1      30.995  53.633  56.846  1.00  0.00     0.174 HD
ENDBRANCH  11  19
TORSDOF 3
ENDMDL
MODEL 5
REMARK VINA RESULT: -5.818231312      1.186      4.188
REMARK  3 active torsions:
REMARK  status: ('A' for Active; 'I' for Inactive)
REMARK    1  A    between atoms: C2_2  and  N1_3 
REMARK    2  A    between atoms: N1_3  and  C3_5 
REMARK    3  A    between atoms: C5_15  and  N6_16 
ROOT
HETATM    1  C3  UNL     1      28.141  50.918  59.249  1.00  0.00     0.148 A 
HETATM    2  N2  UNL     1      28.040  52.208  58.893  1.00  0.00    -0.269 N 
ATOM      3  H2  UNL     1      28.053  52.458  57.905  1.00  0.00     0.190 HD
HETATM    4  N3  UNL     1      27.924  53.168  59.808  1.00  0.00    -0.239 N 
ATOM      5  H3  UNL     1      27.851  54.135  59.490  1.00  0.00     0.208 HD
HETATM    6  N4  UNL     1      27.899  52.931  61.106  1.00  0.00    -0.268 N 
ATOM      7  H4  UNL     1      27.808  53.702  61.768  1.00  0.00     0.190 HD
HETATM    8  C4  UNL     1      27.996  51.663  61.546  1.00  0.00     0.168 A 
HETATM    9  N5  UNL     1      28.001  51.102  62.788  1.00  0.00    -0.173 N 
ATOM     10  H5  UNL     1      27.926  51.601  63.674  1.00  0.00     0.186 HD
HETATM   11  C5  UNL     1      28.124  49.773  62.632  1.00  0.00     0.678 A 
HETATM   12  N7  UNL     1      28.192  49.505  61.335  1.00  0.00    -0.184 N 
ATOM     13  H7  UNL     1      28.288  48.569  60.942  1.00  0.00     0.184 HD
HETATM   14  C6  UNL     1      28.118  50.641  60.601  1.00  0.00     0.140 A 
ENDROOT
BRANCH   1  15
HETATM   15  N1  UNL     1      28.256  49.944  58.412  1.00  0.00    -0.374 N 
ATOM     16  H1  UNL     1      27.938  49.022  58.712  1.00  0.00     0.161 HD
BRANCH  15  17
HETATM   17  C2  UNL     1      28.796  50.062  57.096  1.00  0.00     0.117 C 
HETATM   18  C1  UNL     1      30.307  49.984  57.152  1.00  0.00     0.026 C 
ENDBRANCH  15  17
ENDBRANCH   1  15
BRANCH  11  19
HETATM   19  N6  UNL     1      28.168  48.896  63.576  1.00  0.00    -0.234 N 
ATOM     20  H62 UNL     1      28.064  49.096  64.571  1.00  0.00     0.174 HD
ATOM     21  H61 UNL     1      28.311  47.892  63.461  1.00  0.00     0.174 HD
ENDBRANCH  11  19
TORSDOF 3
ENDMDL
