MODEL 1
REMARK VINA RESULT: -6.357284131      0.000      0.000
REMARK  2 active torsions:
REMARK  status: ('A' for Active; 'I' for Inactive)
REMARK    1  A    between atoms: N1_1  and  C1_4 
REMARK    2  A    between atoms: C3_11  and  N4_12 
ROOT
HETATM    1  C1  UNL     1      28.075  52.194  60.308  1.00  0.00     0.692 A 
HETATM    2  N2  UNL     1      28.481  51.714  59.121  1.00  0.00    -0.165 N 
ATOM      3  H2  UNL     1      28.501  52.334  58.311  1.00  0.00     0.186 HD
HETATM    4  C2  UNL     1      28.862  50.432  58.981  1.00  0.00     0.208 A 
HETATM    5 CL1  UNL     1      29.388  49.814  57.443  1.00  0.00    -0.044 Cl
HETATM    6  N3  UNL     1      28.847  49.587  60.028  1.00  0.00    -0.164 N 
ATOM      7  H3  UNL     1      29.137  48.616  59.911  1.00  0.00     0.186 HD
HETATM    8  C3  UNL     1      28.444  50.039  61.234  1.00  0.00     0.701 A 
HETATM    9  N7  UNL     1      28.068  51.325  61.347  1.00  0.00    -0.022 N 
ATOM     10  H7  UNL     1      27.764  51.663  62.260  1.00  0.00     0.203 HD
ENDROOT
BRANCH   8  11
HETATM   11  N4  UNL     1      28.436  49.131  62.321  1.00  0.00    -0.165 N 
HETATM   12  C4  UNL     1      28.574  49.452  63.541  1.00  0.00     0.215 C 
HETATM   13  N5  UNL     1      28.754  50.798  63.923  1.00  0.00    -0.066 NA
HETATM   14  N6  UNL     1      28.549  48.448  64.539  1.00  0.00    -0.066 NA
ATOM     15  H4  UNL     1      28.309  48.141  62.107  1.00  0.00     0.186 HD
ENDBRANCH   8  11
BRANCH   1  16
HETATM   16  N1  UNL     1      27.710  53.424  60.443  1.00  0.00    -0.234 N 
ATOM     17  H12 UNL     1      27.402  53.987  59.650  1.00  0.00     0.174 HD
ATOM     18  H11 UNL     1      27.718  53.881  61.355  1.00  0.00     0.174 HD
ENDBRANCH   1  16
TORSDOF 2
ENDMDL
MODEL 2
REMARK VINA RESULT: -6.254138780      2.291      4.485
REMARK  2 active torsions:
REMARK  status: ('A' for Active; 'I' for Inactive)
REMARK    1  A    between atoms: N1_1  and  C1_4 
REMARK    2  A    between atoms: C3_11  and  N4_12 
ROOT
HETATM    1  C1  UNL     1      27.726  50.293  62.103  1.00  0.00     0.692 A 
HETATM    2  N2  UNL     1      27.846  51.631  62.150  1.00  0.00    -0.165 N 
ATOM      3  H2  UNL     1      27.670  52.118  63.029  1.00  0.00     0.186 HD
HETATM    4  C2  UNL     1      28.192  52.338  61.060  1.00  0.00     0.208 A 
HETATM    5 CL1  UNL     1      28.346  54.069  61.124  1.00  0.00    -0.044 Cl
HETATM    6  N3  UNL     1      28.430  51.728  59.885  1.00  0.00    -0.164 N 
ATOM      7  H3  UNL     1      28.691  52.274  59.063  1.00  0.00     0.186 HD
HETATM    8  C3  UNL     1      28.317  50.385  59.805  1.00  0.00     0.701 A 
HETATM    9  N7  UNL     1      27.969  49.701  60.909  1.00  0.00    -0.022 N 
ATOM     10  H7  UNL     1      27.885  48.686  60.845  1.00  0.00     0.203 HD
ENDROOT
BRANCH   8  11
HETATM   11  N4  UNL     1      28.572  49.765  58.557  1.00  0.00    -0.165 N 
HETATM   12  C4  UNL     1      29.522  50.066  57.772  1.00  0.00     0.215 C 
HETATM   13  N5  UNL     1      30.438  51.088  58.099  1.00  0.00    -0.066 NA
HETATM   14  N6  UNL     1      29.671  49.370  56.549  1.00  0.00    -0.066 NA
ATOM     15  H4  UNL     1      27.942  49.016  58.267  1.00  0.00     0.186 HD
ENDBRANCH   8  11
BRANCH   1  16
HETATM   16  N1  UNL     1      27.394  49.615  63.148  1.00  0.00    -0.234 N 
ATOM     17  H12 UNL     1      27.424  50.015  64.086  1.00  0.00     0.174 HD
ATOM     18  H11 UNL     1      27.088  48.644  63.073  1.00  0.00     0.174 HD
ENDBRANCH   1  16
TORSDOF 2
ENDMDL
MODEL 3
REMARK VINA RESULT: -6.235445875      2.408      4.301
REMARK  2 active torsions:
REMARK  status: ('A' for Active; 'I' for Inactive)
REMARK    1  A    between atoms: N1_1  and  C1_4 
REMARK    2  A    between atoms: C3_11  and  N4_12 
ROOT
HETATM    1  C1  UNL     1      27.945  52.392  60.878  1.00  0.00     0.692 A 
HETATM    2  N2  UNL     1      27.785  51.621  61.968  1.00  0.00    -0.165 N 
ATOM      3  H2  UNL     1      27.552  52.057  62.860  1.00  0.00     0.186 HD
HETATM    4  C2  UNL     1      27.925  50.285  61.902  1.00  0.00     0.208 A 
HETATM    5 CL1  UNL     1      27.717  49.290  63.313  1.00  0.00    -0.044 Cl
HETATM    6  N3  UNL     1      28.232  49.676  60.743  1.00  0.00    -0.164 N 
ATOM      7  H3  UNL     1      28.337  48.662  60.704  1.00  0.00     0.186 HD
HETATM    8  C3  UNL     1      28.400  50.423  59.631  1.00  0.00     0.701 A 
HETATM    9  N7  UNL     1      28.254  51.756  59.723  1.00  0.00    -0.022 N 
ATOM     10  H7  UNL     1      28.382  52.318  58.880  1.00  0.00     0.203 HD
ENDROOT
BRANCH   8  11
HETATM   11  N4  UNL     1      28.724  49.760  58.421  1.00  0.00    -0.165 N 
HETATM   12  C4  UNL     1      29.667  50.089  57.638  1.00  0.00     0.215 C 
HETATM   13  N5  UNL     1      30.501  51.189  57.928  1.00  0.00    -0.066 NA
HETATM   14  N6  UNL     1      29.889  49.345  56.455  1.00  0.00    -0.066 NA
ATOM     15  H4  UNL     1      28.154  48.955  58.160  1.00  0.00     0.186 HD
ENDBRANCH   8  11
BRANCH   1  16
HETATM   16  N1  UNL     1      27.810  53.672  60.941  1.00  0.00    -0.234 N 
ATOM     17  H12 UNL     1      26.921  54.134  60.745  1.00  0.00     0.174 HD
ATOM     18  H11 UNL     1      28.595  54.275  61.189  1.00  0.00     0.174 HD
ENDBRANCH   1  16
TORSDOF 2
ENDMDL
MODEL 4
REMARK VINA RESULT: -6.215149064      1.922      2.677
REMARK  2 active torsions:
REMARK  status: ('A' for Active; 'I' for Inactive)
REMARK    1  A    between atoms: N1_1  and  C1_4 
REMARK    2  A    between atoms: C3_11  and  N4_12 
ROOT
HETATM    1  C1  UNL     1      28.079  49.911  59.845  1.00  0.00     0.692 A 
HETATM    2  N2  UNL     1      28.163  51.250  59.760  1.00  0.00    -0.165 N 
ATOM      3  H2  UNL     1      28.170  51.693  58.841  1.00  0.00     0.186 HD
HETATM    4  C2  UNL     1      28.237  52.015  60.863  1.00  0.00     0.208 A 
HETATM    5 CL1  UNL     1      28.345  53.747  60.750  1.00  0.00    -0.044 Cl
HETATM    6  N3  UNL     1      28.232  51.464  62.090  1.00  0.00    -0.164 N 
ATOM      7  H3  UNL     1      28.290  52.053  62.921  1.00  0.00     0.186 HD
HETATM    8  C3  UNL     1      28.149  50.122  62.210  1.00  0.00     0.701 A 
HETATM    9  N7  UNL     1      28.075  49.379  61.091  1.00  0.00    -0.022 N 
ATOM     10  H7  UNL     1      28.013  48.365  61.185  1.00  0.00     0.203 HD
ENDROOT
BRANCH   8  11
HETATM   11  N4  UNL     1      28.145  49.564  63.512  1.00  0.00    -0.165 N 
HETATM   12  C4  UNL     1      28.985  48.717  63.945  1.00  0.00     0.215 C 
HETATM   13  N5  UNL     1      30.033  48.247  63.126  1.00  0.00    -0.066 NA
HETATM   14  N6  UNL     1      28.874  48.233  65.271  1.00  0.00    -0.066 NA
ATOM     15  H4  UNL     1      27.410  49.867  64.151  1.00  0.00     0.186 HD
ENDBRANCH   8  11
BRANCH   1  16
HETATM   16  N1  UNL     1      28.007  49.178  58.787  1.00  0.00    -0.234 N 
ATOM     17  H12 UNL     1      27.117  48.831  58.428  1.00  0.00     0.174 HD
ATOM     18  H11 UNL     1      28.845  48.914  58.268  1.00  0.00     0.174 HD
ENDBRANCH   1  16
TORSDOF 2
ENDMDL
MODEL 5
REMARK VINA RESULT: -6.017786454      1.553      2.669
REMARK  2 active torsions:
REMARK  status: ('A' for Active; 'I' for Inactive)
REMARK    1  A    between atoms: N1_1  and  C1_4 
REMARK    2  A    between atoms: C3_11  and  N4_12 
ROOT
HETATM    1  C1  UNL     1      28.142  49.545  58.759  1.00  0.00     0.692 A 
HETATM    2  N2  UNL     1      28.796  50.460  58.023  1.00  0.00    -0.165 N 
ATOM      3  H2  UNL     1      29.060  50.234  57.064  1.00  0.00     0.186 HD
HETATM    4  C2  UNL     1      29.108  51.666  58.528  1.00  0.00     0.208 A 
HETATM    5 CL1  UNL     1      29.954  52.848  57.573  1.00  0.00    -0.044 Cl
HETATM    6  N3  UNL     1      28.776  51.996  59.789  1.00  0.00    -0.164 N 
ATOM      7  H3  UNL     1      29.019  52.914  60.163  1.00  0.00     0.186 HD
HETATM    8  C3  UNL     1      28.119  51.099  60.555  1.00  0.00     0.701 A 
HETATM    9  N7  UNL     1      27.819  49.899  60.025  1.00  0.00    -0.022 N 
ATOM     10  H7  UNL     1      27.322  49.223  60.606  1.00  0.00     0.203 HD
ENDROOT
BRANCH   8  11
HETATM   11  N4  UNL     1      27.781  51.468  61.879  1.00  0.00    -0.165 N 
HETATM   12  C4  UNL     1      27.971  50.751  62.909  1.00  0.00     0.215 C 
HETATM   13  N5  UNL     1      28.563  49.474  62.805  1.00  0.00    -0.066 NA
HETATM   14  N6  UNL     1      27.588  51.234  64.182  1.00  0.00    -0.066 NA
ATOM     15  H4  UNL     1      27.350  52.383  62.016  1.00  0.00     0.186 HD
ENDBRANCH   8  11
BRANCH   1  16
HETATM   16  N1  UNL     1      27.842  48.388  58.274  1.00  0.00    -0.234 N 
ATOM     17  H12 UNL     1      27.340  47.686  58.818  1.00  0.00     0.174 HD
ATOM     18  H11 UNL     1      28.101  48.131  57.321  1.00  0.00     0.174 HD
ENDBRANCH   1  16
TORSDOF 2
ENDMDL
