MODEL 1
REMARK VINA RESULT: -3.451835707      0.000      0.000
REMARK  1 active torsions:
REMARK  status: ('A' for Active; 'I' for Inactive)
REMARK    1  A    between atoms: C2_2  and  N1_3 
ROOT
HETATM    1  N1  UNL     1      -2.962   7.663  20.313  1.00  0.00     0.011 N 
HETATM    2  C3  UNL     1      -1.493   7.771  20.277  1.00  0.00     0.268 C 
HETATM    3  C4  UNL     1      -1.548   6.288  20.503  1.00  0.00     0.058 C 
HETATM    4  C5  UNL     1      -2.271   6.191  21.812  1.00  0.00     0.150 C 
HETATM    5  N2  UNL     1      -3.299   7.228  21.579  1.00  0.00    -0.046 NA
HETATM    6  C6  UNL     1      -2.736   6.429  19.539  1.00  0.00     0.268 C 
ENDROOT
BRANCH   1   7
HETATM    7  C2  UNL     1      -3.694   8.678  19.697  1.00  0.00     0.256 C 
HETATM    8  C1  UNL     1      -2.981  10.008  19.581  1.00  0.00     0.036 C 
ENDBRANCH   1   7
TORSDOF 1
ENDMDL
MODEL 2
REMARK VINA RESULT: -3.225666669      0.839      1.569
REMARK  1 active torsions:
REMARK  status: ('A' for Active; 'I' for Inactive)
REMARK    1  A    between atoms: C2_2  and  N1_3 
ROOT
HETATM    1  N1  UNL     1      -2.988   7.358  20.282  1.00  0.00     0.011 N 
HETATM    2  C3  UNL     1      -2.691   6.696  21.563  1.00  0.00     0.268 C 
HETATM    3  C4  UNL     1      -1.437   6.270  20.858  1.00  0.00     0.058 C 
HETATM    4  C5  UNL     1      -1.972   5.482  19.702  1.00  0.00     0.150 C 
HETATM    5  N2  UNL     1      -3.103   6.361  19.334  1.00  0.00    -0.046 NA
HETATM    6  C6  UNL     1      -1.553   7.696  20.300  1.00  0.00     0.268 C 
ENDROOT
BRANCH   1   7
HETATM    7  C2  UNL     1      -3.894   8.419  20.304  1.00  0.00     0.256 C 
HETATM    8  C1  UNL     1      -3.386   9.713  19.705  1.00  0.00     0.036 C 
ENDBRANCH   1   7
TORSDOF 1
ENDMDL
MODEL 3
REMARK VINA RESULT: -3.189200450      0.917      2.977
REMARK  1 active torsions:
REMARK  status: ('A' for Active; 'I' for Inactive)
REMARK    1  A    between atoms: C2_2  and  N1_3 
ROOT
HETATM    1  N1  UNL     1      -2.296   6.831  20.875  1.00  0.00     0.011 N 
HETATM    2  C3  UNL     1      -2.457   6.419  19.471  1.00  0.00     0.268 C 
HETATM    3  C4  UNL     1      -2.383   7.894  19.205  1.00  0.00     0.058 C 
HETATM    4  C5  UNL     1      -3.552   8.418  19.982  1.00  0.00     0.150 C 
HETATM    5  N2  UNL     1      -3.403   7.590  21.198  1.00  0.00    -0.046 NA
HETATM    6  C6  UNL     1      -1.329   7.796  20.319  1.00  0.00     0.268 C 
ENDROOT
BRANCH   1   7
HETATM    7  C2  UNL     1      -1.805   5.881  21.770  1.00  0.00     0.256 C 
HETATM    8  C1  UNL     1      -2.643   5.673  23.013  1.00  0.00     0.036 C 
ENDBRANCH   1   7
TORSDOF 1
ENDMDL
MODEL 4
REMARK VINA RESULT: -3.012565596      1.225      3.104
REMARK  1 active torsions:
REMARK  status: ('A' for Active; 'I' for Inactive)
REMARK    1  A    between atoms: C2_2  and  N1_3 
ROOT
HETATM    1  N1  UNL     1      -2.090   6.879  20.590  1.00  0.00     0.011 N 
HETATM    2  C3  UNL     1      -3.340   7.448  21.122  1.00  0.00     0.268 C 
HETATM    3  C4  UNL     1      -3.536   7.906  19.707  1.00  0.00     0.058 C 
HETATM    4  C5  UNL     1      -2.338   8.778  19.484  1.00  0.00     0.150 C 
HETATM    5  N2  UNL     1      -1.322   7.941  20.155  1.00  0.00    -0.046 NA
HETATM    6  C6  UNL     1      -2.928   6.523  19.430  1.00  0.00     0.268 C 
ENDROOT
BRANCH   1   7
HETATM    7  C2  UNL     1      -1.507   5.831  21.303  1.00  0.00     0.256 C 
HETATM    8  C1  UNL     1      -2.134   5.541  22.649  1.00  0.00     0.036 C 
ENDBRANCH   1   7
TORSDOF 1
ENDMDL
MODEL 5
REMARK VINA RESULT: -2.984980436      1.119      1.767
REMARK  1 active torsions:
REMARK  status: ('A' for Active; 'I' for Inactive)
REMARK    1  A    between atoms: C2_2  and  N1_3 
ROOT
HETATM    1  N1  UNL     1      -3.180   8.296  20.088  1.00  0.00     0.011 N 
HETATM    2  C3  UNL     1      -3.567   7.072  19.368  1.00  0.00     0.268 C 
HETATM    3  C4  UNL     1      -2.590   6.417  20.299  1.00  0.00     0.058 C 
HETATM    4  C5  UNL     1      -1.310   7.122  19.966  1.00  0.00     0.150 C 
HETATM    5  N2  UNL     1      -1.837   8.498  19.840  1.00  0.00    -0.046 NA
HETATM    6  C6  UNL     1      -3.215   7.423  21.276  1.00  0.00     0.268 C 
ENDROOT
BRANCH   1   7
HETATM    7  C2  UNL     1      -4.072   9.368  20.057  1.00  0.00     0.256 C 
HETATM    8  C1  UNL     1      -3.452  10.715  19.752  1.00  0.00     0.036 C 
ENDBRANCH   1   7
TORSDOF 1
ENDMDL
