MODEL 1
REMARK VINA RESULT: -3.810361717      0.000      0.000
REMARK  0 active torsions:
REMARK  status: ('A' for Active; 'I' for Inactive)
ROOT
HETATM    1  C1  UNL     1      -1.655   5.429  20.811  1.00  0.00     0.056 A 
HETATM    2  C2  UNL     1      -1.917   6.044  19.451  1.00  0.00     0.241 A 
HETATM    3  N1  UNL     1      -2.295   7.300  20.038  1.00  0.00    -0.042 N 
HETATM    4  C3  UNL     1      -2.058   6.771  21.372  1.00  0.00     0.241 A 
HETATM    5  C4  UNL     1      -3.668   7.629  19.748  1.00  0.00     0.267 C 
HETATM    6  C5  UNL     1      -3.707   9.118  19.561  1.00  0.00     0.262 C 
HETATM    7  N2  UNL     1      -2.357   9.498  19.279  1.00  0.00    -0.049 N 
ATOM      8  H21 UNL     1      -2.107  10.394  19.698  1.00  0.00     0.279 HD
ATOM      9  H22 UNL     1      -2.220   9.756  18.302  1.00  0.00     0.279 HD
HETATM   10  C6  UNL     1      -1.487   8.438  19.693  1.00  0.00     0.467 C 
ENDROOT
TORSDOF 0
ENDMDL
MODEL 2
REMARK VINA RESULT: -3.623724091      0.824      1.756
REMARK  0 active torsions:
REMARK  status: ('A' for Active; 'I' for Inactive)
ROOT
HETATM    1  C1  UNL     1      -1.535   5.346  20.844  1.00  0.00     0.056 A 
HETATM    2  C2  UNL     1      -2.113   6.572  21.523  1.00  0.00     0.241 A 
HETATM    3  N1  UNL     1      -2.521   7.135  20.266  1.00  0.00    -0.042 N 
HETATM    4  C3  UNL     1      -1.988   5.984  19.554  1.00  0.00     0.241 A 
HETATM    5  C4  UNL     1      -1.846   8.382  20.000  1.00  0.00     0.267 C 
HETATM    6  C5  UNL     1      -2.848   9.255  19.305  1.00  0.00     0.262 C 
HETATM    7  N2  UNL     1      -4.124   8.692  19.624  1.00  0.00    -0.049 N 
ATOM      8  H21 UNL     1      -4.780   8.746  18.845  1.00  0.00     0.279 HD
ATOM      9  H22 UNL     1      -4.648   9.262  20.289  1.00  0.00     0.279 HD
HETATM   10  C6  UNL     1      -3.930   7.351  20.086  1.00  0.00     0.467 C 
ENDROOT
TORSDOF 0
ENDMDL
MODEL 3
REMARK VINA RESULT: -3.543901911      1.314      2.359
REMARK  0 active torsions:
REMARK  status: ('A' for Active; 'I' for Inactive)
ROOT
HETATM    1  C1  UNL     1      -4.713   6.861  21.161  1.00  0.00     0.056 A 
HETATM    2  C2  UNL     1      -4.291   7.181  19.741  1.00  0.00     0.241 A 
HETATM    3  N1  UNL     1      -2.905   7.246  20.116  1.00  0.00    -0.042 N 
HETATM    4  C3  UNL     1      -3.243   6.938  21.497  1.00  0.00     0.241 A 
HETATM    5  C4  UNL     1      -2.359   8.564  19.901  1.00  0.00     0.267 C 
HETATM    6  C5  UNL     1      -0.945   8.356  19.444  1.00  0.00     0.262 C 
HETATM    7  N2  UNL     1      -0.897   7.008  18.968  1.00  0.00    -0.049 N 
ATOM      8  H21 UNL     1      -0.013   6.548  19.186  1.00  0.00     0.279 HD
ATOM      9  H22 UNL     1      -0.836   6.954  17.951  1.00  0.00     0.279 HD
HETATM   10  C6  UNL     1      -2.027   6.298  19.489  1.00  0.00     0.467 C 
ENDROOT
TORSDOF 0
ENDMDL
MODEL 4
REMARK VINA RESULT: -3.332853718      1.115      3.312
REMARK  0 active torsions:
REMARK  status: ('A' for Active; 'I' for Inactive)
ROOT
HETATM    1  C1  UNL     1      -3.337   8.581  19.533  1.00  0.00     0.056 A 
HETATM    2  C2  UNL     1      -1.906   8.194  19.851  1.00  0.00     0.241 A 
HETATM    3  N1  UNL     1      -2.296   6.856  20.203  1.00  0.00    -0.042 N 
HETATM    4  C3  UNL     1      -3.687   7.162  19.911  1.00  0.00     0.241 A 
HETATM    5  C4  UNL     1      -2.012   6.569  21.588  1.00  0.00     0.267 C 
HETATM    6  C5  UNL     1      -1.588   5.130  21.633  1.00  0.00     0.262 C 
HETATM    7  N2  UNL     1      -1.192   4.811  20.296  1.00  0.00    -0.049 N 
ATOM      8  H21 UNL     1      -1.448   3.861  20.029  1.00  0.00     0.279 HD
ATOM      9  H22 UNL     1      -0.181   4.717  20.200  1.00  0.00     0.279 HD
HETATM   10  C6  UNL     1      -1.737   5.796  19.410  1.00  0.00     0.467 C 
ENDROOT
TORSDOF 0
ENDMDL
MODEL 5
REMARK VINA RESULT: -3.112405401      1.200      3.333
REMARK  0 active torsions:
REMARK  status: ('A' for Active; 'I' for Inactive)
ROOT
HETATM    1  C1  UNL     1      -3.681   8.598  19.404  1.00  0.00     0.056 A 
HETATM    2  C2  UNL     1      -4.039   7.162  19.730  1.00  0.00     0.241 A 
HETATM    3  N1  UNL     1      -2.806   6.965  20.442  1.00  0.00    -0.042 N 
HETATM    4  C3  UNL     1      -2.404   8.335  20.166  1.00  0.00     0.241 A 
HETATM    5  C4  UNL     1      -1.990   5.953  19.818  1.00  0.00     0.267 C 
HETATM    6  C5  UNL     1      -1.314   5.218  20.938  1.00  0.00     0.262 C 
HETATM    7  N2  UNL     1      -2.102   5.495  22.100  1.00  0.00    -0.049 N 
ATOM      8  H21 UNL     1      -1.534   5.602  22.940  1.00  0.00     0.279 HD
ATOM      9  H22 UNL     1      -2.649   4.689  22.402  1.00  0.00     0.279 HD
HETATM   10  C6  UNL     1      -2.916   6.643  21.838  1.00  0.00     0.467 C 
ENDROOT
TORSDOF 0
ENDMDL
