MODEL 1
REMARK VINA RESULT: -2.682188712      0.000      0.000
REMARK  0 active torsions:
REMARK  status: ('A' for Active; 'I' for Inactive)
ROOT
HETATM    1  C1  UNL     1      -1.770   5.822  21.649  1.00  0.00     0.299 C 
HETATM    2  N1  UNL     1      -1.947   4.941  22.814  1.00  0.00     0.029 N 
HETATM    3  C2  UNL     1      -2.880   5.642  23.692  1.00  0.00     0.299 C 
HETATM    4  C3  UNL     1      -0.694   4.761  23.506  1.00  0.00     0.291 C 
HETATM    5  C4  UNL     1      -0.589   3.283  23.704  1.00  0.00     0.291 C 
HETATM    6  N2  UNL     1      -1.478   2.746  22.711  1.00  0.00     0.029 N 
HETATM    7  C5  UNL     1      -0.734   2.300  21.556  1.00  0.00     0.299 C 
HETATM    8  C6  UNL     1      -2.146   1.536  23.224  1.00  0.00     0.299 C 
HETATM    9  N3  UNL     1      -2.423   3.696  22.454  1.00  0.00     0.165 NA
ENDROOT
TORSDOF 0
ENDMDL
MODEL 2
REMARK VINA RESULT: -2.664465289      9.230     10.237
REMARK  0 active torsions:
REMARK  status: ('A' for Active; 'I' for Inactive)
ROOT
HETATM    1  C1  UNL     1     -10.057   0.629  17.301  1.00  0.00     0.299 C 
HETATM    2  N1  UNL     1      -9.291   1.860  17.549  1.00  0.00     0.029 N 
HETATM    3  C2  UNL     1      -7.899   1.510  17.280  1.00  0.00     0.299 C 
HETATM    4  C3  UNL     1      -9.416   2.263  18.929  1.00  0.00     0.291 C 
HETATM    5  C4  UNL     1      -9.754   3.718  18.860  1.00  0.00     0.291 C 
HETATM    6  N2  UNL     1     -10.271   3.881  17.529  1.00  0.00     0.029 N 
HETATM    7  C5  UNL     1     -11.716   3.896  17.548  1.00  0.00     0.299 C 
HETATM    8  C6  UNL     1      -9.884   5.196  16.987  1.00  0.00     0.299 C 
HETATM    9  N3  UNL     1      -9.717   2.904  16.754  1.00  0.00     0.165 NA
ENDROOT
TORSDOF 0
ENDMDL
MODEL 3
REMARK VINA RESULT: -2.644548778      1.321      2.465
REMARK  0 active torsions:
REMARK  status: ('A' for Active; 'I' for Inactive)
ROOT
HETATM    1  C1  UNL     1      -3.889   5.027  24.563  1.00  0.00     0.299 C 
HETATM    2  N1  UNL     1      -2.771   4.134  24.220  1.00  0.00     0.029 N 
HETATM    3  C2  UNL     1      -3.022   2.899  24.957  1.00  0.00     0.299 C 
HETATM    4  C3  UNL     1      -1.519   4.699  24.662  1.00  0.00     0.291 C 
HETATM    5  C4  UNL     1      -0.621   4.584  23.472  1.00  0.00     0.291 C 
HETATM    6  N2  UNL     1      -1.535   4.452  22.371  1.00  0.00     0.029 N 
HETATM    7  C5  UNL     1      -1.699   5.720  21.697  1.00  0.00     0.299 C 
HETATM    8  C6  UNL     1      -0.978   3.548  21.349  1.00  0.00     0.299 C 
HETATM    9  N3  UNL     1      -2.687   3.909  22.861  1.00  0.00     0.165 NA
ENDROOT
TORSDOF 0
ENDMDL
MODEL 4
REMARK VINA RESULT: -2.632456876      0.432      3.284
REMARK  0 active torsions:
REMARK  status: ('A' for Active; 'I' for Inactive)
ROOT
HETATM    1  C1  UNL     1      -2.393   1.802  23.726  1.00  0.00     0.299 C 
HETATM    2  N1  UNL     1      -1.436   2.638  22.986  1.00  0.00     0.029 N 
HETATM    3  C2  UNL     1      -0.653   1.707  22.178  1.00  0.00     0.299 C 
HETATM    4  C3  UNL     1      -0.554   3.326  23.898  1.00  0.00     0.291 C 
HETATM    5  C4  UNL     1      -0.574   4.746  23.431  1.00  0.00     0.291 C 
HETATM    6  N2  UNL     1      -1.790   4.833  22.669  1.00  0.00     0.029 N 
HETATM    7  C5  UNL     1      -2.838   5.437  23.461  1.00  0.00     0.299 C 
HETATM    8  C6  UNL     1      -1.610   5.740  21.522  1.00  0.00     0.299 C 
HETATM    9  N3  UNL     1      -2.070   3.582  22.205  1.00  0.00     0.165 NA
ENDROOT
TORSDOF 0
ENDMDL
MODEL 5
REMARK VINA RESULT: -2.619950115      2.940      4.839
REMARK  0 active torsions:
REMARK  status: ('A' for Active; 'I' for Inactive)
ROOT
HETATM    1  C1  UNL     1       0.871   1.849  17.907  1.00  0.00     0.299 C 
HETATM    2  N1  UNL     1       0.441   1.418  19.246  1.00  0.00     0.029 N 
HETATM    3  C2  UNL     1       1.375   0.363  19.632  1.00  0.00     0.299 C 
HETATM    4  C3  UNL     1      -0.893   0.870  19.196  1.00  0.00     0.291 C 
HETATM    5  C4  UNL     1      -1.614   1.550  20.315  1.00  0.00     0.291 C 
HETATM    6  N2  UNL     1      -0.829   2.730  20.554  1.00  0.00     0.029 N 
HETATM    7  C5  UNL     1      -1.437   3.877  19.918  1.00  0.00     0.299 C 
HETATM    8  C6  UNL     1      -0.818   3.054  21.991  1.00  0.00     0.299 C 
HETATM    9  N3  UNL     1       0.445   2.459  20.151  1.00  0.00     0.165 NA
ENDROOT
TORSDOF 0
ENDMDL
