MODEL 1
REMARK VINA RESULT: -9.395585838      0.000      0.000
REMARK  4 active torsions:
REMARK  status: ('A' for Active; 'I' for Inactive)
REMARK    1  A    between atoms: C2_2  and  C4_4 
REMARK    2  A    between atoms: C4_4  and  C5_5 
REMARK    3  A    between atoms: C7_9  and  N2_10 
REMARK    4  A    between atoms: C9_12  and  C10_13 
ROOT
HETATM    1  C5  UNL     1      49.598  76.311 -32.253  1.00  0.00     0.225 C 
HETATM    2  C6  UNL     1      50.179  75.500 -31.211  1.00  0.00     0.249 C 
HETATM    3  O1  UNL     1      50.629  75.947 -30.130  1.00  0.00    -0.271 OA
HETATM    4  N1  UNL     1      50.174  74.102 -31.568  1.00  0.00    -0.281 N 
HETATM    5  C7  UNL     1      50.049  72.981 -30.696  1.00  0.00     0.129 C 
HETATM    6  C17 UNL     1      50.715  71.938 -31.051  1.00  0.00     0.034 C 
HETATM    7  C18 UNL     1      51.555  71.881 -32.254  1.00  0.00    -0.013 C 
HETATM    8  C19 UNL     1      52.994  72.232 -31.757  1.00  0.00     0.020 C 
HETATM    9  C20 UNL     1      51.622  70.398 -32.524  1.00  0.00     0.020 C 
HETATM   10  C21 UNL     1      51.193  72.756 -33.401  1.00  0.00     0.038 C 
HETATM   11  C22 UNL     1      52.330  73.182 -34.320  1.00  0.00     0.028 C 
HETATM   12  C23 UNL     1      53.032  71.892 -34.712  1.00  0.00     0.238 C 
HETATM   13  N4  UNL     1      51.857  71.087 -34.986  1.00  0.00    -0.070 N 
ATOM     14  H41 UNL     1      51.801  70.200 -34.485  1.00  0.00     0.277 HD
ATOM     15  H42 UNL     1      51.818  70.662 -35.913  1.00  0.00     0.277 HD
HETATM   16  C24 UNL     1      50.807  72.048 -34.689  1.00  0.00     0.199 C 
HETATM   17  C25 UNL     1      51.437  73.161 -35.545  1.00  0.00     0.041 C 
HETATM   18  C26 UNL     1      50.273  73.840 -32.973  1.00  0.00     0.230 C 
HETATM   19  S1  UNL     1      50.302  75.427 -33.645  1.00  0.00     0.183 S 
HETATM   20  O2  UNL     1      51.619  76.020 -33.880  1.00  0.00    -0.225 OA
HETATM   21  O3  UNL     1      49.269  75.753 -34.696  1.00  0.00    -0.225 OA
ENDROOT
BRANCH   5  22
HETATM   22  N2  UNL     1      49.258  73.052 -29.483  1.00  0.00    -0.251 N 
HETATM   23  C8  UNL     1      47.935  73.223 -29.487  1.00  0.00     0.132 A 
HETATM   24  C9  UNL     1      47.515  73.245 -28.157  1.00  0.00     0.012 A 
HETATM   25  C16 UNL     1      48.652  73.079 -27.405  1.00  0.00     0.121 A 
HETATM   26  N3  UNL     1      49.676  72.967 -28.245  1.00  0.00    -0.303 N 
ATOM     27  H3  UNL     1      50.647  72.833 -27.966  1.00  0.00     0.186 HD
BRANCH  24  28
HETATM   28  C10 UNL     1      46.129  73.413 -27.694  1.00  0.00     0.015 A 
HETATM   29  C11 UNL     1      45.234  72.374 -27.785  1.00  0.00     0.015 A 
HETATM   30  C12 UNL     1      43.941  72.504 -27.362  1.00  0.00     0.001 A 
HETATM   31  C13 UNL     1      43.509  73.693 -26.830  1.00  0.00     0.003 A 
HETATM   32  C14 UNL     1      44.375  74.780 -26.714  1.00  0.00     0.043 A 
HETATM   33  C15 UNL     1      45.669  74.597 -27.156  1.00  0.00     0.127 A 
HETATM   34  F1  UNL     1      46.535  75.629 -27.060  1.00  0.00    -0.205 F 
ENDBRANCH  24  28
ENDBRANCH   5  22
BRANCH   1  35
HETATM   35  C4  UNL     1      49.523  77.712 -32.245  1.00  0.00     0.005 C 
BRANCH  35  36
HETATM   36  C2  UNL     1      48.428  78.610 -31.920  1.00  0.00    -0.090 C 
HETATM   37  C1  UNL     1      47.134  78.506 -32.658  1.00  0.00     0.042 C 
HETATM   38  C3  UNL     1      48.231  78.923 -30.445  1.00  0.00     0.042 C 
ENDBRANCH  35  36
ENDBRANCH   1  35
TORSDOF 4
ENDMDL
MODEL 2
REMARK VINA RESULT: -9.250067402      2.339      4.924
REMARK  4 active torsions:
REMARK  status: ('A' for Active; 'I' for Inactive)
REMARK    1  A    between atoms: C2_2  and  C4_4 
REMARK    2  A    between atoms: C4_4  and  C5_5 
REMARK    3  A    between atoms: C7_9  and  N2_10 
REMARK    4  A    between atoms: C9_12  and  C10_13 
ROOT
HETATM    1  C5  UNL     1      51.557  71.424 -32.065  1.00  0.00     0.225 C 
HETATM    2  C6  UNL     1      50.518  72.381 -31.772  1.00  0.00     0.249 C 
HETATM    3  O1  UNL     1      49.297  72.187 -31.976  1.00  0.00    -0.271 OA
HETATM    4  N1  UNL     1      51.062  73.591 -31.207  1.00  0.00    -0.281 N 
HETATM    5  C7  UNL     1      50.450  74.460 -30.256  1.00  0.00     0.129 C 
HETATM    6  C17 UNL     1      50.728  75.708 -30.401  1.00  0.00     0.034 C 
HETATM    7  C18 UNL     1      51.599  76.229 -31.461  1.00  0.00    -0.013 C 
HETATM    8  C19 UNL     1      50.628  76.644 -32.612  1.00  0.00     0.020 C 
HETATM    9  C20 UNL     1      52.052  77.546 -30.882  1.00  0.00     0.020 C 
HETATM   10  C21 UNL     1      52.659  75.333 -31.998  1.00  0.00     0.038 C 
HETATM   11  C22 UNL     1      53.099  75.580 -33.434  1.00  0.00     0.028 C 
HETATM   12  C23 UNL     1      53.436  77.061 -33.499  1.00  0.00     0.238 C 
HETATM   13  N4  UNL     1      54.184  77.163 -32.260  1.00  0.00    -0.070 N 
ATOM     14  H41 UNL     1      53.863  77.878 -31.607  1.00  0.00     0.277 HD
ATOM     15  H42 UNL     1      55.128  77.541 -32.342  1.00  0.00     0.277 HD
HETATM   16  C24 UNL     1      54.093  75.790 -31.789  1.00  0.00     0.199 C 
HETATM   17  C25 UNL     1      54.532  75.186 -33.134  1.00  0.00     0.041 C 
HETATM   18  C26 UNL     1      52.386  73.917 -31.645  1.00  0.00     0.230 C 
HETATM   19  S1  UNL     1      52.771  72.592 -32.678  1.00  0.00     0.183 S 
HETATM   20  O2  UNL     1      52.489  72.763 -34.103  1.00  0.00    -0.225 OA
HETATM   21  O3  UNL     1      54.034  71.822 -32.375  1.00  0.00    -0.225 OA
ENDROOT
BRANCH   5  22
HETATM   22  N2  UNL     1      49.552  73.951 -29.238  1.00  0.00    -0.251 N 
HETATM   23  C8  UNL     1      48.248  74.232 -29.214  1.00  0.00     0.132 A 
HETATM   24  C9  UNL     1      47.703  73.583 -28.105  1.00  0.00     0.012 A 
HETATM   25  C16 UNL     1      48.751  72.925 -27.508  1.00  0.00     0.121 A 
HETATM   26  N3  UNL     1      49.842  73.176 -28.224  1.00  0.00    -0.303 N 
ATOM     27  H3  UNL     1      50.772  72.815 -28.014  1.00  0.00     0.186 HD
BRANCH  24  28
HETATM   28  C10 UNL     1      46.291  73.617 -27.693  1.00  0.00     0.015 A 
HETATM   29  C11 UNL     1      45.489  72.514 -27.864  1.00  0.00     0.015 A 
HETATM   30  C12 UNL     1      44.175  72.520 -27.489  1.00  0.00     0.001 A 
HETATM   31  C13 UNL     1      43.627  73.647 -26.929  1.00  0.00     0.003 A 
HETATM   32  C14 UNL     1      44.395  74.794 -26.732  1.00  0.00     0.043 A 
HETATM   33  C15 UNL     1      45.715  74.736 -27.127  1.00  0.00     0.127 A 
HETATM   34  F1  UNL     1      46.489  75.828 -26.953  1.00  0.00    -0.205 F 
ENDBRANCH  24  28
ENDBRANCH   5  22
BRANCH   1  35
HETATM   35  C4  UNL     1      51.366  70.182 -32.689  1.00  0.00     0.005 C 
BRANCH  35  36
HETATM   36  C2  UNL     1      52.203  68.995 -32.735  1.00  0.00    -0.090 C 
HETATM   37  C1  UNL     1      53.027  68.617 -31.549  1.00  0.00     0.042 C 
HETATM   38  C3  UNL     1      51.614  67.784 -33.442  1.00  0.00     0.042 C 
ENDBRANCH  35  36
ENDBRANCH   1  35
TORSDOF 4
ENDMDL
MODEL 3
REMARK VINA RESULT: -8.963172021      2.512      4.931
REMARK  4 active torsions:
REMARK  status: ('A' for Active; 'I' for Inactive)
REMARK    1  A    between atoms: C2_2  and  C4_4 
REMARK    2  A    between atoms: C4_4  and  C5_5 
REMARK    3  A    between atoms: C7_9  and  N2_10 
REMARK    4  A    between atoms: C9_12  and  C10_13 
ROOT
HETATM    1  C5  UNL     1      52.966  71.332 -31.491  1.00  0.00     0.225 C 
HETATM    2  C6  UNL     1      51.613  71.825 -31.580  1.00  0.00     0.249 C 
HETATM    3  O1  UNL     1      50.591  71.101 -31.547  1.00  0.00    -0.271 OA
HETATM    4  N1  UNL     1      51.584  73.261 -31.708  1.00  0.00    -0.281 N 
HETATM    5  C7  UNL     1      50.589  74.158 -31.221  1.00  0.00     0.129 C 
HETATM    6  C17 UNL     1      50.374  75.189 -31.963  1.00  0.00     0.034 C 
HETATM    7  C18 UNL     1      51.081  75.443 -33.224  1.00  0.00    -0.013 C 
HETATM    8  C19 UNL     1      50.150  74.855 -34.332  1.00  0.00     0.020 C 
HETATM    9  C20 UNL     1      50.926  76.935 -33.381  1.00  0.00     0.020 C 
HETATM   10  C21 UNL     1      52.454  74.892 -33.379  1.00  0.00     0.038 C 
HETATM   11  C22 UNL     1      52.911  74.585 -34.799  1.00  0.00     0.028 C 
HETATM   12  C23 UNL     1      52.653  75.860 -35.586  1.00  0.00     0.238 C 
HETATM   13  N4  UNL     1      53.170  76.812 -34.621  1.00  0.00    -0.070 N 
ATOM     14  H41 UNL     1      52.531  77.561 -34.353  1.00  0.00     0.277 HD
ATOM     15  H42 UNL     1      53.897  77.440 -34.965  1.00  0.00     0.277 HD
HETATM   16  C24 UNL     1      53.570  75.909 -33.554  1.00  0.00     0.199 C 
HETATM   17  C25 UNL     1      54.346  74.970 -34.493  1.00  0.00     0.041 C 
HETATM   18  C26 UNL     1      52.717  73.828 -32.377  1.00  0.00     0.230 C 
HETATM   19  S1  UNL     1      53.690  72.442 -32.698  1.00  0.00     0.183 S 
HETATM   20  O2  UNL     1      53.513  71.800 -34.000  1.00  0.00    -0.225 OA
HETATM   21  O3  UNL     1      55.113  72.464 -32.196  1.00  0.00    -0.225 OA
ENDROOT
BRANCH   5  22
HETATM   22  N2  UNL     1      49.857  73.884 -30.000  1.00  0.00    -0.251 N 
HETATM   23  C8  UNL     1      48.536  74.039 -29.895  1.00  0.00     0.132 A 
HETATM   24  C9  UNL     1      48.179  73.689 -28.592  1.00  0.00     0.012 A 
HETATM   25  C16 UNL     1      49.350  73.330 -27.970  1.00  0.00     0.121 A 
HETATM   26  N3  UNL     1      50.332  73.463 -28.856  1.00  0.00    -0.303 N 
ATOM     27  H3  UNL     1      51.315  73.265 -28.670  1.00  0.00     0.186 HD
BRANCH  24  28
HETATM   28  C10 UNL     1      46.818  73.710 -28.036  1.00  0.00     0.015 A 
HETATM   29  C11 UNL     1      46.001  72.611 -28.152  1.00  0.00     0.015 A 
HETATM   30  C12 UNL     1      44.732  72.605 -27.643  1.00  0.00     0.001 A 
HETATM   31  C13 UNL     1      44.246  73.715 -26.999  1.00  0.00     0.003 A 
HETATM   32  C14 UNL     1      45.033  74.858 -26.852  1.00  0.00     0.043 A 
HETATM   33  C15 UNL     1      46.305  74.812 -27.383  1.00  0.00     0.127 A 
HETATM   34  F1  UNL     1      47.094  75.901 -27.260  1.00  0.00    -0.205 F 
ENDBRANCH  24  28
ENDBRANCH   5  22
BRANCH   1  35
HETATM   35  C4  UNL     1      53.337  69.980 -31.434  1.00  0.00     0.005 C 
BRANCH  35  36
HETATM   36  C2  UNL     1      52.687  68.787 -31.949  1.00  0.00    -0.090 C 
HETATM   37  C1  UNL     1      52.476  68.628 -33.419  1.00  0.00     0.042 C 
HETATM   38  C3  UNL     1      53.052  67.476 -31.269  1.00  0.00     0.042 C 
ENDBRANCH  35  36
ENDBRANCH   1  35
TORSDOF 4
ENDMDL
MODEL 4
REMARK VINA RESULT: -8.911664815      2.408      5.038
REMARK  4 active torsions:
REMARK  status: ('A' for Active; 'I' for Inactive)
REMARK    1  A    between atoms: C2_2  and  C4_4 
REMARK    2  A    between atoms: C4_4  and  C5_5 
REMARK    3  A    between atoms: C7_9  and  N2_10 
REMARK    4  A    between atoms: C9_12  and  C10_13 
ROOT
HETATM    1  C5  UNL     1      51.619  71.227 -32.734  1.00  0.00     0.225 C 
HETATM    2  C6  UNL     1      50.482  72.095 -32.548  1.00  0.00     0.249 C 
HETATM    3  O1  UNL     1      49.288  71.743 -32.693  1.00  0.00    -0.271 OA
HETATM    4  N1  UNL     1      50.893  73.425 -32.168  1.00  0.00    -0.281 N 
HETATM    5  C7  UNL     1      50.197  74.345 -31.330  1.00  0.00     0.129 C 
HETATM    6  C17 UNL     1      50.332  75.584 -31.651  1.00  0.00     0.034 C 
HETATM    7  C18 UNL     1      51.129  76.045 -32.794  1.00  0.00    -0.013 C 
HETATM    8  C19 UNL     1      50.106  76.187 -33.967  1.00  0.00     0.020 C 
HETATM    9  C20 UNL     1      51.437  77.471 -32.413  1.00  0.00     0.020 C 
HETATM   10  C21 UNL     1      52.276  75.205 -33.230  1.00  0.00     0.038 C 
HETATM   11  C22 UNL     1      52.672  75.296 -34.698  1.00  0.00     0.028 C 
HETATM   12  C23 UNL     1      52.841  76.782 -34.974  1.00  0.00     0.238 C 
HETATM   13  N4  UNL     1      53.584  77.136 -33.780  1.00  0.00    -0.070 N 
ATOM     14  H41 UNL     1      53.192  77.895 -33.223  1.00  0.00     0.277 HD
ATOM     15  H42 UNL     1      54.479  77.600 -33.937  1.00  0.00     0.277 HD
HETATM   16  C24 UNL     1      53.653  75.840 -33.123  1.00  0.00     0.199 C 
HETATM   17  C25 UNL     1      54.143  75.107 -34.383  1.00  0.00     0.041 C 
HETATM   18  C26 UNL     1      52.168  73.830 -32.680  1.00  0.00     0.230 C 
HETATM   19  S1  UNL     1      52.689  72.424 -33.531  1.00  0.00     0.183 S 
HETATM   20  O2  UNL     1      52.375  72.364 -34.959  1.00  0.00    -0.225 OA
HETATM   21  O3  UNL     1      54.032  71.847 -33.158  1.00  0.00    -0.225 OA
ENDROOT
BRANCH   5  22
HETATM   22  N2  UNL     1      49.371  73.888 -30.229  1.00  0.00    -0.251 N 
HETATM   23  C8  UNL     1      48.268  74.526 -29.835  1.00  0.00     0.132 A 
HETATM   24  C9  UNL     1      47.736  73.811 -28.760  1.00  0.00     0.012 A 
HETATM   25  C16 UNL     1      48.582  72.746 -28.567  1.00  0.00     0.121 A 
HETATM   26  N3  UNL     1      49.550  72.834 -29.474  1.00  0.00    -0.303 N 
ATOM     27  H3  UNL     1      50.322  72.174 -29.567  1.00  0.00     0.186 HD
BRANCH  24  28
HETATM   28  C10 UNL     1      46.517  74.158 -28.014  1.00  0.00     0.015 A 
HETATM   29  C11 UNL     1      46.392  75.389 -27.417  1.00  0.00     0.015 A 
HETATM   30  C12 UNL     1      45.269  75.735 -26.719  1.00  0.00     0.001 A 
HETATM   31  C13 UNL     1      44.232  74.844 -26.602  1.00  0.00     0.003 A 
HETATM   32  C14 UNL     1      44.305  73.581 -27.188  1.00  0.00     0.043 A 
HETATM   33  C15 UNL     1      45.460  73.281 -27.882  1.00  0.00     0.127 A 
HETATM   34  F1  UNL     1      45.566  72.067 -28.462  1.00  0.00    -0.205 F 
ENDBRANCH  24  28
ENDBRANCH   5  22
BRANCH   1  35
HETATM   35  C4  UNL     1      51.562  69.896 -33.176  1.00  0.00     0.005 C 
BRANCH  35  36
HETATM   36  C2  UNL     1      52.328  68.725 -32.788  1.00  0.00    -0.090 C 
HETATM   37  C1  UNL     1      53.153  68.752 -31.544  1.00  0.00     0.042 C 
HETATM   38  C3  UNL     1      51.657  67.378 -33.010  1.00  0.00     0.042 C 
ENDBRANCH  35  36
ENDBRANCH   1  35
TORSDOF 4
ENDMDL
MODEL 5
REMARK VINA RESULT: -8.899202289      2.244      2.785
REMARK  4 active torsions:
REMARK  status: ('A' for Active; 'I' for Inactive)
REMARK    1  A    between atoms: C2_2  and  C4_4 
REMARK    2  A    between atoms: C4_4  and  C5_5 
REMARK    3  A    between atoms: C7_9  and  N2_10 
REMARK    4  A    between atoms: C9_12  and  C10_13 
ROOT
HETATM    1  C5  UNL     1      52.628  75.748 -30.118  1.00  0.00     0.225 C 
HETATM    2  C6  UNL     1      52.138  74.437 -29.765  1.00  0.00     0.249 C 
HETATM    3  O1  UNL     1      52.435  73.828 -28.711  1.00  0.00    -0.271 OA
HETATM    4  N1  UNL     1      51.254  73.916 -30.779  1.00  0.00    -0.281 N 
HETATM    5  C7  UNL     1      50.136  73.051 -30.598  1.00  0.00     0.129 C 
HETATM    6  C17 UNL     1      49.938  72.209 -31.552  1.00  0.00     0.034 C 
HETATM    7  C18 UNL     1      50.789  72.118 -32.745  1.00  0.00    -0.013 C 
HETATM    8  C19 UNL     1      51.830  71.003 -32.412  1.00  0.00     0.020 C 
HETATM    9  C20 UNL     1      49.868  71.462 -33.743  1.00  0.00     0.020 C 
HETATM   10  C21 UNL     1      51.497  73.347 -33.193  1.00  0.00     0.038 C 
HETATM   11  C22 UNL     1      52.800  73.146 -33.955  1.00  0.00     0.028 C 
HETATM   12  C23 UNL     1      52.462  72.172 -35.073  1.00  0.00     0.238 C 
HETATM   13  N4  UNL     1      51.210  72.767 -35.500  1.00  0.00    -0.070 N 
ATOM     14  H41 UNL     1      50.406  72.138 -35.522  1.00  0.00     0.277 HD
ATOM     15  H42 UNL     1      51.151  73.014 -36.488  1.00  0.00     0.277 HD
HETATM   16  C24 UNL     1      51.118  73.877 -34.566  1.00  0.00     0.199 C 
HETATM   17  C25 UNL     1      52.554  74.359 -34.830  1.00  0.00     0.041 C 
HETATM   18  C26 UNL     1      51.538  74.362 -32.110  1.00  0.00     0.230 C 
HETATM   19  S1  UNL     1      52.864  75.436 -31.867  1.00  0.00     0.183 S 
HETATM   20  O2  UNL     1      54.205  74.868 -32.003  1.00  0.00    -0.225 OA
HETATM   21  O3  UNL     1      52.722  76.843 -32.393  1.00  0.00    -0.225 OA
ENDROOT
BRANCH   5  22
HETATM   22  N2  UNL     1      49.323  73.108 -29.399  1.00  0.00    -0.251 N 
HETATM   23  C8  UNL     1      48.003  73.299 -29.424  1.00  0.00     0.132 A 
HETATM   24  C9  UNL     1      47.558  73.299 -28.101  1.00  0.00     0.012 A 
HETATM   25  C16 UNL     1      48.678  73.100 -27.332  1.00  0.00     0.121 A 
HETATM   26  N3  UNL     1      49.716  72.990 -28.156  1.00  0.00    -0.303 N 
ATOM     27  H3  UNL     1      50.680  72.836 -27.861  1.00  0.00     0.186 HD
BRANCH  24  28
HETATM   28  C10 UNL     1      46.166  73.477 -27.660  1.00  0.00     0.015 A 
HETATM   29  C11 UNL     1      45.266  72.443 -27.762  1.00  0.00     0.015 A 
HETATM   30  C12 UNL     1      43.968  72.583 -27.359  1.00  0.00     0.001 A 
HETATM   31  C13 UNL     1      43.535  73.778 -26.839  1.00  0.00     0.003 A 
HETATM   32  C14 UNL     1      44.406  74.860 -26.713  1.00  0.00     0.043 A 
HETATM   33  C15 UNL     1      45.706  74.666 -27.134  1.00  0.00     0.127 A 
HETATM   34  F1  UNL     1      46.577  75.692 -27.028  1.00  0.00    -0.205 F 
ENDBRANCH  24  28
ENDBRANCH   5  22
BRANCH   1  35
HETATM   35  C4  UNL     1      53.562  76.492 -29.380  1.00  0.00     0.005 C 
BRANCH  35  36
HETATM   36  C2  UNL     1      53.470  77.116 -28.072  1.00  0.00    -0.090 C 
HETATM   37  C1  UNL     1      52.182  77.727 -27.627  1.00  0.00     0.042 C 
HETATM   38  C3  UNL     1      54.201  76.413 -26.938  1.00  0.00     0.042 C 
ENDBRANCH  35  36
ENDBRANCH   1  35
TORSDOF 4
ENDMDL
