MODEL 1
REMARK VINA RESULT: -7.552648472      0.000      0.000
REMARK  10 active torsions:
REMARK  status: ('A' for Active; 'I' for Inactive)
REMARK    1  A    between atoms: C2_2  and  C3_3 
REMARK    2  A    between atoms: C3_3  and  N1_4 
REMARK    3  A    between atoms: C10_11  and  C11_12 
REMARK    4  A    between atoms: C12_13  and  C13_14 
REMARK    5  A    between atoms: N2_20  and  O1_21 
REMARK    6  A    between atoms: C22_27  and  C23_28 
REMARK    7  A    between atoms: C23_28  and  O3_30 
REMARK    8  A    between atoms: C25_32  and  C26_33 
REMARK    9  A    between atoms: C26_33  and  O5_35 
REMARK   10  A    between atoms: O5_35  and  C27_36 
ROOT
HETATM    1  N1  UNL     1      47.723  76.256 -29.625  1.00  0.00    -0.364 N 
HETATM    2  C4  UNL     1      48.218  75.191 -30.372  1.00  0.00     0.073 C 
HETATM    3  C5  UNL     1      49.162  74.277 -29.699  1.00  0.00     0.068 C 
HETATM    4  C6  UNL     1      48.607  73.200 -28.842  1.00  0.00     0.054 C 
HETATM    5  C7  UNL     1      47.362  73.656 -28.187  1.00  0.00    -0.051 A 
HETATM    6  C8  UNL     1      46.445  72.609 -28.309  1.00  0.00     0.009 A 
HETATM    7  C9  UNL     1      45.166  72.739 -27.767  1.00  0.00     0.021 A 
HETATM    8  C10 UNL     1      44.778  73.883 -27.106  1.00  0.00     0.018 A 
HETATM    9  C18 UNL     1      45.702  74.900 -27.002  1.00  0.00     0.028 A 
HETATM   10  C19 UNL     1      46.973  74.805 -27.526  1.00  0.00    -0.048 A 
HETATM   11  C20 UNL     1      47.658  76.084 -27.210  1.00  0.00     0.069 C 
HETATM   12  C21 UNL     1      48.395  76.546 -28.404  1.00  0.00     0.132 C 
HETATM   13  C22 UNL     1      49.869  76.171 -28.404  1.00  0.00     0.053 C 
HETATM   14  C25 UNL     1      50.262  75.082 -29.023  1.00  0.00     0.041 C 
ENDROOT
BRANCH   8  15
HETATM   15  C11 UNL     1      43.471  74.012 -26.539  1.00  0.00    -0.060 C 
HETATM   16  C12 UNL     1      42.363  74.107 -26.033  1.00  0.00    -0.041 C 
BRANCH  16  17
HETATM   17  C13 UNL     1      41.068  74.197 -25.420  1.00  0.00     0.118 A 
HETATM   18  C14 UNL     1      40.585  75.363 -24.848  1.00  0.00     0.083 A 
HETATM   19  C15 UNL     1      39.343  75.434 -24.269  1.00  0.00     0.120 A 
HETATM   20  F1  UNL     1      38.943  76.600 -23.734  1.00  0.00    -0.206 F 
HETATM   21  C16 UNL     1      38.551  74.313 -24.254  1.00  0.00     0.062 A 
HETATM   22  C17 UNL     1      39.029  73.154 -24.820  1.00  0.00     0.127 A 
HETATM   23  N2  UNL     1      40.247  73.125 -25.377  1.00  0.00    -0.228 N 
BRANCH  23  24
HETATM   24  O1  UNL     1      40.742  71.965 -25.952  1.00  0.00    -0.282 OA
ATOM     25  H1  UNL     1      40.091  71.362 -26.292  1.00  0.00     0.245 HD
ENDBRANCH  23  24
ENDBRANCH  16  17
ENDBRANCH   8  15
BRANCH   1  26
HETATM   26  C3  UNL     1      47.289  77.375 -30.357  1.00  0.00     0.063 C 
BRANCH  26  27
HETATM   27  C2  UNL     1      45.878  77.369 -30.832  1.00  0.00     0.040 C 
HETATM   28  C1  UNL     1      44.818  76.928 -29.899  1.00  0.00     0.010 C 
ENDBRANCH  26  27
ENDBRANCH   1  26
BRANCH  13  29
HETATM   29  C23 UNL     1      50.695  77.123 -27.671  1.00  0.00     0.291 C 
HETATM   30  O2  UNL     1      50.980  78.257 -28.028  1.00  0.00    -0.260 OA
BRANCH  29  31
HETATM   31  O3  UNL     1      51.250  76.752 -26.414  1.00  0.00    -0.323 OA
HETATM   32  C24 UNL     1      50.584  77.188 -25.230  1.00  0.00     0.213 C 
ENDBRANCH  29  31
ENDBRANCH  13  29
BRANCH  14  33
HETATM   33  C26 UNL     1      51.590  74.530 -29.153  1.00  0.00     0.290 C 
HETATM   34  O4  UNL     1      52.336  74.177 -28.262  1.00  0.00    -0.260 OA
BRANCH  33  35
HETATM   35  O5  UNL     1      52.100  74.375 -30.467  1.00  0.00    -0.318 OA
BRANCH  35  36
HETATM   36  C27 UNL     1      52.764  73.147 -30.788  1.00  0.00     0.174 C 
HETATM   37  C28 UNL     1      51.742  72.235 -31.402  1.00  0.00     0.034 C 
ENDBRANCH  35  36
ENDBRANCH  33  35
ENDBRANCH  14  33
TORSDOF 10
ENDMDL
MODEL 2
REMARK VINA RESULT: -7.511898019      1.048      1.662
REMARK  10 active torsions:
REMARK  status: ('A' for Active; 'I' for Inactive)
REMARK    1  A    between atoms: C2_2  and  C3_3 
REMARK    2  A    between atoms: C3_3  and  N1_4 
REMARK    3  A    between atoms: C10_11  and  C11_12 
REMARK    4  A    between atoms: C12_13  and  C13_14 
REMARK    5  A    between atoms: N2_20  and  O1_21 
REMARK    6  A    between atoms: C22_27  and  C23_28 
REMARK    7  A    between atoms: C23_28  and  O3_30 
REMARK    8  A    between atoms: C25_32  and  C26_33 
REMARK    9  A    between atoms: C26_33  and  O5_35 
REMARK   10  A    between atoms: O5_35  and  C27_36 
ROOT
HETATM    1  N1  UNL     1      47.434  76.516 -29.578  1.00  0.00    -0.364 N 
HETATM    2  C4  UNL     1      48.037  75.456 -30.248  1.00  0.00     0.073 C 
HETATM    3  C5  UNL     1      49.039  74.670 -29.502  1.00  0.00     0.068 C 
HETATM    4  C6  UNL     1      48.559  73.602 -28.591  1.00  0.00     0.054 C 
HETATM    5  C7  UNL     1      47.263  73.985 -27.990  1.00  0.00    -0.051 A 
HETATM    6  C8  UNL     1      46.443  72.857 -28.065  1.00  0.00     0.009 A 
HETATM    7  C9  UNL     1      45.145  72.905 -27.557  1.00  0.00     0.021 A 
HETATM    8  C10 UNL     1      44.643  74.049 -26.976  1.00  0.00     0.018 A 
HETATM    9  C18 UNL     1      45.473  75.147 -26.916  1.00  0.00     0.028 A 
HETATM   10  C19 UNL     1      46.760  75.133 -27.409  1.00  0.00    -0.048 A 
HETATM   11  C20 UNL     1      47.324  76.483 -27.159  1.00  0.00     0.069 C 
HETATM   12  C21 UNL     1      48.048  76.937 -28.365  1.00  0.00     0.132 C 
HETATM   13  C22 UNL     1      49.548  76.693 -28.312  1.00  0.00     0.053 C 
HETATM   14  C25 UNL     1      50.049  75.607 -28.855  1.00  0.00     0.041 C 
ENDROOT
BRANCH   8  15
HETATM   15  C11 UNL     1      43.316  74.096 -26.444  1.00  0.00    -0.060 C 
HETATM   16  C12 UNL     1      42.193  74.125 -25.966  1.00  0.00    -0.041 C 
BRANCH  16  17
HETATM   17  C13 UNL     1      40.881  74.143 -25.381  1.00  0.00     0.118 A 
HETATM   18  C14 UNL     1      40.330  75.274 -24.800  1.00  0.00     0.083 A 
HETATM   19  C15 UNL     1      39.073  75.276 -24.250  1.00  0.00     0.120 A 
HETATM   20  F1  UNL     1      38.606  76.411 -23.704  1.00  0.00    -0.206 F 
HETATM   21  C16 UNL     1      38.335  74.118 -24.274  1.00  0.00     0.062 A 
HETATM   22  C17 UNL     1      38.880  72.994 -24.850  1.00  0.00     0.127 A 
HETATM   23  N2  UNL     1      40.111  73.033 -25.378  1.00  0.00    -0.228 N 
BRANCH  23  24
HETATM   24  O1  UNL     1      40.673  71.908 -25.962  1.00  0.00    -0.282 OA
ATOM     25  H1  UNL     1      40.292  71.077 -25.707  1.00  0.00     0.245 HD
ENDBRANCH  23  24
ENDBRANCH  16  17
ENDBRANCH   8  15
BRANCH   1  26
HETATM   26  C3  UNL     1      46.923  77.547 -30.386  1.00  0.00     0.063 C 
BRANCH  26  27
HETATM   27  C2  UNL     1      45.533  77.385 -30.894  1.00  0.00     0.040 C 
HETATM   28  C1  UNL     1      44.478  76.961 -29.948  1.00  0.00     0.010 C 
ENDBRANCH  26  27
ENDBRANCH   1  26
BRANCH  13  29
HETATM   29  C23 UNL     1      50.271  77.756 -27.623  1.00  0.00     0.291 C 
HETATM   30  O2  UNL     1      50.493  77.818 -26.423  1.00  0.00    -0.260 OA
BRANCH  29  31
HETATM   31  O3  UNL     1      50.789  78.852 -28.369  1.00  0.00    -0.323 OA
HETATM   32  C24 UNL     1      52.206  78.988 -28.467  1.00  0.00     0.213 C 
ENDBRANCH  29  31
ENDBRANCH  13  29
BRANCH  14  33
HETATM   33  C26 UNL     1      51.423  75.167 -28.925  1.00  0.00     0.290 C 
HETATM   34  O4  UNL     1      52.272  75.517 -29.720  1.00  0.00    -0.260 OA
BRANCH  33  35
HETATM   35  O5  UNL     1      51.848  74.216 -27.963  1.00  0.00    -0.318 OA
BRANCH  35  36
HETATM   36  C27 UNL     1      52.180  74.690 -26.653  1.00  0.00     0.174 C 
HETATM   37  C28 UNL     1      51.056  74.297 -25.739  1.00  0.00     0.034 C 
ENDBRANCH  35  36
ENDBRANCH  33  35
ENDBRANCH  14  33
TORSDOF 10
ENDMDL
MODEL 3
REMARK VINA RESULT: -7.338863397      3.666      6.888
REMARK  10 active torsions:
REMARK  status: ('A' for Active; 'I' for Inactive)
REMARK    1  A    between atoms: C2_2  and  C3_3 
REMARK    2  A    between atoms: C3_3  and  N1_4 
REMARK    3  A    between atoms: C10_11  and  C11_12 
REMARK    4  A    between atoms: C12_13  and  C13_14 
REMARK    5  A    between atoms: N2_20  and  O1_21 
REMARK    6  A    between atoms: C22_27  and  C23_28 
REMARK    7  A    between atoms: C23_28  and  O3_30 
REMARK    8  A    between atoms: C25_32  and  C26_33 
REMARK    9  A    between atoms: C26_33  and  O5_35 
REMARK   10  A    between atoms: O5_35  and  C27_36 
ROOT
HETATM    1  N1  UNL     1      52.426  71.293 -31.512  1.00  0.00    -0.364 N 
HETATM    2  C4  UNL     1      53.577  71.652 -30.816  1.00  0.00     0.073 C 
HETATM    3  C5  UNL     1      54.110  73.009 -31.051  1.00  0.00     0.068 C 
HETATM    4  C6  UNL     1      53.507  74.140 -30.303  1.00  0.00     0.054 C 
HETATM    5  C7  UNL     1      52.065  73.896 -30.080  1.00  0.00    -0.051 A 
HETATM    6  C8  UNL     1      51.809  74.233 -28.748  1.00  0.00     0.009 A 
HETATM    7  C9  UNL     1      50.515  74.122 -28.240  1.00  0.00     0.021 A 
HETATM    8  C10 UNL     1      49.470  73.684 -29.023  1.00  0.00     0.018 A 
HETATM    9  C18 UNL     1      49.751  73.358 -30.331  1.00  0.00     0.028 A 
HETATM   10  C19 UNL     1      51.018  73.455 -30.866  1.00  0.00    -0.048 A 
HETATM   11  C20 UNL     1      50.915  73.024 -32.282  1.00  0.00     0.069 C 
HETATM   12  C21 UNL     1      52.050  72.131 -32.600  1.00  0.00     0.132 C 
HETATM   13  C22 UNL     1      53.218  72.834 -33.274  1.00  0.00     0.053 C 
HETATM   14  C25 UNL     1      54.223  73.265 -32.546  1.00  0.00     0.041 C 
ENDROOT
BRANCH   8  15
HETATM   15  C11 UNL     1      48.140  73.581 -28.506  1.00  0.00    -0.060 C 
HETATM   16  C12 UNL     1      47.004  73.521 -28.063  1.00  0.00    -0.041 C 
BRANCH  16  17
HETATM   17  C13 UNL     1      45.669  73.478 -27.535  1.00  0.00     0.118 A 
HETATM   18  C14 UNL     1      44.910  72.319 -27.497  1.00  0.00     0.083 A 
HETATM   19  C15 UNL     1      43.638  72.294 -26.985  1.00  0.00     0.120 A 
HETATM   20  F1  UNL     1      42.963  71.132 -26.982  1.00  0.00    -0.206 F 
HETATM   21  C16 UNL     1      43.095  73.456 -26.495  1.00  0.00     0.062 A 
HETATM   22  C17 UNL     1      43.845  74.608 -26.533  1.00  0.00     0.127 A 
HETATM   23  N2  UNL     1      45.086  74.591 -27.040  1.00  0.00    -0.228 N 
BRANCH  23  24
HETATM   24  O1  UNL     1      45.854  75.744 -27.084  1.00  0.00    -0.282 OA
ATOM     25  H1  UNL     1      45.666  76.392 -26.415  1.00  0.00     0.245 HD
ENDBRANCH  23  24
ENDBRANCH  16  17
ENDBRANCH   8  15
BRANCH   1  26
HETATM   26  C3  UNL     1      52.230  69.916 -31.715  1.00  0.00     0.063 C 
BRANCH  26  27
HETATM   27  C2  UNL     1      51.754  69.489 -33.060  1.00  0.00     0.040 C 
HETATM   28  C1  UNL     1      51.782  68.049 -33.397  1.00  0.00     0.010 C 
ENDBRANCH  26  27
ENDBRANCH   1  26
BRANCH  13  29
HETATM   29  C23 UNL     1      53.055  72.946 -34.718  1.00  0.00     0.291 C 
HETATM   30  O2  UNL     1      53.176  72.041 -35.531  1.00  0.00    -0.260 OA
BRANCH  29  31
HETATM   31  O3  UNL     1      52.722  74.205 -35.293  1.00  0.00    -0.323 OA
HETATM   32  C24 UNL     1      51.418  74.368 -35.845  1.00  0.00     0.213 C 
ENDBRANCH  29  31
ENDBRANCH  13  29
BRANCH  14  33
HETATM   33  C26 UNL     1      55.425  73.953 -32.959  1.00  0.00     0.290 C 
HETATM   34  O4  UNL     1      55.505  74.987 -33.590  1.00  0.00    -0.260 OA
BRANCH  33  35
HETATM   35  O5  UNL     1      56.663  73.368 -32.593  1.00  0.00    -0.318 OA
BRANCH  35  36
HETATM   36  C27 UNL     1      57.824  74.206 -32.584  1.00  0.00     0.174 C 
HETATM   37  C28 UNL     1      59.024  73.304 -32.619  1.00  0.00     0.034 C 
ENDBRANCH  35  36
ENDBRANCH  33  35
ENDBRANCH  14  33
TORSDOF 10
ENDMDL
MODEL 4
REMARK VINA RESULT: -7.230073120      1.243      1.388
REMARK  10 active torsions:
REMARK  status: ('A' for Active; 'I' for Inactive)
REMARK    1  A    between atoms: C2_2  and  C3_3 
REMARK    2  A    between atoms: C3_3  and  N1_4 
REMARK    3  A    between atoms: C10_11  and  C11_12 
REMARK    4  A    between atoms: C12_13  and  C13_14 
REMARK    5  A    between atoms: N2_20  and  O1_21 
REMARK    6  A    between atoms: C22_27  and  C23_28 
REMARK    7  A    between atoms: C23_28  and  O3_30 
REMARK    8  A    between atoms: C25_32  and  C26_33 
REMARK    9  A    between atoms: C26_33  and  O5_35 
REMARK   10  A    between atoms: O5_35  and  C27_36 
ROOT
HETATM    1  N1  UNL     1      47.462  76.274 -29.592  1.00  0.00    -0.364 N 
HETATM    2  C4  UNL     1      47.882  75.184 -30.349  1.00  0.00     0.073 C 
HETATM    3  C5  UNL     1      48.816  74.239 -29.706  1.00  0.00     0.068 C 
HETATM    4  C6  UNL     1      48.256  73.192 -28.815  1.00  0.00     0.054 C 
HETATM    5  C7  UNL     1      47.059  73.704 -28.114  1.00  0.00    -0.051 A 
HETATM    6  C8  UNL     1      46.096  72.693 -28.187  1.00  0.00     0.009 A 
HETATM    7  C9  UNL     1      44.848  72.878 -27.594  1.00  0.00     0.021 A 
HETATM    8  C10 UNL     1      44.533  74.043 -26.929  1.00  0.00     0.018 A 
HETATM    9  C18 UNL     1      45.500  75.022 -26.873  1.00  0.00     0.028 A 
HETATM   10  C19 UNL     1      46.744  74.872 -27.449  1.00  0.00    -0.048 A 
HETATM   11  C20 UNL     1      47.492  76.125 -27.175  1.00  0.00     0.069 C 
HETATM   12  C21 UNL     1      48.196  76.548 -28.404  1.00  0.00     0.132 C 
HETATM   13  C22 UNL     1      49.652  76.114 -28.461  1.00  0.00     0.053 C 
HETATM   14  C25 UNL     1      49.975  75.004 -29.084  1.00  0.00     0.041 C 
ENDROOT
BRANCH   8  15
HETATM   15  C11 UNL     1      43.258  74.229 -26.309  1.00  0.00    -0.060 C 
HETATM   16  C12 UNL     1      42.176  74.413 -25.773  1.00  0.00    -0.041 C 
BRANCH  16  17
HETATM   17  C13 UNL     1      40.914  74.654 -25.131  1.00  0.00     0.118 A 
HETATM   18  C14 UNL     1      39.912  73.699 -25.055  1.00  0.00     0.083 A 
HETATM   19  C15 UNL     1      38.714  73.943 -24.435  1.00  0.00     0.120 A 
HETATM   20  F1  UNL     1      37.790  72.968 -24.401  1.00  0.00    -0.206 F 
HETATM   21  C16 UNL     1      38.496  75.175 -23.870  1.00  0.00     0.062 A 
HETATM   22  C17 UNL     1      39.488  76.125 -23.945  1.00  0.00     0.127 A 
HETATM   23  N2  UNL     1      40.646  75.848 -24.559  1.00  0.00    -0.228 N 
BRANCH  23  24
HETATM   24  O1  UNL     1      41.656  76.795 -24.642  1.00  0.00    -0.282 OA
ATOM     25  H1  UNL     1      41.374  77.701 -24.615  1.00  0.00     0.245 HD
ENDBRANCH  23  24
ENDBRANCH  16  17
ENDBRANCH   8  15
BRANCH   1  26
HETATM   26  C3  UNL     1      47.042  77.404 -30.317  1.00  0.00     0.063 C 
BRANCH  26  27
HETATM   27  C2  UNL     1      45.618  77.441 -30.749  1.00  0.00     0.040 C 
HETATM   28  C1  UNL     1      44.572  77.053 -29.778  1.00  0.00     0.010 C 
ENDBRANCH  26  27
ENDBRANCH   1  26
BRANCH  13  29
HETATM   29  C23 UNL     1      50.546  77.038 -27.772  1.00  0.00     0.291 C 
HETATM   30  O2  UNL     1      50.818  78.177 -28.124  1.00  0.00    -0.260 OA
BRANCH  29  31
HETATM   31  O3  UNL     1      51.190  76.630 -26.571  1.00  0.00    -0.323 OA
HETATM   32  C24 UNL     1      50.501  76.826 -25.338  1.00  0.00     0.213 C 
ENDBRANCH  29  31
ENDBRANCH  13  29
BRANCH  14  33
HETATM   33  C26 UNL     1      51.274  74.398 -29.265  1.00  0.00     0.290 C 
HETATM   34  O4  UNL     1      52.064  74.071 -28.402  1.00  0.00    -0.260 OA
BRANCH  33  35
HETATM   35  O5  UNL     1      51.692  74.150 -30.596  1.00  0.00    -0.318 OA
BRANCH  35  36
HETATM   36  C27 UNL     1      52.237  72.859 -30.898  1.00  0.00     0.174 C 
HETATM   37  C28 UNL     1      51.149  72.060 -31.556  1.00  0.00     0.034 C 
ENDBRANCH  35  36
ENDBRANCH  33  35
ENDBRANCH  14  33
TORSDOF 10
ENDMDL
MODEL 5
REMARK VINA RESULT: -7.171930144      3.662      6.794
REMARK  10 active torsions:
REMARK  status: ('A' for Active; 'I' for Inactive)
REMARK    1  A    between atoms: C2_2  and  C3_3 
REMARK    2  A    between atoms: C3_3  and  N1_4 
REMARK    3  A    between atoms: C10_11  and  C11_12 
REMARK    4  A    between atoms: C12_13  and  C13_14 
REMARK    5  A    between atoms: N2_20  and  O1_21 
REMARK    6  A    between atoms: C22_27  and  C23_28 
REMARK    7  A    between atoms: C23_28  and  O3_30 
REMARK    8  A    between atoms: C25_32  and  C26_33 
REMARK    9  A    between atoms: C26_33  and  O5_35 
REMARK   10  A    between atoms: O5_35  and  C27_36 
ROOT
HETATM    1  N1  UNL     1      52.496  71.325 -31.450  1.00  0.00    -0.364 N 
HETATM    2  C4  UNL     1      53.642  71.687 -30.747  1.00  0.00     0.073 C 
HETATM    3  C5  UNL     1      54.174  73.044 -30.980  1.00  0.00     0.068 C 
HETATM    4  C6  UNL     1      53.565  74.175 -30.237  1.00  0.00     0.054 C 
HETATM    5  C7  UNL     1      52.123  73.929 -30.023  1.00  0.00    -0.051 A 
HETATM    6  C8  UNL     1      51.857  74.268 -28.693  1.00  0.00     0.009 A 
HETATM    7  C9  UNL     1      50.560  74.155 -28.193  1.00  0.00     0.021 A 
HETATM    8  C10 UNL     1      49.521  73.715 -28.983  1.00  0.00     0.018 A 
HETATM    9  C18 UNL     1      49.811  73.388 -30.289  1.00  0.00     0.028 A 
HETATM   10  C19 UNL     1      51.082  73.486 -30.815  1.00  0.00    -0.048 A 
HETATM   11  C20 UNL     1      50.989  73.053 -32.232  1.00  0.00     0.069 C 
HETATM   12  C21 UNL     1      52.126  72.161 -32.541  1.00  0.00     0.132 C 
HETATM   13  C22 UNL     1      53.298  72.865 -33.208  1.00  0.00     0.053 C 
HETATM   14  C25 UNL     1      54.298  73.298 -32.474  1.00  0.00     0.041 C 
ENDROOT
BRANCH   8  15
HETATM   15  C11 UNL     1      48.188  73.611 -28.474  1.00  0.00    -0.060 C 
HETATM   16  C12 UNL     1      47.047  73.549 -28.044  1.00  0.00    -0.041 C 
BRANCH  16  17
HETATM   17  C13 UNL     1      45.704  73.506 -27.536  1.00  0.00     0.118 A 
HETATM   18  C14 UNL     1      44.943  72.348 -27.517  1.00  0.00     0.083 A 
HETATM   19  C15 UNL     1      43.663  72.323 -27.024  1.00  0.00     0.120 A 
HETATM   20  F1  UNL     1      42.985  71.162 -27.039  1.00  0.00    -0.206 F 
HETATM   21  C16 UNL     1      43.115  73.482 -26.534  1.00  0.00     0.062 A 
HETATM   22  C17 UNL     1      43.868  74.633 -26.553  1.00  0.00     0.127 A 
HETATM   23  N2  UNL     1      45.116  74.617 -27.042  1.00  0.00    -0.228 N 
BRANCH  23  24
HETATM   24  O1  UNL     1      45.887  75.769 -27.066  1.00  0.00    -0.282 OA
ATOM     25  H1  UNL     1      45.530  76.515 -26.600  1.00  0.00     0.245 HD
ENDBRANCH  23  24
ENDBRANCH  16  17
ENDBRANCH   8  15
BRANCH   1  26
HETATM   26  C3  UNL     1      52.304  69.948 -31.652  1.00  0.00     0.063 C 
BRANCH  26  27
HETATM   27  C2  UNL     1      51.937  69.509 -33.027  1.00  0.00     0.040 C 
HETATM   28  C1  UNL     1      51.767  68.062 -33.286  1.00  0.00     0.010 C 
ENDBRANCH  26  27
ENDBRANCH   1  26
BRANCH  13  29
HETATM   29  C23 UNL     1      53.144  72.975 -34.654  1.00  0.00     0.291 C 
HETATM   30  O2  UNL     1      53.230  72.061 -35.461  1.00  0.00    -0.260 OA
BRANCH  29  31
HETATM   31  O3  UNL     1      52.865  74.243 -35.237  1.00  0.00    -0.323 OA
HETATM   32  C24 UNL     1      51.514  74.540 -35.586  1.00  0.00     0.213 C 
ENDBRANCH  29  31
ENDBRANCH  13  29
BRANCH  14  33
HETATM   33  C26 UNL     1      55.501  73.988 -32.880  1.00  0.00     0.290 C 
HETATM   34  O4  UNL     1      56.650  73.635 -32.705  1.00  0.00    -0.260 OA
BRANCH  33  35
HETATM   35  O5  UNL     1      55.342  75.220 -33.561  1.00  0.00    -0.318 OA
BRANCH  35  36
HETATM   36  C27 UNL     1      55.185  76.407 -32.774  1.00  0.00     0.174 C 
HETATM   37  C28 UNL     1      53.747  76.825 -32.880  1.00  0.00     0.034 C 
ENDBRANCH  35  36
ENDBRANCH  33  35
ENDBRANCH  14  33
TORSDOF 10
ENDMDL
