MODEL 1
REMARK VINA RESULT: -8.257303871      0.000      0.000
REMARK  4 active torsions:
REMARK  status: ('A' for Active; 'I' for Inactive)
REMARK    1  A    between atoms: C11_11  and  O1_12 
REMARK    2  A    between atoms: O1_12  and  C12_13 
REMARK    3  A    between atoms: C12_13  and  C13_14 
REMARK    4  A    between atoms: C15_16  and  O2_17 
ROOT
HETATM    1  C1  UNL     1      45.317  72.897 -27.809  1.00  0.00     0.014 C 
HETATM    2  C2  UNL     1      46.415  73.608 -27.780  1.00  0.00    -0.089 C 
HETATM    3  C3  UNL     1      47.712  72.950 -27.432  1.00  0.00     0.036 C 
HETATM    4  C4  UNL     1      48.845  73.920 -27.432  1.00  0.00     0.051 C 
HETATM    5  C5  UNL     1      48.912  74.802 -28.651  1.00  0.00     0.189 C 
HETATM    6  C6  UNL     1      47.544  75.278 -29.102  1.00  0.00     0.051 C 
HETATM    7  C7  UNL     1      46.469  75.062 -28.074  1.00  0.00     0.036 C 
HETATM    8  C8  UNL     1      49.502  74.065 -29.793  1.00  0.00    -0.011 A 
HETATM    9  C9  UNL     1      48.972  73.025 -30.554  1.00  0.00     0.013 A 
HETATM   10  C10 UNL     1      49.681  72.468 -31.578  1.00  0.00     0.037 A 
HETATM   11  C11 UNL     1      50.935  72.960 -31.844  1.00  0.00     0.069 A 
HETATM   12  C21 UNL     1      51.453  73.987 -31.091  1.00  0.00     0.046 A 
HETATM   13  C22 UNL     1      50.744  74.574 -30.034  1.00  0.00    -0.013 A 
HETATM   14  C23 UNL     1      51.018  75.641 -29.089  1.00  0.00     0.272 C 
HETATM   15  C24 UNL     1      51.477  76.934 -29.776  1.00  0.00     0.181 C 
HETATM   16  S1  UNL     1      51.607  78.116 -28.452  1.00  0.00     0.148 S 
HETATM   17  O3  UNL     1      53.082  78.140 -28.065  1.00  0.00    -0.228 OA
HETATM   18  O4  UNL     1      51.329  79.514 -28.983  1.00  0.00    -0.228 OA
HETATM   19  C25 UNL     1      50.594  77.739 -27.074  1.00  0.00     0.170 C 
HETATM   20  C26 UNL     1      49.837  76.469 -27.170  1.00  0.00     0.290 C 
HETATM   21  N2  UNL     1      49.750  75.940 -28.502  1.00  0.00     0.113 N 
ENDROOT
BRANCH  11  22
HETATM   22  O1  UNL     1      51.704  72.435 -32.873  1.00  0.00    -0.351 OA
BRANCH  22  23
HETATM   23  C12 UNL     1      51.280  71.329 -33.620  1.00  0.00     0.182 C 
BRANCH  23  24
HETATM   24  C13 UNL     1      52.092  70.121 -33.160  1.00  0.00     0.041 C 
HETATM   25  C14 UNL     1      52.604  70.442 -31.788  1.00  0.00     0.040 C 
HETATM   26  C15 UNL     1      53.910  69.746 -31.474  1.00  0.00     0.123 C 
HETATM   27  C17 UNL     1      53.826  68.262 -31.519  1.00  0.00     0.063 C 
HETATM   28  C18 UNL     1      52.422  67.725 -31.587  1.00  0.00     0.281 C 
HETATM   29  N1  UNL     1      51.880  67.689 -32.915  1.00  0.00     0.080 N 
HETATM   30  C19 UNL     1      52.844  67.325 -33.920  1.00  0.00     0.317 C 
HETATM   31  F1  UNL     1      50.924  66.711 -32.926  1.00  0.00    -0.018 F 
HETATM   32  C20 UNL     1      51.201  68.924 -33.218  1.00  0.00     0.285 C 
BRANCH  26  33
HETATM   33  O2  UNL     1      54.876  70.285 -32.307  1.00  0.00    -0.391 OA
HETATM   34  C16 UNL     1      55.179  71.604 -32.021  1.00  0.00     0.202 C 
ENDBRANCH  26  33
ENDBRANCH  23  24
ENDBRANCH  22  23
ENDBRANCH  11  22
TORSDOF 4
ENDMDL
MODEL 2
REMARK VINA RESULT: -8.251620023      3.868      8.964
REMARK  4 active torsions:
REMARK  status: ('A' for Active; 'I' for Inactive)
REMARK    1  A    between atoms: C11_11  and  O1_12 
REMARK    2  A    between atoms: O1_12  and  C12_13 
REMARK    3  A    between atoms: C12_13  and  C13_14 
REMARK    4  A    between atoms: C15_16  and  O2_17 
ROOT
HETATM    1  C1  UNL     1      56.970  74.542 -30.637  1.00  0.00     0.014 C 
HETATM    2  C2  UNL     1      56.188  73.514 -30.849  1.00  0.00    -0.089 C 
HETATM    3  C3  UNL     1      55.272  73.047 -29.764  1.00  0.00     0.036 C 
HETATM    4  C4  UNL     1      54.476  71.857 -30.183  1.00  0.00     0.051 C 
HETATM    5  C5  UNL     1      53.815  71.991 -31.529  1.00  0.00     0.189 C 
HETATM    6  C6  UNL     1      54.707  72.668 -32.552  1.00  0.00     0.051 C 
HETATM    7  C7  UNL     1      56.145  72.755 -32.123  1.00  0.00     0.036 C 
HETATM    8  C8  UNL     1      52.588  72.815 -31.426  1.00  0.00    -0.011 A 
HETATM    9  C9  UNL     1      52.447  74.183 -31.202  1.00  0.00     0.013 A 
HETATM   10  C10 UNL     1      51.214  74.763 -31.138  1.00  0.00     0.037 A 
HETATM   11  C11 UNL     1      50.109  73.965 -31.299  1.00  0.00     0.069 A 
HETATM   12  C21 UNL     1      50.253  72.615 -31.520  1.00  0.00     0.046 A 
HETATM   13  C22 UNL     1      51.508  71.996 -31.590  1.00  0.00    -0.013 A 
HETATM   14  C23 UNL     1      51.966  70.635 -31.806  1.00  0.00     0.272 C 
HETATM   15  C24 UNL     1      51.349  69.998 -33.058  1.00  0.00     0.181 C 
HETATM   16  S1  UNL     1      52.156  68.417 -33.192  1.00  0.00     0.148 S 
HETATM   17  O3  UNL     1      51.200  67.411 -32.561  1.00  0.00    -0.228 OA
HETATM   18  O4  UNL     1      52.234  68.003 -34.654  1.00  0.00    -0.228 OA
HETATM   19  C25 UNL     1      53.729  68.367 -32.425  1.00  0.00     0.170 C 
HETATM   20  C26 UNL     1      54.132  69.605 -31.718  1.00  0.00     0.290 C 
HETATM   21  N2  UNL     1      53.363  70.762 -32.081  1.00  0.00     0.113 N 
ENDROOT
BRANCH  11  22
HETATM   22  O1  UNL     1      48.829  74.497 -31.244  1.00  0.00    -0.351 OA
BRANCH  22  23
HETATM   23  C12 UNL     1      48.591  75.802 -30.796  1.00  0.00     0.182 C 
BRANCH  23  24
HETATM   24  C13 UNL     1      47.512  75.732 -29.719  1.00  0.00     0.041 C 
HETATM   25  C14 UNL     1      48.146  75.109 -28.512  1.00  0.00     0.040 C 
HETATM   26  C15 UNL     1      47.155  74.353 -27.655  1.00  0.00     0.123 C 
HETATM   27  C17 UNL     1      46.053  75.196 -27.122  1.00  0.00     0.063 C 
HETATM   28  C18 UNL     1      46.273  76.676 -27.291  1.00  0.00     0.281 C 
HETATM   29  N1  UNL     1      45.887  77.176 -28.580  1.00  0.00     0.080 N 
HETATM   30  C19 UNL     1      44.700  76.555 -29.105  1.00  0.00     0.317 C 
HETATM   31  F1  UNL     1      45.591  78.500 -28.419  1.00  0.00    -0.018 F 
HETATM   32  C20 UNL     1      46.997  77.117 -29.497  1.00  0.00     0.285 C 
BRANCH  26  33
HETATM   33  O2  UNL     1      46.727  73.258 -28.389  1.00  0.00    -0.391 OA
HETATM   34  C16 UNL     1      45.549  72.704 -27.920  1.00  0.00     0.202 C 
ENDBRANCH  26  33
ENDBRANCH  23  24
ENDBRANCH  22  23
ENDBRANCH  11  22
TORSDOF 4
ENDMDL
MODEL 3
REMARK VINA RESULT: -8.170779110      3.635      8.226
REMARK  4 active torsions:
REMARK  status: ('A' for Active; 'I' for Inactive)
REMARK    1  A    between atoms: C11_11  and  O1_12 
REMARK    2  A    between atoms: O1_12  and  C12_13 
REMARK    3  A    between atoms: C12_13  and  C13_14 
REMARK    4  A    between atoms: C15_16  and  O2_17 
ROOT
HETATM    1  C1  UNL     1      52.245  67.378 -33.043  1.00  0.00     0.014 C 
HETATM    2  C2  UNL     1      52.868  68.502 -32.800  1.00  0.00    -0.089 C 
HETATM    3  C3  UNL     1      52.720  69.649 -33.747  1.00  0.00     0.036 C 
HETATM    4  C4  UNL     1      53.517  70.833 -33.314  1.00  0.00     0.051 C 
HETATM    5  C5  UNL     1      53.344  71.207 -31.866  1.00  0.00     0.189 C 
HETATM    6  C6  UNL     1      53.284  69.996 -30.954  1.00  0.00     0.051 C 
HETATM    7  C7  UNL     1      53.739  68.727 -31.619  1.00  0.00     0.036 C 
HETATM    8  C8  UNL     1      52.076  71.949 -31.669  1.00  0.00    -0.011 A 
HETATM    9  C9  UNL     1      50.759  71.497 -31.728  1.00  0.00     0.013 A 
HETATM   10  C10 UNL     1      49.713  72.347 -31.516  1.00  0.00     0.037 A 
HETATM   11  C11 UNL     1      49.988  73.664 -31.242  1.00  0.00     0.069 A 
HETATM   12  C21 UNL     1      51.289  74.104 -31.184  1.00  0.00     0.046 A 
HETATM   13  C22 UNL     1      52.380  73.251 -31.399  1.00  0.00    -0.013 A 
HETATM   14  C23 UNL     1      53.823  73.419 -31.402  1.00  0.00     0.272 C 
HETATM   15  C24 UNL     1      54.340  74.104 -30.131  1.00  0.00     0.181 C 
HETATM   16  S1  UNL     1      56.111  74.066 -30.299  1.00  0.00     0.148 S 
HETATM   17  O3  UNL     1      56.503  75.433 -30.848  1.00  0.00    -0.228 OA
HETATM   18  O4  UNL     1      56.756  74.009 -28.921  1.00  0.00    -0.228 OA
HETATM   19  C25 UNL     1      56.690  72.776 -31.332  1.00  0.00     0.170 C 
HETATM   20  C26 UNL     1      55.637  71.954 -31.973  1.00  0.00     0.290 C 
HETATM   21  N2  UNL     1      54.342  72.087 -31.367  1.00  0.00     0.113 N 
ENDROOT
BRANCH  11  22
HETATM   22  O1  UNL     1      48.967  74.575 -31.018  1.00  0.00    -0.351 OA
BRANCH  22  23
HETATM   23  C12 UNL     1      49.059  75.555 -30.022  1.00  0.00     0.182 C 
BRANCH  23  24
HETATM   24  C13 UNL     1      47.708  75.624 -29.314  1.00  0.00     0.041 C 
HETATM   25  C14 UNL     1      47.898  75.015 -27.958  1.00  0.00     0.040 C 
HETATM   26  C15 UNL     1      46.634  74.383 -27.418  1.00  0.00     0.123 C 
HETATM   27  C17 UNL     1      45.505  75.336 -27.260  1.00  0.00     0.063 C 
HETATM   28  C18 UNL     1      45.896  76.783 -27.391  1.00  0.00     0.281 C 
HETATM   29  N1  UNL     1      45.955  77.246 -28.749  1.00  0.00     0.080 N 
HETATM   30  C19 UNL     1      44.926  76.695 -29.589  1.00  0.00     0.317 C 
HETATM   31  F1  UNL     1      45.745  78.597 -28.716  1.00  0.00    -0.018 F 
HETATM   32  C20 UNL     1      47.277  77.054 -29.291  1.00  0.00     0.285 C 
BRANCH  26  33
HETATM   33  O2  UNL     1      46.346  73.289 -28.219  1.00  0.00    -0.391 OA
HETATM   34  C16 UNL     1      45.241  72.571 -27.797  1.00  0.00     0.202 C 
ENDBRANCH  26  33
ENDBRANCH  23  24
ENDBRANCH  22  23
ENDBRANCH  11  22
TORSDOF 4
ENDMDL
MODEL 4
REMARK VINA RESULT: -7.800076840      5.420      7.974
REMARK  4 active torsions:
REMARK  status: ('A' for Active; 'I' for Inactive)
REMARK    1  A    between atoms: C11_11  and  O1_12 
REMARK    2  A    between atoms: O1_12  and  C12_13 
REMARK    3  A    between atoms: C12_13  and  C13_14 
REMARK    4  A    between atoms: C15_16  and  O2_17 
ROOT
HETATM    1  C1  UNL     1      53.439  67.325 -31.839  1.00  0.00     0.014 C 
HETATM    2  C2  UNL     1      52.907  68.465 -32.198  1.00  0.00    -0.089 C 
HETATM    3  C3  UNL     1      52.702  69.539 -31.178  1.00  0.00     0.036 C 
HETATM    4  C4  UNL     1      52.069  70.753 -31.769  1.00  0.00     0.051 C 
HETATM    5  C5  UNL     1      52.710  71.233 -33.045  1.00  0.00     0.189 C 
HETATM    6  C6  UNL     1      53.100  70.093 -33.966  1.00  0.00     0.051 C 
HETATM    7  C7  UNL     1      52.479  68.779 -33.584  1.00  0.00     0.036 C 
HETATM    8  C8  UNL     1      53.952  71.985 -32.750  1.00  0.00    -0.011 A 
HETATM    9  C9  UNL     1      55.183  71.529 -32.284  1.00  0.00     0.013 A 
HETATM   10  C10 UNL     1      56.219  72.390 -32.071  1.00  0.00     0.037 A 
HETATM   11  C11 UNL     1      56.021  73.724 -32.328  1.00  0.00     0.069 A 
HETATM   12  C21 UNL     1      54.805  74.170 -32.789  1.00  0.00     0.046 A 
HETATM   13  C22 UNL     1      53.725  73.305 -33.015  1.00  0.00    -0.013 A 
HETATM   14  C23 UNL     1      52.362  73.474 -33.485  1.00  0.00     0.272 C 
HETATM   15  C24 UNL     1      52.285  74.252 -34.805  1.00  0.00     0.181 C 
HETATM   16  S1  UNL     1      50.562  74.205 -35.246  1.00  0.00     0.148 S 
HETATM   17  O3  UNL     1      49.977  75.528 -34.766  1.00  0.00    -0.228 OA
HETATM   18  O4  UNL     1      50.419  74.251 -36.760  1.00  0.00    -0.228 OA
HETATM   19  C25 UNL     1      49.700  72.843 -34.561  1.00  0.00     0.170 C 
HETATM   20  C26 UNL     1      50.496  71.973 -33.663  1.00  0.00     0.290 C 
HETATM   21  N2  UNL     1      51.916  72.150 -33.787  1.00  0.00     0.113 N 
ENDROOT
BRANCH  11  22
HETATM   22  O1  UNL     1      57.037  74.648 -32.131  1.00  0.00    -0.351 OA
BRANCH  22  23
HETATM   23  C12 UNL     1      57.522  74.950 -30.852  1.00  0.00     0.182 C 
BRANCH  23  24
HETATM   24  C13 UNL     1      58.674  73.994 -30.557  1.00  0.00     0.041 C 
HETATM   25  C14 UNL     1      59.858  74.492 -31.330  1.00  0.00     0.040 C 
HETATM   26  C15 UNL     1      60.813  73.384 -31.717  1.00  0.00     0.123 C 
HETATM   27  C17 UNL     1      61.387  72.653 -30.558  1.00  0.00     0.063 C 
HETATM   28  C18 UNL     1      61.143  73.315 -29.228  1.00  0.00     0.281 C 
HETATM   29  N1  UNL     1      59.866  73.006 -28.653  1.00  0.00     0.080 N 
HETATM   30  C19 UNL     1      59.451  71.645 -28.871  1.00  0.00     0.317 C 
HETATM   31  F1  UNL     1      59.993  73.158 -27.300  1.00  0.00    -0.018 F 
HETATM   32  C20 UNL     1      58.875  73.963 -29.078  1.00  0.00     0.285 C 
BRANCH  26  33
HETATM   33  O2  UNL     1      60.157  72.575 -32.630  1.00  0.00    -0.391 OA
HETATM   34  C16 UNL     1      59.824  73.223 -33.806  1.00  0.00     0.202 C 
ENDBRANCH  26  33
ENDBRANCH  23  24
ENDBRANCH  22  23
ENDBRANCH  11  22
TORSDOF 4
ENDMDL
MODEL 5
REMARK VINA RESULT: -7.717416807      5.125      7.887
REMARK  4 active torsions:
REMARK  status: ('A' for Active; 'I' for Inactive)
REMARK    1  A    between atoms: C11_11  and  O1_12 
REMARK    2  A    between atoms: O1_12  and  C12_13 
REMARK    3  A    between atoms: C12_13  and  C13_14 
REMARK    4  A    between atoms: C15_16  and  O2_17 
ROOT
HETATM    1  C1  UNL     1      38.588  74.076 -24.033  1.00  0.00     0.014 C 
HETATM    2  C2  UNL     1      39.564  74.945 -24.090  1.00  0.00    -0.089 C 
HETATM    3  C3  UNL     1      40.874  74.628 -23.444  1.00  0.00     0.036 C 
HETATM    4  C4  UNL     1      41.853  75.743 -23.597  1.00  0.00     0.051 C 
HETATM    5  C5  UNL     1      41.974  76.280 -24.999  1.00  0.00     0.189 C 
HETATM    6  C6  UNL     1      40.634  76.386 -25.700  1.00  0.00     0.051 C 
HETATM    7  C7  UNL     1      39.462  76.262 -24.767  1.00  0.00     0.036 C 
HETATM    8  C8  UNL     1      42.816  75.386 -25.826  1.00  0.00    -0.011 A 
HETATM    9  C9  UNL     1      42.547  74.111 -26.320  1.00  0.00     0.013 A 
HETATM   10  C10 UNL     1      43.465  73.438 -27.074  1.00  0.00     0.037 A 
HETATM   11  C11 UNL     1      44.666  74.050 -27.336  1.00  0.00     0.069 A 
HETATM   12  C21 UNL     1      44.926  75.308 -26.847  1.00  0.00     0.046 A 
HETATM   13  C22 UNL     1      44.000  76.018 -26.071  1.00  0.00    -0.013 A 
HETATM   14  C23 UNL     1      43.988  77.323 -25.435  1.00  0.00     0.272 C 
HETATM   15  C24 UNL     1      44.361  78.455 -26.401  1.00  0.00     0.181 C 
HETATM   16  S1  UNL     1      44.139  79.941 -25.448  1.00  0.00     0.148 S 
HETATM   17  O3  UNL     1      45.525  80.313 -24.935  1.00  0.00    -0.228 OA
HETATM   18  O4  UNL     1      43.753  81.089 -26.370  1.00  0.00    -0.228 OA
HETATM   19  C25 UNL     1      42.999  79.764 -24.130  1.00  0.00     0.170 C 
HETATM   20  C26 UNL     1      42.442  78.403 -23.949  1.00  0.00     0.290 C 
HETATM   21  N2  UNL     1      42.620  77.544 -25.085  1.00  0.00     0.113 N 
ENDROOT
BRANCH  11  22
HETATM   22  O1  UNL     1      45.638  73.417 -28.096  1.00  0.00    -0.351 OA
BRANCH  22  23
HETATM   23  C12 UNL     1      46.804  72.898 -27.519  1.00  0.00     0.182 C 
BRANCH  23  24
HETATM   24  C13 UNL     1      47.992  73.626 -28.141  1.00  0.00     0.041 C 
HETATM   25  C14 UNL     1      49.173  73.361 -27.257  1.00  0.00     0.040 C 
HETATM   26  C15 UNL     1      50.192  74.478 -27.290  1.00  0.00     0.123 C 
HETATM   27  C17 UNL     1      50.766  74.729 -28.639  1.00  0.00     0.063 C 
HETATM   28  C18 UNL     1      50.450  73.662 -29.652  1.00  0.00     0.281 C 
HETATM   29  N1  UNL     1      49.172  73.824 -30.284  1.00  0.00     0.080 N 
HETATM   30  C19 UNL     1      48.831  75.197 -30.548  1.00  0.00     0.317 C 
HETATM   31  F1  UNL     1      49.251  73.206 -31.501  1.00  0.00    -0.018 F 
HETATM   32  C20 UNL     1      48.149  73.131 -29.542  1.00  0.00     0.285 C 
BRANCH  26  33
HETATM   33  O2  UNL     1      49.604  75.590 -26.709  1.00  0.00    -0.391 OA
HETATM   34  C16 UNL     1      49.933  76.780 -27.332  1.00  0.00     0.202 C 
ENDBRANCH  26  33
ENDBRANCH  23  24
ENDBRANCH  22  23
ENDBRANCH  11  22
TORSDOF 4
ENDMDL
