MODEL 1
REMARK VINA RESULT: -8.889814620      0.000      0.000
REMARK  5 active torsions:
REMARK  status: ('A' for Active; 'I' for Inactive)
REMARK    1  A    between atoms: C2_2  and  C3_3 
REMARK    2  A    between atoms: C3_3  and  C4_4 
REMARK    3  A    between atoms: C4_4  and  O1_5 
REMARK    4  A    between atoms: O1_5  and  C5_6 
REMARK    5  A    between atoms: C5_6  and  C6_8 
ROOT
HETATM    1  C6  UNL     1      50.742  72.269 -32.408  1.00  0.00     0.057 A 
HETATM    2  C7  UNL     1      49.657  72.388 -31.529  1.00  0.00     0.032 A 
HETATM    3  C8  UNL     1      49.730  73.089 -30.345  1.00  0.00    -0.007 A 
HETATM    4  C9  UNL     1      50.944  73.701 -30.021  1.00  0.00     0.048 A 
HETATM    5  C10 UNL     1      52.017  73.594 -30.870  1.00  0.00     0.050 A 
HETATM    6  C11 UNL     1      51.915  72.886 -32.049  1.00  0.00     0.029 A 
HETATM    7 BR1  UNL     1      53.413  72.745 -33.218  1.00  0.00    -0.050 Br
HETATM    8  N1  UNL     1      51.209  74.456 -28.856  1.00  0.00    -0.321 N 
HETATM    9  C12 UNL     1      52.599  74.716 -28.609  1.00  0.00     0.159 C 
HETATM   10  C13 UNL     1      50.240  74.960 -27.941  1.00  0.00     0.240 C 
HETATM   11  O3  UNL     1      50.698  75.937 -27.260  1.00  0.00    -0.272 OA
HETATM   12  C14 UNL     1      48.871  74.616 -27.614  1.00  0.00     0.191 C 
HETATM   13  C15 UNL     1      48.061  75.868 -27.506  1.00  0.00     0.179 C 
HETATM   14  O4  UNL     1      48.636  76.954 -27.856  1.00  0.00    -0.291 OA
HETATM   15  C16 UNL     1      46.688  76.079 -27.057  1.00  0.00     0.038 A 
HETATM   16  C17 UNL     1      46.462  77.358 -26.561  1.00  0.00     0.017 A 
HETATM   17  C18 UNL     1      45.205  77.679 -26.106  1.00  0.00     0.001 A 
HETATM   18  C19 UNL     1      44.185  76.754 -26.139  1.00  0.00     0.002 A 
HETATM   19  C20 UNL     1      44.424  75.478 -26.638  1.00  0.00     0.031 A 
HETATM   20  C21 UNL     1      45.672  75.139 -27.096  1.00  0.00     0.051 A 
HETATM   21  N2  UNL     1      45.719  73.780 -27.575  1.00  0.00    -0.317 N 
HETATM   22  C22 UNL     1      44.596  72.931 -27.241  1.00  0.00     0.159 C 
HETATM   23  C23 UNL     1      46.797  73.249 -28.344  1.00  0.00     0.255 C 
HETATM   24  O5  UNL     1      46.480  72.201 -28.976  1.00  0.00    -0.267 OA
HETATM   25  C24 UNL     1      48.187  73.704 -28.524  1.00  0.00     0.032 C 
HETATM   26  C25 UNL     1      48.486  73.059 -29.636  1.00  0.00     0.027 C 
ENDROOT
BRANCH   1  27
HETATM   27  C5  UNL     1      50.591  71.516 -33.635  1.00  0.00     0.294 C 
HETATM   28  O2  UNL     1      49.842  71.975 -34.557  1.00  0.00    -0.259 OA
BRANCH  27  29
HETATM   29  O1  UNL     1      51.203  70.323 -33.893  1.00  0.00    -0.317 OA
BRANCH  29  30
HETATM   30  C4  UNL     1      51.576  69.418 -32.837  1.00  0.00     0.179 C 
BRANCH  30  31
HETATM   31  C3  UNL     1      51.582  68.031 -33.432  1.00  0.00     0.026 C 
BRANCH  31  32
HETATM   32  C2  UNL     1      52.701  67.189 -32.895  1.00  0.00    -0.002 C 
HETATM   33  C1  UNL     1      52.327  66.470 -31.632  1.00  0.00     0.005 C 
ENDBRANCH  31  32
ENDBRANCH  30  31
ENDBRANCH  29  30
ENDBRANCH  27  29
ENDBRANCH   1  27
TORSDOF 5
ENDMDL
MODEL 2
REMARK VINA RESULT: -8.266295028      5.250      8.375
REMARK  5 active torsions:
REMARK  status: ('A' for Active; 'I' for Inactive)
REMARK    1  A    between atoms: C2_2  and  C3_3 
REMARK    2  A    between atoms: C3_3  and  C4_4 
REMARK    3  A    between atoms: C4_4  and  O1_5 
REMARK    4  A    between atoms: O1_5  and  C5_6 
REMARK    5  A    between atoms: C5_6  and  C6_8 
ROOT
HETATM    1  C6  UNL     1      46.823  75.292 -27.483  1.00  0.00     0.057 A 
HETATM    2  C7  UNL     1      45.758  76.019 -26.936  1.00  0.00     0.032 A 
HETATM    3  C8  UNL     1      44.556  75.437 -26.592  1.00  0.00    -0.007 A 
HETATM    4  C9  UNL     1      44.410  74.064 -26.805  1.00  0.00     0.048 A 
HETATM    5  C10 UNL     1      45.443  73.337 -27.340  1.00  0.00     0.050 A 
HETATM    6  C11 UNL     1      46.635  73.945 -27.674  1.00  0.00     0.029 A 
HETATM    7 BR1  UNL     1      48.060  72.922 -28.418  1.00  0.00    -0.050 Br
HETATM    8  N1  UNL     1      43.258  73.297 -26.518  1.00  0.00    -0.321 N 
HETATM    9  C12 UNL     1      43.245  71.986 -27.103  1.00  0.00     0.159 C 
HETATM   10  C13 UNL     1      42.149  73.708 -25.723  1.00  0.00     0.240 C 
HETATM   11  O3  UNL     1      41.490  72.709 -25.281  1.00  0.00    -0.272 OA
HETATM   12  C14 UNL     1      41.609  74.989 -25.312  1.00  0.00     0.191 C 
HETATM   13  C15 UNL     1      41.264  74.933 -23.858  1.00  0.00     0.179 C 
HETATM   14  O4  UNL     1      41.629  73.886 -23.222  1.00  0.00    -0.291 OA
HETATM   15  C16 UNL     1      40.562  75.890 -23.009  1.00  0.00     0.038 A 
HETATM   16  C17 UNL     1      39.939  75.300 -21.914  1.00  0.00     0.017 A 
HETATM   17  C18 UNL     1      39.243  76.099 -21.038  1.00  0.00     0.001 A 
HETATM   18  C19 UNL     1      39.162  77.460 -21.237  1.00  0.00     0.002 A 
HETATM   19  C20 UNL     1      39.790  78.038 -22.335  1.00  0.00     0.031 A 
HETATM   20  C21 UNL     1      40.488  77.256 -23.220  1.00  0.00     0.051 A 
HETATM   21  N2  UNL     1      41.069  78.036 -24.286  1.00  0.00    -0.317 N 
HETATM   22  C22 UNL     1      40.604  79.399 -24.424  1.00  0.00     0.159 C 
HETATM   23  C23 UNL     1      42.056  77.535 -25.185  1.00  0.00     0.255 C 
HETATM   24  O5  UNL     1      42.698  78.454 -25.771  1.00  0.00    -0.267 OA
HETATM   25  C24 UNL     1      42.447  76.159 -25.541  1.00  0.00     0.032 C 
HETATM   26  C25 UNL     1      43.640  76.397 -26.053  1.00  0.00     0.027 C 
ENDROOT
BRANCH   1  27
HETATM   27  C5  UNL     1      48.056  75.970 -27.820  1.00  0.00     0.294 C 
HETATM   28  O2  UNL     1      48.996  76.012 -26.962  1.00  0.00    -0.259 OA
BRANCH  27  29
HETATM   29  O1  UNL     1      48.301  76.586 -29.014  1.00  0.00    -0.317 OA
BRANCH  29  30
HETATM   30  C4  UNL     1      47.485  76.342 -30.175  1.00  0.00     0.179 C 
BRANCH  30  31
HETATM   31  C3  UNL     1      46.558  77.524 -30.314  1.00  0.00     0.026 C 
BRANCH  31  32
HETATM   32  C2  UNL     1      45.117  77.111 -30.375  1.00  0.00    -0.002 C 
HETATM   33  C1  UNL     1      44.214  78.056 -29.639  1.00  0.00     0.005 C 
ENDBRANCH  31  32
ENDBRANCH  30  31
ENDBRANCH  29  30
ENDBRANCH  27  29
ENDBRANCH   1  27
TORSDOF 5
ENDMDL
MODEL 3
REMARK VINA RESULT: -8.151630764      0.989      1.178
REMARK  5 active torsions:
REMARK  status: ('A' for Active; 'I' for Inactive)
REMARK    1  A    between atoms: C2_2  and  C3_3 
REMARK    2  A    between atoms: C3_3  and  C4_4 
REMARK    3  A    between atoms: C4_4  and  O1_5 
REMARK    4  A    between atoms: O1_5  and  C5_6 
REMARK    5  A    between atoms: C5_6  and  C6_8 
ROOT
HETATM    1  C6  UNL     1      50.201  72.666 -31.729  1.00  0.00     0.057 A 
HETATM    2  C7  UNL     1      49.078  72.684 -30.893  1.00  0.00     0.032 A 
HETATM    3  C8  UNL     1      49.021  73.432 -29.736  1.00  0.00    -0.007 A 
HETATM    4  C9  UNL     1      50.138  74.199 -29.398  1.00  0.00     0.048 A 
HETATM    5  C10 UNL     1      51.247  74.193 -30.206  1.00  0.00     0.050 A 
HETATM    6  C11 UNL     1      51.276  73.436 -31.358  1.00  0.00     0.029 A 
HETATM    7 BR1  UNL     1      52.823  73.438 -32.470  1.00  0.00    -0.050 Br
HETATM    8  N1  UNL     1      50.265  75.023 -28.257  1.00  0.00    -0.321 N 
HETATM    9  C12 UNL     1      51.603  75.461 -27.975  1.00  0.00     0.159 C 
HETATM   10  C13 UNL     1      49.208  75.438 -27.395  1.00  0.00     0.240 C 
HETATM   11  O3  UNL     1      49.519  76.487 -26.741  1.00  0.00    -0.272 OA
HETATM   12  C14 UNL     1      47.880  74.940 -27.100  1.00  0.00     0.191 C 
HETATM   13  C15 UNL     1      46.920  76.086 -27.070  1.00  0.00     0.179 C 
HETATM   14  O4  UNL     1      47.372  77.221 -27.446  1.00  0.00    -0.291 OA
HETATM   15  C16 UNL     1      45.516  76.143 -26.675  1.00  0.00     0.038 A 
HETATM   16  C17 UNL     1      45.118  77.402 -26.240  1.00  0.00     0.017 A 
HETATM   17  C18 UNL     1      43.815  77.582 -25.840  1.00  0.00     0.001 A 
HETATM   18  C19 UNL     1      42.917  76.538 -25.869  1.00  0.00     0.002 A 
HETATM   19  C20 UNL     1      43.328  75.284 -26.306  1.00  0.00     0.031 A 
HETATM   20  C21 UNL     1      44.624  75.085 -26.709  1.00  0.00     0.051 A 
HETATM   21  N2  UNL     1      44.854  73.724 -27.130  1.00  0.00    -0.317 N 
HETATM   22  C22 UNL     1      43.831  72.757 -26.799  1.00  0.00     0.159 C 
HETATM   23  C23 UNL     1      46.017  73.302 -27.841  1.00  0.00     0.255 C 
HETATM   24  O5  UNL     1      45.853  72.200 -28.440  1.00  0.00    -0.267 OA
HETATM   25  C24 UNL     1      47.347  73.918 -27.993  1.00  0.00     0.032 C 
HETATM   26  C25 UNL     1      47.763  73.275 -29.068  1.00  0.00     0.027 C 
ENDROOT
BRANCH   1  27
HETATM   27  C5  UNL     1      50.189  71.857 -32.929  1.00  0.00     0.294 C 
HETATM   28  O2  UNL     1      49.557  72.272 -33.953  1.00  0.00    -0.259 OA
BRANCH  27  29
HETATM   29  O1  UNL     1      50.818  70.651 -33.057  1.00  0.00    -0.317 OA
BRANCH  29  30
HETATM   30  C4  UNL     1      51.939  70.471 -33.942  1.00  0.00     0.179 C 
BRANCH  30  31
HETATM   31  C3  UNL     1      52.778  69.357 -33.363  1.00  0.00     0.026 C 
BRANCH  31  32
HETATM   32  C2  UNL     1      51.940  68.261 -32.777  1.00  0.00    -0.002 C 
HETATM   33  C1  UNL     1      52.701  66.979 -32.608  1.00  0.00     0.005 C 
ENDBRANCH  31  32
ENDBRANCH  30  31
ENDBRANCH  29  30
ENDBRANCH  27  29
ENDBRANCH   1  27
TORSDOF 5
ENDMDL
MODEL 4
REMARK VINA RESULT: -8.135876040      1.497      2.700
REMARK  5 active torsions:
REMARK  status: ('A' for Active; 'I' for Inactive)
REMARK    1  A    between atoms: C2_2  and  C3_3 
REMARK    2  A    between atoms: C3_3  and  C4_4 
REMARK    3  A    between atoms: C4_4  and  O1_5 
REMARK    4  A    between atoms: O1_5  and  C5_6 
REMARK    5  A    between atoms: C5_6  and  C6_8 
ROOT
HETATM    1  C6  UNL     1      50.804  72.252 -32.279  1.00  0.00     0.057 A 
HETATM    2  C7  UNL     1      49.715  72.405 -31.411  1.00  0.00     0.032 A 
HETATM    3  C8  UNL     1      49.793  73.118 -30.234  1.00  0.00    -0.007 A 
HETATM    4  C9  UNL     1      51.017  73.707 -29.907  1.00  0.00     0.048 A 
HETATM    5  C10 UNL     1      52.094  73.567 -30.745  1.00  0.00     0.050 A 
HETATM    6  C11 UNL     1      51.987  72.848 -31.917  1.00  0.00     0.029 A 
HETATM    7 BR1  UNL     1      53.492  72.661 -33.071  1.00  0.00    -0.050 Br
HETATM    8  N1  UNL     1      51.288  74.470 -28.748  1.00  0.00    -0.321 N 
HETATM    9  C12 UNL     1      52.682  74.703 -28.492  1.00  0.00     0.159 C 
HETATM   10  C13 UNL     1      50.323  75.006 -27.847  1.00  0.00     0.240 C 
HETATM   11  O3  UNL     1      50.796  75.980 -27.174  1.00  0.00    -0.272 OA
HETATM   12  C14 UNL     1      48.944  74.695 -27.529  1.00  0.00     0.191 C 
HETATM   13  C15 UNL     1      48.160  75.965 -27.442  1.00  0.00     0.179 C 
HETATM   14  O4  UNL     1      48.762  77.035 -27.800  1.00  0.00    -0.291 OA
HETATM   15  C16 UNL     1      46.789  76.211 -27.008  1.00  0.00     0.038 A 
HETATM   16  C17 UNL     1      46.586  77.501 -26.529  1.00  0.00     0.017 A 
HETATM   17  C18 UNL     1      45.333  77.854 -26.088  1.00  0.00     0.001 A 
HETATM   18  C19 UNL     1      44.293  76.950 -26.120  1.00  0.00     0.002 A 
HETATM   19  C20 UNL     1      44.508  75.664 -26.601  1.00  0.00     0.031 A 
HETATM   20  C21 UNL     1      45.753  75.293 -27.045  1.00  0.00     0.051 A 
HETATM   21  N2  UNL     1      45.775  73.927 -27.508  1.00  0.00    -0.317 N 
HETATM   22  C22 UNL     1      44.631  73.107 -27.174  1.00  0.00     0.159 C 
HETATM   23  C23 UNL     1      46.848  73.364 -28.261  1.00  0.00     0.255 C 
HETATM   24  O5  UNL     1      46.513  72.316 -28.884  1.00  0.00    -0.267 OA
HETATM   25  C24 UNL     1      48.249  73.787 -28.434  1.00  0.00     0.032 C 
HETATM   26  C25 UNL     1      48.542  73.123 -29.536  1.00  0.00     0.027 C 
ENDROOT
BRANCH   1  27
HETATM   27  C5  UNL     1      50.648  71.489 -33.499  1.00  0.00     0.294 C 
HETATM   28  O2  UNL     1      51.038  70.277 -33.528  1.00  0.00    -0.259 OA
BRANCH  27  29
HETATM   29  O1  UNL     1      50.102  71.974 -34.652  1.00  0.00    -0.317 OA
BRANCH  29  30
HETATM   30  C4  UNL     1      50.782  72.953 -35.460  1.00  0.00     0.179 C 
BRANCH  30  31
HETATM   31  C3  UNL     1      50.045  74.258 -35.281  1.00  0.00     0.026 C 
BRANCH  31  32
HETATM   32  C2  UNL     1      50.846  75.259 -34.503  1.00  0.00    -0.002 C 
HETATM   33  C1  UNL     1      50.112  75.778 -33.302  1.00  0.00     0.005 C 
ENDBRANCH  31  32
ENDBRANCH  30  31
ENDBRANCH  29  30
ENDBRANCH  27  29
ENDBRANCH   1  27
TORSDOF 5
ENDMDL
MODEL 5
REMARK VINA RESULT: -8.119520595      5.074      7.891
REMARK  5 active torsions:
REMARK  status: ('A' for Active; 'I' for Inactive)
REMARK    1  A    between atoms: C2_2  and  C3_3 
REMARK    2  A    between atoms: C3_3  and  C4_4 
REMARK    3  A    between atoms: C4_4  and  O1_5 
REMARK    4  A    between atoms: O1_5  and  C5_6 
REMARK    5  A    between atoms: C5_6  and  C6_8 
ROOT
HETATM    1  C6  UNL     1      47.255  75.235 -27.437  1.00  0.00     0.057 A 
HETATM    2  C7  UNL     1      46.169  75.958 -26.928  1.00  0.00     0.032 A 
HETATM    3  C8  UNL     1      44.931  75.391 -26.712  1.00  0.00    -0.007 A 
HETATM    4  C9  UNL     1      44.769  74.038 -27.019  1.00  0.00     0.048 A 
HETATM    5  C10 UNL     1      45.824  73.314 -27.519  1.00  0.00     0.050 A 
HETATM    6  C11 UNL     1      47.051  73.908 -27.724  1.00  0.00     0.029 A 
HETATM    7 BR1  UNL     1      48.505  72.892 -28.420  1.00  0.00    -0.050 Br
HETATM    8  N1  UNL     1      43.581  73.288 -26.867  1.00  0.00    -0.321 N 
HETATM    9  C12 UNL     1      43.583  72.014 -27.531  1.00  0.00     0.159 C 
HETATM   10  C13 UNL     1      42.424  73.681 -26.134  1.00  0.00     0.240 C 
HETATM   11  O3  UNL     1      41.710  72.677 -25.805  1.00  0.00    -0.272 OA
HETATM   12  C14 UNL     1      41.885  74.950 -25.687  1.00  0.00     0.191 C 
HETATM   13  C15 UNL     1      41.428  74.818 -24.270  1.00  0.00     0.179 C 
HETATM   14  O4  UNL     1      41.718  73.726 -23.674  1.00  0.00    -0.291 OA
HETATM   15  C16 UNL     1      40.685  75.742 -23.418  1.00  0.00     0.038 A 
HETATM   16  C17 UNL     1      39.966  75.106 -22.412  1.00  0.00     0.017 A 
HETATM   17  C18 UNL     1      39.224  75.871 -21.544  1.00  0.00     0.001 A 
HETATM   18  C19 UNL     1      39.191  77.243 -21.664  1.00  0.00     0.002 A 
HETATM   19  C20 UNL     1      39.914  77.867 -22.674  1.00  0.00     0.031 A 
HETATM   20  C21 UNL     1      40.660  77.120 -23.550  1.00  0.00     0.051 A 
HETATM   21  N2  UNL     1      41.339  77.945 -24.519  1.00  0.00    -0.317 N 
HETATM   22  C22 UNL     1      40.918  79.326 -24.609  1.00  0.00     0.159 C 
HETATM   23  C23 UNL     1      42.381  77.471 -25.371  1.00  0.00     0.255 C 
HETATM   24  O5  UNL     1      43.087  78.405 -25.849  1.00  0.00    -0.267 OA
HETATM   25  C24 UNL     1      42.765  76.109 -25.780  1.00  0.00     0.032 C 
HETATM   26  C25 UNL     1      43.999  76.343 -26.185  1.00  0.00     0.027 C 
ENDROOT
BRANCH   1  27
HETATM   27  C5  UNL     1      48.527  75.897 -27.638  1.00  0.00     0.294 C 
HETATM   28  O2  UNL     1      48.808  76.367 -28.787  1.00  0.00    -0.259 OA
BRANCH  27  29
HETATM   29  O1  UNL     1      49.475  76.064 -26.670  1.00  0.00    -0.317 OA
BRANCH  29  30
HETATM   30  C4  UNL     1      50.785  75.477 -26.782  1.00  0.00     0.179 C 
BRANCH  30  31
HETATM   31  C3  UNL     1      50.839  74.334 -25.798  1.00  0.00     0.026 C 
BRANCH  31  32
HETATM   32  C2  UNL     1      51.826  74.580 -24.696  1.00  0.00    -0.002 C 
HETATM   33  C1  UNL     1      51.163  74.859 -23.380  1.00  0.00     0.005 C 
ENDBRANCH  31  32
ENDBRANCH  30  31
ENDBRANCH  29  30
ENDBRANCH  27  29
ENDBRANCH   1  27
TORSDOF 5
ENDMDL
