MODEL 1
REMARK VINA RESULT: -3.967863822      0.000      0.000
REMARK  1 active torsions:
REMARK  status: ('A' for Active; 'I' for Inactive)
REMARK    1  A    between atoms: C3_3  and  N1_4 
ROOT
HETATM    1  C1  UNL     1      52.953  66.496 -29.036  1.00  0.00     0.098 C 
HETATM    2  C2  UNL     1      52.813  67.377 -29.872  1.00  0.00    -0.160 C 
HETATM    3  C3  UNL     1      52.636  68.444 -30.857  1.00  0.00     0.318 C 
ENDROOT
BRANCH   3   4
HETATM    4  N1  UNL     1      52.905  69.754 -30.308  1.00  0.00    -0.037 N 
HETATM    5  C4  UNL     1      53.061  70.723 -31.384  1.00  0.00     0.275 C 
HETATM    6  C5  UNL     1      54.110  69.762 -29.526  1.00  0.00     0.267 C 
HETATM    7  C6  UNL     1      53.959  71.052 -28.712  1.00  0.00     0.262 C 
HETATM    8  N2  UNL     1      52.560  71.030 -28.393  1.00  0.00    -0.049 N 
HETATM    9  C7  UNL     1      51.909  70.183 -29.354  1.00  0.00     0.468 C 
ATOM     10  H22 UNL     1      52.376  70.752 -27.428  1.00  0.00     0.279 HD
ATOM     11  H21 UNL     1      52.150  71.963 -28.343  1.00  0.00     0.279 HD
ENDBRANCH   3   4
TORSDOF 1
ENDMDL
MODEL 2
REMARK VINA RESULT: -3.943364881      1.324      2.194
REMARK  1 active torsions:
REMARK  status: ('A' for Active; 'I' for Inactive)
REMARK    1  A    between atoms: C3_3  and  N1_4 
ROOT
HETATM    1  C1  UNL     1      52.988  66.396 -29.624  1.00  0.00     0.098 C 
HETATM    2  C2  UNL     1      53.014  67.555 -29.235  1.00  0.00    -0.160 C 
HETATM    3  C3  UNL     1      53.052  68.948 -28.790  1.00  0.00     0.318 C 
ENDROOT
BRANCH   3   4
HETATM    4  N1  UNL     1      52.567  69.864 -29.799  1.00  0.00    -0.037 N 
HETATM    5  C4  UNL     1      53.669  70.664 -30.317  1.00  0.00     0.275 C 
HETATM    6  C5  UNL     1      51.580  70.761 -29.267  1.00  0.00     0.267 C 
HETATM    7  C6  UNL     1      50.911  71.298 -30.537  1.00  0.00     0.262 C 
HETATM    8  N2  UNL     1      50.854  70.119 -31.353  1.00  0.00    -0.049 N 
HETATM    9  C7  UNL     1      51.849  69.204 -30.864  1.00  0.00     0.468 C 
ATOM     10  H22 UNL     1      49.921  69.708 -31.393  1.00  0.00     0.279 HD
ATOM     11  H21 UNL     1      50.954  70.321 -32.348  1.00  0.00     0.279 HD
ENDBRANCH   3   4
TORSDOF 1
ENDMDL
MODEL 3
REMARK VINA RESULT: -3.836573660      1.320      2.357
REMARK  1 active torsions:
REMARK  status: ('A' for Active; 'I' for Inactive)
REMARK    1  A    between atoms: C3_3  and  N1_4 
ROOT
HETATM    1  C1  UNL     1      53.333  67.409 -28.711  1.00  0.00     0.098 C 
HETATM    2  C2  UNL     1      53.643  68.561 -28.978  1.00  0.00    -0.160 C 
HETATM    3  C3  UNL     1      54.004  69.937 -29.317  1.00  0.00     0.318 C 
ENDROOT
BRANCH   3   4
HETATM    4  N1  UNL     1      52.959  70.619 -30.049  1.00  0.00    -0.037 N 
HETATM    5  C4  UNL     1      53.371  71.983 -30.353  1.00  0.00     0.275 C 
HETATM    6  C5  UNL     1      51.740  70.683 -29.292  1.00  0.00     0.267 C 
HETATM    7  C6  UNL     1      50.704  71.013 -30.372  1.00  0.00     0.262 C 
HETATM    8  N2  UNL     1      51.160  70.203 -31.466  1.00  0.00    -0.049 N 
HETATM    9  C7  UNL     1      52.551  69.914 -31.241  1.00  0.00     0.468 C 
ATOM     10  H22 UNL     1      50.597  69.364 -31.601  1.00  0.00     0.279 HD
ATOM     11  H21 UNL     1      50.985  70.630 -32.375  1.00  0.00     0.279 HD
ENDBRANCH   3   4
TORSDOF 1
ENDMDL
MODEL 4
REMARK VINA RESULT: -3.793611807      0.953      1.247
REMARK  1 active torsions:
REMARK  status: ('A' for Active; 'I' for Inactive)
REMARK    1  A    between atoms: C3_3  and  N1_4 
ROOT
HETATM    1  C1  UNL     1      52.598  66.053 -29.741  1.00  0.00     0.098 C 
HETATM    2  C2  UNL     1      52.619  67.171 -30.235  1.00  0.00    -0.160 C 
HETATM    3  C3  UNL     1      52.632  68.517 -30.808  1.00  0.00     0.318 C 
ENDROOT
BRANCH   3   4
HETATM    4  N1  UNL     1      52.744  69.547 -29.800  1.00  0.00    -0.037 N 
HETATM    5  C4  UNL     1      51.512  70.323 -29.741  1.00  0.00     0.275 C 
HETATM    6  C5  UNL     1      53.824  70.450 -30.085  1.00  0.00     0.267 C 
HETATM    7  C6  UNL     1      54.037  71.138 -28.732  1.00  0.00     0.262 C 
HETATM    8  N2  UNL     1      53.863  70.043 -27.821  1.00  0.00    -0.049 N 
HETATM    9  C7  UNL     1      53.102  69.030 -28.500  1.00  0.00     0.468 C 
ATOM     10  H22 UNL     1      54.746  69.693 -27.447  1.00  0.00     0.279 HD
ATOM     11  H21 UNL     1      53.446  70.327 -26.935  1.00  0.00     0.279 HD
ENDBRANCH   3   4
TORSDOF 1
ENDMDL
MODEL 5
REMARK VINA RESULT: -3.745258106      1.248      1.903
REMARK  1 active torsions:
REMARK  status: ('A' for Active; 'I' for Inactive)
REMARK    1  A    between atoms: C3_3  and  N1_4 
ROOT
HETATM    1  C1  UNL     1      52.167  67.555 -30.894  1.00  0.00     0.098 C 
HETATM    2  C2  UNL     1      52.567  68.711 -30.898  1.00  0.00    -0.160 C 
HETATM    3  C3  UNL     1      53.028  70.099 -30.887  1.00  0.00     0.318 C 
ENDROOT
BRANCH   3   4
HETATM    4  N1  UNL     1      52.886  70.720 -29.589  1.00  0.00    -0.037 N 
HETATM    5  C4  UNL     1      51.477  70.948 -29.297  1.00  0.00     0.275 C 
HETATM    6  C5  UNL     1      53.561  71.986 -29.532  1.00  0.00     0.267 C 
HETATM    7  C6  UNL     1      53.664  72.231 -28.023  1.00  0.00     0.262 C 
HETATM    8  N2  UNL     1      53.965  70.915 -27.537  1.00  0.00    -0.049 N 
HETATM    9  C7  UNL     1      53.528  69.974 -28.532  1.00  0.00     0.468 C 
ATOM     10  H22 UNL     1      54.947  70.799 -27.285  1.00  0.00     0.279 HD
ATOM     11  H21 UNL     1      53.569  70.732 -26.615  1.00  0.00     0.279 HD
ENDBRANCH   3   4
TORSDOF 1
ENDMDL
