MODEL 1
REMARK VINA RESULT: -4.814663560      0.000      0.000
REMARK  3 active torsions:
REMARK  status: ('A' for Active; 'I' for Inactive)
REMARK    1  A    between atoms: N1_1  and  N2_4 
REMARK    2  A    between atoms: C1_6  and  N3_7 
REMARK    3  A    between atoms: N3_7  and  C2_9 
ROOT
HETATM    1  N2  UNL     1      51.531  64.717 -28.750  1.00  0.00    -0.303 N 
ATOM      2  H2  UNL     1      51.336  64.416 -27.795  1.00  0.00     0.187 HD
HETATM    3  C1  UNL     1      52.686  65.184 -28.632  1.00  0.00     0.192 C 
ENDROOT
BRANCH   3   4
HETATM    4  N3  UNL     1      52.935  66.437 -27.956  1.00  0.00    -0.381 N 
ATOM      5  H3  UNL     1      52.758  66.637 -26.972  1.00  0.00     0.160 HD
BRANCH   4   6
HETATM    6  C2  UNL     1      53.469  67.337 -28.908  1.00  0.00     0.082 C 
HETATM    7  C3  UNL     1      53.426  68.820 -28.528  1.00  0.00     0.025 C 
HETATM    8  C4  UNL     1      53.353  69.042 -30.046  1.00  0.00     0.004 C 
HETATM    9  C5  UNL     1      52.532  67.741 -30.049  1.00  0.00     0.025 C 
ENDBRANCH   4   6
ENDBRANCH   3   4
BRANCH   1  10
HETATM   10  N1  UNL     1      50.481  64.399 -29.327  1.00  0.00    -0.344 N 
ATOM     11  H12 UNL     1      50.804  64.483 -30.290  1.00  0.00     0.176 HD
ATOM     12  H11 UNL     1      49.506  64.110 -29.413  1.00  0.00     0.176 HD
ENDBRANCH   1  10
TORSDOF 3
ENDMDL
MODEL 2
REMARK VINA RESULT: -4.654289730      1.560      2.562
REMARK  3 active torsions:
REMARK  status: ('A' for Active; 'I' for Inactive)
REMARK    1  A    between atoms: N1_1  and  N2_4 
REMARK    2  A    between atoms: C1_6  and  N3_7 
REMARK    3  A    between atoms: N3_7  and  C2_9 
ROOT
HETATM    1  N2  UNL     1      53.651  65.989 -27.474  1.00  0.00    -0.303 N 
ATOM      2  H2  UNL     1      54.524  65.528 -27.730  1.00  0.00     0.187 HD
HETATM    3  C1  UNL     1      52.875  65.562 -28.358  1.00  0.00     0.192 C 
ENDROOT
BRANCH   3   4
HETATM    4  N3  UNL     1      52.963  66.011 -29.730  1.00  0.00    -0.381 N 
ATOM      5  H3  UNL     1      53.385  65.501 -30.505  1.00  0.00     0.160 HD
BRANCH   4   6
HETATM    6  C2  UNL     1      52.356  67.287 -29.800  1.00  0.00     0.082 C 
HETATM    7  C3  UNL     1      51.883  67.730 -31.187  1.00  0.00     0.025 C 
HETATM    8  C4  UNL     1      52.148  69.144 -30.650  1.00  0.00     0.004 C 
HETATM    9  C5  UNL     1      53.311  68.480 -29.894  1.00  0.00     0.025 C 
ENDBRANCH   4   6
ENDBRANCH   3   4
BRANCH   1  10
HETATM   10  N1  UNL     1      53.999  66.635 -26.475  1.00  0.00    -0.344 N 
ATOM     11  H12 UNL     1      54.951  66.859 -26.762  1.00  0.00     0.176 HD
ATOM     12  H11 UNL     1      53.905  67.069 -25.556  1.00  0.00     0.176 HD
ENDBRANCH   1  10
TORSDOF 3
ENDMDL
MODEL 3
REMARK VINA RESULT: -4.628877095      2.968      3.997
REMARK  3 active torsions:
REMARK  status: ('A' for Active; 'I' for Inactive)
REMARK    1  A    between atoms: N1_1  and  N2_4 
REMARK    2  A    between atoms: C1_6  and  N3_7 
REMARK    3  A    between atoms: N3_7  and  C2_9 
ROOT
HETATM    1  N2  UNL     1      51.586  69.475 -31.234  1.00  0.00    -0.303 N 
ATOM      2  H2  UNL     1      52.345  69.766 -31.850  1.00  0.00     0.187 HD
HETATM    3  C1  UNL     1      52.140  68.573 -30.566  1.00  0.00     0.192 C 
ENDROOT
BRANCH   3   4
HETATM    4  N3  UNL     1      52.458  67.286 -31.141  1.00  0.00    -0.381 N 
ATOM      5  H3  UNL     1      52.313  67.006 -32.111  1.00  0.00     0.160 HD
BRANCH   4   6
HETATM    6  C2  UNL     1      53.006  66.483 -30.113  1.00  0.00     0.082 C 
HETATM    7  C3  UNL     1      52.039  65.512 -29.432  1.00  0.00     0.025 C 
HETATM    8  C4  UNL     1      52.962  65.695 -28.218  1.00  0.00     0.004 C 
HETATM    9  C5  UNL     1      53.110  67.137 -28.734  1.00  0.00     0.025 C 
ENDBRANCH   4   6
ENDBRANCH   3   4
BRANCH   1  10
HETATM   10  N1  UNL     1      50.671  70.227 -31.600  1.00  0.00    -0.344 N 
ATOM     11  H12 UNL     1      49.978  69.980 -30.894  1.00  0.00     0.176 HD
ATOM     12  H11 UNL     1      50.206  70.932 -32.172  1.00  0.00     0.176 HD
ENDBRANCH   1  10
TORSDOF 3
ENDMDL
MODEL 4
REMARK VINA RESULT: -4.617532495      1.011      1.483
REMARK  3 active torsions:
REMARK  status: ('A' for Active; 'I' for Inactive)
REMARK    1  A    between atoms: N1_1  and  N2_4 
REMARK    2  A    between atoms: C1_6  and  N3_7 
REMARK    3  A    between atoms: N3_7  and  C2_9 
ROOT
HETATM    1  N2  UNL     1      51.787  65.173 -29.288  1.00  0.00    -0.303 N 
ATOM      2  H2  UNL     1      52.343  64.615 -28.639  1.00  0.00     0.187 HD
HETATM    3  C1  UNL     1      52.623  66.028 -29.659  1.00  0.00     0.192 C 
ENDROOT
BRANCH   3   4
HETATM    4  N3  UNL     1      53.065  67.090 -28.783  1.00  0.00    -0.381 N 
ATOM      5  H3  UNL     1      53.525  66.975 -27.880  1.00  0.00     0.160 HD
BRANCH   4   6
HETATM    6  C2  UNL     1      52.743  68.319 -29.407  1.00  0.00     0.082 C 
HETATM    7  C3  UNL     1      52.731  68.311 -30.938  1.00  0.00     0.025 C 
HETATM    8  C4  UNL     1      53.106  69.793 -30.788  1.00  0.00     0.004 C 
HETATM    9  C5  UNL     1      53.893  69.318 -29.555  1.00  0.00     0.025 C 
ENDBRANCH   4   6
ENDBRANCH   3   4
BRANCH   1  10
HETATM   10  N1  UNL     1      50.692  64.596 -29.232  1.00  0.00    -0.344 N 
ATOM     11  H12 UNL     1      50.251  65.027 -30.044  1.00  0.00     0.176 HD
ATOM     12  H11 UNL     1      49.982  63.960 -28.869  1.00  0.00     0.176 HD
ENDBRANCH   1  10
TORSDOF 3
ENDMDL
MODEL 5
REMARK VINA RESULT: -4.569361869      2.967      3.838
REMARK  3 active torsions:
REMARK  status: ('A' for Active; 'I' for Inactive)
REMARK    1  A    between atoms: N1_1  and  N2_4 
REMARK    2  A    between atoms: C1_6  and  N3_7 
REMARK    3  A    between atoms: N3_7  and  C2_9 
ROOT
HETATM    1  N2  UNL     1      51.534  69.439 -31.267  1.00  0.00    -0.303 N 
ATOM      2  H2  UNL     1      50.954  68.735 -30.811  1.00  0.00     0.187 HD
HETATM    3  C1  UNL     1      52.662  68.899 -31.220  1.00  0.00     0.192 C 
ENDROOT
BRANCH   3   4
HETATM    4  N3  UNL     1      53.398  68.781 -29.981  1.00  0.00    -0.381 N 
ATOM      5  H3  UNL     1      54.192  69.354 -29.695  1.00  0.00     0.160 HD
BRANCH   4   6
HETATM    6  C2  UNL     1      52.818  67.726 -29.239  1.00  0.00     0.082 C 
HETATM    7  C3  UNL     1      53.702  67.103 -28.155  1.00  0.00     0.025 C 
HETATM    8  C4  UNL     1      52.877  65.838 -28.434  1.00  0.00     0.004 C 
HETATM    9  C5  UNL     1      52.871  66.340 -29.888  1.00  0.00     0.025 C 
ENDBRANCH   4   6
ENDBRANCH   3   4
BRANCH   1  10
HETATM   10  N1  UNL     1      50.696  70.313 -31.533  1.00  0.00    -0.344 N 
ATOM     11  H12 UNL     1      50.617  70.149 -32.536  1.00  0.00     0.176 HD
ATOM     12  H11 UNL     1      50.051  71.083 -31.353  1.00  0.00     0.176 HD
ENDBRANCH   1  10
TORSDOF 3
ENDMDL
