MODEL 1
REMARK VINA RESULT: -4.443255241      0.000      0.000
REMARK  2 active torsions:
REMARK  status: ('A' for Active; 'I' for Inactive)
REMARK    1  A    between atoms: C2_2  and  N1_3 
REMARK    2  A    between atoms: C4_5  and  O1_6 
ROOT
HETATM    1  N1  UNL     1      53.058  66.445 -29.137  1.00  0.00    -0.054 N 
HETATM    2  C3  UNL     1      52.847  65.246 -28.417  1.00  0.00     0.272 C 
HETATM    3  C4  UNL     1      51.773  64.750 -29.346  1.00  0.00     0.177 C 
HETATM    4  C5  UNL     1      51.817  66.202 -29.843  1.00  0.00     0.246 A 
HETATM    5  C6  UNL     1      53.036  66.534 -30.555  1.00  0.00     0.274 A 
ENDROOT
BRANCH   1   6
HETATM    6  C2  UNL     1      53.234  67.646 -28.374  1.00  0.00     0.234 C 
HETATM    7  C1  UNL     1      53.702  68.733 -29.314  1.00  0.00     0.035 C 
ENDBRANCH   1   6
BRANCH   3   8
HETATM    8  O1  UNL     1      50.598  64.396 -28.719  1.00  0.00    -0.392 OA
ATOM      9  H1  UNL     1      50.708  64.099 -27.823  1.00  0.00     0.210 HD
ENDBRANCH   3   8
TORSDOF 2
ENDMDL
MODEL 2
REMARK VINA RESULT: -4.360728635      1.775      2.924
REMARK  2 active torsions:
REMARK  status: ('A' for Active; 'I' for Inactive)
REMARK    1  A    between atoms: C2_2  and  N1_3 
REMARK    2  A    between atoms: C4_5  and  O1_6 
ROOT
HETATM    1  N1  UNL     1      53.342  66.968 -29.137  1.00  0.00    -0.054 N 
HETATM    2  C3  UNL     1      52.981  66.477 -30.414  1.00  0.00     0.272 C 
HETATM    3  C4  UNL     1      52.505  67.815 -30.913  1.00  0.00     0.177 C 
HETATM    4  C5  UNL     1      52.588  68.172 -29.422  1.00  0.00     0.246 A 
HETATM    5  C6  UNL     1      53.946  68.234 -28.916  1.00  0.00     0.274 A 
ENDROOT
BRANCH   1   6
HETATM    6  C2  UNL     1      53.009  66.155 -28.004  1.00  0.00     0.234 C 
HETATM    7  C1  UNL     1      52.434  64.853 -28.515  1.00  0.00     0.035 C 
ENDBRANCH   1   6
BRANCH   3   8
HETATM    8  O1  UNL     1      51.228  67.806 -31.429  1.00  0.00    -0.392 OA
ATOM      9  H1  UNL     1      51.055  68.499 -32.056  1.00  0.00     0.210 HD
ENDBRANCH   3   8
TORSDOF 2
ENDMDL
MODEL 3
REMARK VINA RESULT: -4.150818013      2.584      3.807
REMARK  2 active torsions:
REMARK  status: ('A' for Active; 'I' for Inactive)
REMARK    1  A    between atoms: C2_2  and  N1_3 
REMARK    2  A    between atoms: C4_5  and  O1_6 
ROOT
HETATM    1  N1  UNL     1      53.302  68.354 -29.739  1.00  0.00    -0.054 N 
HETATM    2  C3  UNL     1      52.722  68.254 -31.025  1.00  0.00     0.272 C 
HETATM    3  C4  UNL     1      52.241  69.680 -31.036  1.00  0.00     0.177 C 
HETATM    4  C5  UNL     1      52.573  69.590 -29.541  1.00  0.00     0.246 A 
HETATM    5  C6  UNL     1      53.995  69.501 -29.267  1.00  0.00     0.274 A 
ENDROOT
BRANCH   1   6
HETATM    6  C2  UNL     1      53.111  67.248 -28.845  1.00  0.00     0.234 C 
HETATM    7  C1  UNL     1      52.569  66.087 -29.648  1.00  0.00     0.035 C 
ENDBRANCH   1   6
BRANCH   3   8
HETATM    8  O1  UNL     1      50.899  69.824 -31.317  1.00  0.00    -0.392 OA
ATOM      9  H1  UNL     1      50.715  70.354 -32.084  1.00  0.00     0.210 HD
ENDBRANCH   3   8
TORSDOF 2
ENDMDL
MODEL 4
REMARK VINA RESULT: -4.064662305      2.352      3.105
REMARK  2 active torsions:
REMARK  status: ('A' for Active; 'I' for Inactive)
REMARK    1  A    between atoms: C2_2  and  N1_3 
REMARK    2  A    between atoms: C4_5  and  O1_6 
ROOT
HETATM    1  N1  UNL     1      52.683  67.279 -29.277  1.00  0.00    -0.054 N 
HETATM    2  C3  UNL     1      52.340  68.486 -29.931  1.00  0.00     0.272 C 
HETATM    3  C4  UNL     1      52.236  67.847 -31.289  1.00  0.00     0.177 C 
HETATM    4  C5  UNL     1      52.947  66.689 -30.575  1.00  0.00     0.246 A 
HETATM    5  C6  UNL     1      52.116  66.016 -29.595  1.00  0.00     0.274 A 
ENDROOT
BRANCH   1   6
HETATM    6  C2  UNL     1      53.716  67.341 -28.285  1.00  0.00     0.234 C 
HETATM    7  C1  UNL     1      53.427  66.285 -27.243  1.00  0.00     0.035 C 
ENDBRANCH   1   6
BRANCH   3   8
HETATM    8  O1  UNL     1      52.988  68.464 -32.265  1.00  0.00    -0.392 OA
ATOM      9  H1  UNL     1      53.089  69.402 -32.147  1.00  0.00     0.210 HD
ENDBRANCH   3   8
TORSDOF 2
ENDMDL
MODEL 5
REMARK VINA RESULT: -3.968538701      1.491      1.854
REMARK  2 active torsions:
REMARK  status: ('A' for Active; 'I' for Inactive)
REMARK    1  A    between atoms: C2_2  and  N1_3 
REMARK    2  A    between atoms: C4_5  and  O1_6 
ROOT
HETATM    1  N1  UNL     1      52.915  68.053 -29.932  1.00  0.00    -0.054 N 
HETATM    2  C3  UNL     1      53.569  67.372 -28.879  1.00  0.00     0.272 C 
HETATM    3  C4  UNL     1      52.909  66.053 -29.177  1.00  0.00     0.177 C 
HETATM    4  C5  UNL     1      51.999  66.935 -30.042  1.00  0.00     0.246 A 
HETATM    5  C6  UNL     1      52.664  67.485 -31.209  1.00  0.00     0.274 A 
ENDROOT
BRANCH   1   6
HETATM    6  C2  UNL     1      52.420  69.370 -29.654  1.00  0.00     0.234 C 
HETATM    7  C1  UNL     1      53.210  70.352 -30.489  1.00  0.00     0.035 C 
ENDBRANCH   1   6
BRANCH   3   8
HETATM    8  O1  UNL     1      52.283  65.474 -28.094  1.00  0.00    -0.392 OA
ATOM      9  H1  UNL     1      51.917  66.096 -27.476  1.00  0.00     0.210 HD
ENDBRANCH   3   8
TORSDOF 2
ENDMDL
