MODEL 1
REMARK VINA RESULT: -7.089610719      0.000      0.000
REMARK  4 active torsions:
REMARK  status: ('A' for Active; 'I' for Inactive)
REMARK    1  A    between atoms: C10_18  and  N6_19 
REMARK    2  A    between atoms: N6_19  and  C11_20 
REMARK    3  A    between atoms: C11_20  and  C12_21 
REMARK    4  A    between atoms: C12_21  and  N7_22 
ROOT
HETATM    1  C1  UNL     1      44.913  18.981  52.241  1.00  0.00     0.091 C 
HETATM    2  C2  UNL     1      44.444  20.410  52.134  1.00  0.00     0.097 C 
HETATM    3  N1  UNL     1      43.526  20.558  51.280  1.00  0.00    -0.284 N 
HETATM    4  C3  UNL     1      43.076  19.422  50.560  1.00  0.00     0.179 C 
HETATM    5  N2  UNL     1      42.858  21.769  50.959  1.00  0.00    -0.295 N 
ATOM      6  H2  UNL     1      42.437  21.828  50.031  1.00  0.00     0.187 HD
HETATM    7  C4  UNL     1      42.714  22.915  51.803  1.00  0.00     0.081 A 
HETATM    8  C5  UNL     1      41.733  23.879  51.696  1.00  0.00     0.121 A 
HETATM    9  N3  UNL     1      41.981  24.775  52.685  1.00  0.00    -0.349 N 
ATOM     10  H3  UNL     1      41.425  25.610  52.869  1.00  0.00     0.167 HD
HETATM   11  C6  UNL     1      43.073  24.398  53.393  1.00  0.00     0.123 A 
HETATM   12  C7  UNL     1      43.555  23.223  52.855  1.00  0.00     0.082 A 
HETATM   13  C8  UNL     1      44.755  22.474  53.331  1.00  0.00     0.127 C 
HETATM   14  N4  UNL     1      45.165  21.281  53.043  1.00  0.00    -0.325 N 
HETATM   15  C9  UNL     1      46.389  20.798  53.595  1.00  0.00     0.159 C 
HETATM   16  N5  UNL     1      45.717  22.909  54.271  1.00  0.00    -0.315 N 
ATOM     17  H5  UNL     1      46.384  22.200  54.579  1.00  0.00     0.170 HD
HETATM   18  C10 UNL     1      45.887  24.231  54.862  1.00  0.00     0.196 C 
HETATM   19  C18 UNL     1      44.711  25.110  55.094  1.00  0.00     0.067 C 
HETATM   20  C19 UNL     1      44.922  26.066  56.199  1.00  0.00     0.074 C 
HETATM   21  N8  UNL     1      43.562  25.172  54.488  1.00  0.00    -0.336 N 
HETATM   22  C20 UNL     1      42.611  26.150  54.967  1.00  0.00     0.158 C 
ENDROOT
BRANCH  18  23
HETATM   23  N6  UNL     1      46.964  24.635  55.173  1.00  0.00    -0.427 NA
BRANCH  23  24
HETATM   24  C11 UNL     1      48.171  25.089  55.522  1.00  0.00     0.248 C 
BRANCH  24  25
HETATM   25  C12 UNL     1      49.236  24.303  54.725  1.00  0.00     0.270 C 
BRANCH  25  26
HETATM   26  N7  UNL     1      50.566  24.639  55.174  1.00  0.00    -0.068 N 
HETATM   27  C13 UNL     1      50.404  25.444  56.373  1.00  0.00     0.272 C 
HETATM   28  C14 UNL     1      51.308  25.397  54.225  1.00  0.00     0.237 C 
HETATM   29  C15 UNL     1      52.411  24.545  53.678  1.00  0.00     0.029 C 
HETATM   30  C16 UNL     1      52.467  23.342  54.575  1.00  0.00     0.029 C 
HETATM   31  C17 UNL     1      51.340  23.479  55.539  1.00  0.00     0.237 C 
ENDBRANCH  25  26
ENDBRANCH  24  25
ENDBRANCH  23  24
ENDBRANCH  18  23
TORSDOF 4
ENDMDL
MODEL 2
REMARK VINA RESULT: -6.740397728      0.933      1.283
REMARK  4 active torsions:
REMARK  status: ('A' for Active; 'I' for Inactive)
REMARK    1  A    between atoms: C10_18  and  N6_19 
REMARK    2  A    between atoms: N6_19  and  C11_20 
REMARK    3  A    between atoms: C11_20  and  C12_21 
REMARK    4  A    between atoms: C12_21  and  N7_22 
ROOT
HETATM    1  C1  UNL     1      44.766  19.216  52.513  1.00  0.00     0.091 C 
HETATM    2  C2  UNL     1      44.269  20.611  52.230  1.00  0.00     0.097 C 
HETATM    3  N1  UNL     1      43.511  20.664  51.222  1.00  0.00    -0.284 N 
HETATM    4  C3  UNL     1      43.238  19.467  50.512  1.00  0.00     0.179 C 
HETATM    5  N2  UNL     1      42.865  21.820  50.711  1.00  0.00    -0.295 N 
ATOM      6  H2  UNL     1      42.613  21.804  49.722  1.00  0.00     0.187 HD
HETATM    7  C4  UNL     1      42.531  23.005  51.439  1.00  0.00     0.081 A 
HETATM    8  C5  UNL     1      41.549  23.912  51.100  1.00  0.00     0.121 A 
HETATM    9  N3  UNL     1      41.584  24.876  52.055  1.00  0.00    -0.349 N 
ATOM     10  H3  UNL     1      40.975  25.692  52.084  1.00  0.00     0.167 HD
HETATM   11  C6  UNL     1      42.549  24.594  52.965  1.00  0.00     0.123 A 
HETATM   12  C7  UNL     1      43.162  23.415  52.599  1.00  0.00     0.082 A 
HETATM   13  C8  UNL     1      44.286  22.755  53.324  1.00  0.00     0.127 C 
HETATM   14  N4  UNL     1      44.785  21.568  53.192  1.00  0.00    -0.325 N 
HETATM   15  C9  UNL     1      45.910  21.179  53.978  1.00  0.00     0.159 C 
HETATM   16  N5  UNL     1      45.051  23.291  54.386  1.00  0.00    -0.315 N 
ATOM     17  H5  UNL     1      45.678  22.635  54.851  1.00  0.00     0.170 HD
HETATM   18  C10 UNL     1      45.064  24.651  54.908  1.00  0.00     0.196 C 
HETATM   19  C18 UNL     1      43.833  25.485  54.873  1.00  0.00     0.067 C 
HETATM   20  C19 UNL     1      43.810  26.513  55.933  1.00  0.00     0.074 C 
HETATM   21  N8  UNL     1      42.807  25.455  54.075  1.00  0.00    -0.336 N 
HETATM   22  C20 UNL     1      41.751  26.412  54.315  1.00  0.00     0.158 C 
ENDROOT
BRANCH  18  23
HETATM   23  N6  UNL     1      46.053  25.125  55.374  1.00  0.00    -0.427 NA
BRANCH  23  24
HETATM   24  C11 UNL     1      47.161  25.657  55.896  1.00  0.00     0.248 C 
BRANCH  24  25
HETATM   25  C12 UNL     1      48.383  24.994  55.224  1.00  0.00     0.270 C 
BRANCH  25  26
HETATM   26  N7  UNL     1      49.574  25.785  55.425  1.00  0.00    -0.068 N 
HETATM   27  C13 UNL     1      49.246  27.136  55.001  1.00  0.00     0.272 C 
HETATM   28  C14 UNL     1      50.687  25.335  54.659  1.00  0.00     0.237 C 
HETATM   29  C15 UNL     1      51.707  24.748  55.584  1.00  0.00     0.029 C 
HETATM   30  C16 UNL     1      51.271  25.149  56.964  1.00  0.00     0.029 C 
HETATM   31  C17 UNL     1      49.969  25.856  56.809  1.00  0.00     0.237 C 
ENDBRANCH  25  26
ENDBRANCH  24  25
ENDBRANCH  23  24
ENDBRANCH  18  23
TORSDOF 4
ENDMDL
MODEL 3
REMARK VINA RESULT: -6.708963984      1.345      1.811
REMARK  4 active torsions:
REMARK  status: ('A' for Active; 'I' for Inactive)
REMARK    1  A    between atoms: C10_18  and  N6_19 
REMARK    2  A    between atoms: N6_19  and  C11_20 
REMARK    3  A    between atoms: C11_20  and  C12_21 
REMARK    4  A    between atoms: C12_21  and  N7_22 
ROOT
HETATM    1  C1  UNL     1      44.857  19.360  52.794  1.00  0.00     0.091 C 
HETATM    2  C2  UNL     1      44.326  20.731  52.462  1.00  0.00     0.097 C 
HETATM    3  N1  UNL     1      43.612  20.738  51.421  1.00  0.00    -0.284 N 
HETATM    4  C3  UNL     1      43.411  19.518  50.725  1.00  0.00     0.179 C 
HETATM    5  N2  UNL     1      42.950  21.861  50.858  1.00  0.00    -0.295 N 
ATOM      6  H2  UNL     1      42.742  21.817  49.860  1.00  0.00     0.187 HD
HETATM    7  C4  UNL     1      42.545  23.048  51.546  1.00  0.00     0.081 A 
HETATM    8  C5  UNL     1      41.549  23.913  51.145  1.00  0.00     0.121 A 
HETATM    9  N3  UNL     1      41.509  24.896  52.080  1.00  0.00    -0.349 N 
ATOM     10  H3  UNL     1      40.871  25.691  52.065  1.00  0.00     0.167 HD
HETATM   11  C6  UNL     1      42.442  24.667  53.037  1.00  0.00     0.123 A 
HETATM   12  C7  UNL     1      43.110  23.502  52.722  1.00  0.00     0.082 A 
HETATM   13  C8  UNL     1      44.223  22.896  53.509  1.00  0.00     0.127 C 
HETATM   14  N4  UNL     1      44.767  21.724  53.424  1.00  0.00    -0.325 N 
HETATM   15  C9  UNL     1      45.868  21.390  54.266  1.00  0.00     0.159 C 
HETATM   16  N5  UNL     1      44.921  23.479  54.592  1.00  0.00    -0.315 N 
ATOM     17  H5  UNL     1      45.550  22.854  55.097  1.00  0.00     0.170 HD
HETATM   18  C10 UNL     1      44.866  24.849  55.085  1.00  0.00     0.196 C 
HETATM   19  C18 UNL     1      43.610  25.638  54.980  1.00  0.00     0.067 C 
HETATM   20  C19 UNL     1      43.506  26.686  56.015  1.00  0.00     0.074 C 
HETATM   21  N8  UNL     1      42.622  25.557  54.138  1.00  0.00    -0.336 N 
HETATM   22  C20 UNL     1      41.524  26.482  54.313  1.00  0.00     0.158 C 
ENDROOT
BRANCH  18  23
HETATM   23  N6  UNL     1      45.816  25.366  55.583  1.00  0.00    -0.427 NA
BRANCH  23  24
HETATM   24  C11 UNL     1      46.883  25.946  56.141  1.00  0.00     0.248 C 
BRANCH  24  25
HETATM   25  C12 UNL     1      47.875  26.323  55.020  1.00  0.00     0.270 C 
BRANCH  25  26
HETATM   26  N7  UNL     1      49.193  25.805  55.302  1.00  0.00    -0.068 N 
HETATM   27  C13 UNL     1      49.218  24.446  54.785  1.00  0.00     0.272 C 
HETATM   28  C14 UNL     1      49.496  25.758  56.691  1.00  0.00     0.237 C 
HETATM   29  C15 UNL     1      50.546  26.782  56.993  1.00  0.00     0.029 C 
HETATM   30  C16 UNL     1      51.063  27.228  55.656  1.00  0.00     0.029 C 
HETATM   31  C17 UNL     1      50.236  26.537  54.629  1.00  0.00     0.237 C 
ENDBRANCH  25  26
ENDBRANCH  24  25
ENDBRANCH  23  24
ENDBRANCH  18  23
TORSDOF 4
ENDMDL
MODEL 4
REMARK VINA RESULT: -6.633096018      5.115      8.312
REMARK  4 active torsions:
REMARK  status: ('A' for Active; 'I' for Inactive)
REMARK    1  A    between atoms: C10_18  and  N6_19 
REMARK    2  A    between atoms: N6_19  and  C11_20 
REMARK    3  A    between atoms: C11_20  and  C12_21 
REMARK    4  A    between atoms: C12_21  and  N7_22 
ROOT
HETATM    1  C1  UNL     1      40.679  24.358  62.084  1.00  0.00     0.091 C 
HETATM    2  C2  UNL     1      39.762  24.329  60.888  1.00  0.00     0.097 C 
HETATM    3  N1  UNL     1      38.583  23.990  61.186  1.00  0.00    -0.284 N 
HETATM    4  C3  UNL     1      38.282  23.689  62.538  1.00  0.00     0.179 C 
HETATM    5  N2  UNL     1      37.483  23.889  60.294  1.00  0.00    -0.295 N 
ATOM      6  H2  UNL     1      36.726  23.263  60.570  1.00  0.00     0.187 HD
HETATM    7  C4  UNL     1      37.326  24.575  59.048  1.00  0.00     0.081 A 
HETATM    8  C5  UNL     1      36.129  24.833  58.413  1.00  0.00     0.121 A 
HETATM    9  N3  UNL     1      36.448  25.491  57.270  1.00  0.00    -0.349 N 
ATOM     10  H3  UNL     1      35.775  25.821  56.579  1.00  0.00     0.167 HD
HETATM   11  C6  UNL     1      37.792  25.645  57.179  1.00  0.00     0.123 A 
HETATM   12  C7  UNL     1      38.371  25.074  58.293  1.00  0.00     0.082 A 
HETATM   13  C8  UNL     1      39.833  25.014  58.582  1.00  0.00     0.127 C 
HETATM   14  N4  UNL     1      40.459  24.699  59.670  1.00  0.00    -0.325 N 
HETATM   15  C9  UNL     1      41.885  24.666  59.684  1.00  0.00     0.159 C 
HETATM   16  N5  UNL     1      40.892  25.346  57.705  1.00  0.00    -0.315 N 
ATOM     17  H5  UNL     1      41.819  25.382  58.130  1.00  0.00     0.170 HD
HETATM   18  C10 UNL     1      40.840  25.644  56.280  1.00  0.00     0.196 C 
HETATM   19  C18 UNL     1      39.644  26.300  55.689  1.00  0.00     0.067 C 
HETATM   20  C19 UNL     1      39.960  27.071  54.470  1.00  0.00     0.074 C 
HETATM   21  N8  UNL     1      38.399  26.297  56.064  1.00  0.00    -0.336 N 
HETATM   22  C20 UNL     1      37.463  27.055  55.264  1.00  0.00     0.158 C 
ENDROOT
BRANCH  18  23
HETATM   23  N6  UNL     1      41.749  25.373  55.558  1.00  0.00    -0.427 NA
BRANCH  23  24
HETATM   24  C11 UNL     1      42.768  25.069  54.749  1.00  0.00     0.248 C 
BRANCH  24  25
HETATM   25  C12 UNL     1      42.283  24.016  53.730  1.00  0.00     0.270 C 
BRANCH  25  26
HETATM   26  N7  UNL     1      43.321  23.708  52.774  1.00  0.00    -0.068 N 
HETATM   27  C13 UNL     1      43.836  24.983  52.303  1.00  0.00     0.272 C 
HETATM   28  C14 UNL     1      42.853  22.973  51.649  1.00  0.00     0.237 C 
HETATM   29  C15 UNL     1      43.403  21.582  51.714  1.00  0.00     0.029 C 
HETATM   30  C16 UNL     1      44.464  21.624  52.776  1.00  0.00     0.029 C 
HETATM   31  C17 UNL     1      44.425  22.992  53.362  1.00  0.00     0.237 C 
ENDBRANCH  25  26
ENDBRANCH  24  25
ENDBRANCH  23  24
ENDBRANCH  18  23
TORSDOF 4
ENDMDL
MODEL 5
REMARK VINA RESULT: -6.369261893      4.296      8.511
REMARK  4 active torsions:
REMARK  status: ('A' for Active; 'I' for Inactive)
REMARK    1  A    between atoms: C10_18  and  N6_19 
REMARK    2  A    between atoms: N6_19  and  C11_20 
REMARK    3  A    between atoms: C11_20  and  C12_21 
REMARK    4  A    between atoms: C12_21  and  N7_22 
ROOT
HETATM    1  C1  UNL     1      42.535  27.803  47.472  1.00  0.00     0.091 C 
HETATM    2  C2  UNL     1      42.696  26.591  48.354  1.00  0.00     0.097 C 
HETATM    3  N1  UNL     1      43.285  25.639  47.770  1.00  0.00    -0.284 N 
HETATM    4  C3  UNL     1      43.697  25.815  46.425  1.00  0.00     0.179 C 
HETATM    5  N2  UNL     1      43.609  24.375  48.331  1.00  0.00    -0.295 N 
ATOM      6  H2  UNL     1      43.724  23.600  47.678  1.00  0.00     0.187 HD
HETATM    7  C4  UNL     1      43.791  24.078  49.719  1.00  0.00     0.081 A 
HETATM    8  C5  UNL     1      44.514  23.020  50.230  1.00  0.00     0.121 A 
HETATM    9  N3  UNL     1      44.414  23.117  51.580  1.00  0.00    -0.349 N 
ATOM     10  H3  UNL     1      44.844  22.475  52.245  1.00  0.00     0.167 HD
HETATM   11  C6  UNL     1      43.658  24.191  51.915  1.00  0.00     0.123 A 
HETATM   12  C7  UNL     1      43.253  24.817  50.755  1.00  0.00     0.082 A 
HETATM   13  C8  UNL     1      42.393  26.034  50.676  1.00  0.00     0.127 C 
HETATM   14  N4  UNL     1      42.132  26.809  49.673  1.00  0.00    -0.325 N 
HETATM   15  C9  UNL     1      41.226  27.899  49.835  1.00  0.00     0.159 C 
HETATM   16  N5  UNL     1      41.687  26.652  51.733  1.00  0.00    -0.315 N 
ATOM     17  H5  UNL     1      41.273  27.559  51.514  1.00  0.00     0.170 HD
HETATM   18  C10 UNL     1      41.469  26.173  53.091  1.00  0.00     0.196 C 
HETATM   19  C18 UNL     1      42.489  25.328  53.766  1.00  0.00     0.067 C 
HETATM   20  C19 UNL     1      42.447  25.447  55.237  1.00  0.00     0.074 C 
HETATM   21  N8  UNL     1      43.383  24.520  53.277  1.00  0.00    -0.336 N 
HETATM   22  C20 UNL     1      44.246  23.839  54.216  1.00  0.00     0.158 C 
ENDROOT
BRANCH  18  23
HETATM   23  N6  UNL     1      40.477  26.446  53.692  1.00  0.00    -0.427 NA
BRANCH  23  24
HETATM   24  C11 UNL     1      39.364  26.751  54.365  1.00  0.00     0.248 C 
BRANCH  24  25
HETATM   25  C12 UNL     1      38.822  25.464  55.022  1.00  0.00     0.270 C 
BRANCH  25  26
HETATM   26  N7  UNL     1      37.806  25.772  56.000  1.00  0.00    -0.068 N 
HETATM   27  C13 UNL     1      37.258  27.066  55.628  1.00  0.00     0.272 C 
HETATM   28  C14 UNL     1      38.310  25.867  57.328  1.00  0.00     0.237 C 
HETATM   29  C15 UNL     1      37.801  24.705  58.124  1.00  0.00     0.029 C 
HETATM   30  C16 UNL     1      36.727  24.084  57.279  1.00  0.00     0.029 C 
HETATM   31  C17 UNL     1      36.717  24.828  55.989  1.00  0.00     0.237 C 
ENDBRANCH  25  26
ENDBRANCH  24  25
ENDBRANCH  23  24
ENDBRANCH  18  23
TORSDOF 4
ENDMDL
