MODEL 1
REMARK VINA RESULT: -7.091992469      0.000      0.000
REMARK  7 active torsions:
REMARK  status: ('A' for Active; 'I' for Inactive)
REMARK    1  A    between atoms: N1_2  and  N2_5 
REMARK    2  A    between atoms: N2_5  and  C4_7 
REMARK    3  A    between atoms: N4_15  and  C12_17 
REMARK    4  A    between atoms: C12_17  and  C13_18 
REMARK    5  A    between atoms: C14_19  and  C15_20 
REMARK    6  A    between atoms: C15_20  and  C16_21 
REMARK    7  A    between atoms: C20_27  and  O1_28 
ROOT
HETATM    1  C4  UNL     1      37.663  26.719  56.407  1.00  0.00     0.138 C 
HETATM    2  C5  UNL     1      36.733  25.541  56.036  1.00  0.00     0.035 C 
HETATM    3  C6  UNL     1      37.709  24.402  56.066  1.00  0.00     0.016 C 
HETATM    4  C7  UNL     1      38.461  24.773  57.353  1.00  0.00     0.042 C 
HETATM    5  C8  UNL     1      38.982  26.104  56.765  1.00  0.00     0.215 C 
HETATM    6  N3  UNL     1      39.708  25.587  55.631  1.00  0.00    -0.055 N 
HETATM    7  C9  UNL     1      40.198  26.569  54.717  1.00  0.00     0.266 C 
HETATM    8  C10 UNL     1      40.738  25.850  53.502  1.00  0.00     0.269 C 
HETATM    9  N4  UNL     1      41.963  25.211  53.888  1.00  0.00    -0.032 N 
HETATM   10  C11 UNL     1      43.049  26.141  53.535  1.00  0.00     0.276 C 
HETATM   11  C20 UNL     1      42.084  24.942  55.283  1.00  0.00     0.350 C 
HETATM   12  C21 UNL     1      40.820  24.751  56.028  1.00  0.00     0.299 C 
HETATM   13  C22 UNL     1      38.737  24.687  55.029  1.00  0.00     0.243 C 
ENDROOT
BRANCH   1  14
HETATM   14  N2  UNL     1      37.055  27.506  57.427  1.00  0.00    -0.247 N 
ATOM     15  H2  UNL     1      36.597  27.063  58.224  1.00  0.00     0.187 HD
BRANCH  14  16
HETATM   16  N1  UNL     1      37.099  28.864  57.314  1.00  0.00    -0.003 N 
HETATM   17  C1  UNL     1      38.360  29.480  57.684  1.00  0.00     0.300 C 
HETATM   18  C2  UNL     1      36.960  29.163  55.868  1.00  0.00     0.300 C 
HETATM   19  C3  UNL     1      36.057  29.581  57.986  1.00  0.00     0.300 C 
ENDBRANCH  14  16
ENDBRANCH   1  14
BRANCH  11  20
HETATM   20  O1  UNL     1      42.928  25.881  55.922  1.00  0.00    -0.368 OA
ATOM     21  H1  UNL     1      42.756  25.926  56.855  1.00  0.00     0.212 HD
ENDBRANCH  11  20
BRANCH   9  22
HETATM   22  C12 UNL     1      42.147  24.035  53.060  1.00  0.00     0.333 C 
BRANCH  22  23
HETATM   23  C13 UNL     1      43.406  23.336  53.414  1.00  0.00    -0.078 C 
HETATM   24  C14 UNL     1      44.428  22.757  53.687  1.00  0.00    -0.099 C 
BRANCH  24  25
HETATM   25  C15 UNL     1      45.684  22.053  53.996  1.00  0.00     0.150 C 
BRANCH  25  26
HETATM   26  C16 UNL     1      45.455  20.612  53.708  1.00  0.00     0.020 A 
HETATM   27  C17 UNL     1      44.997  20.101  52.513  1.00  0.00     0.027 A 
HETATM   28  C18 UNL     1      44.915  18.725  52.632  1.00  0.00     0.019 A 
HETATM   29  C19 UNL     1      45.328  18.418  53.910  1.00  0.00     0.088 A 
HETATM   30  N5  UNL     1      45.651  19.574  54.544  1.00  0.00    -0.368 N 
ATOM     31  H5  UNL     1      45.988  19.646  55.504  1.00  0.00     0.165 HD
ENDBRANCH  25  26
ENDBRANCH  24  25
ENDBRANCH  22  23
ENDBRANCH   9  22
TORSDOF 7
ENDMDL
MODEL 2
REMARK VINA RESULT: -6.986299791      0.885      1.238
REMARK  7 active torsions:
REMARK  status: ('A' for Active; 'I' for Inactive)
REMARK    1  A    between atoms: N1_2  and  N2_5 
REMARK    2  A    between atoms: N2_5  and  C4_7 
REMARK    3  A    between atoms: N4_15  and  C12_17 
REMARK    4  A    between atoms: C12_17  and  C13_18 
REMARK    5  A    between atoms: C14_19  and  C15_20 
REMARK    6  A    between atoms: C15_20  and  C16_21 
REMARK    7  A    between atoms: C20_27  and  O1_28 
ROOT
HETATM    1  C4  UNL     1      38.445  27.048  55.881  1.00  0.00     0.138 C 
HETATM    2  C5  UNL     1      37.386  25.936  55.706  1.00  0.00     0.035 C 
HETATM    3  C6  UNL     1      38.251  24.715  55.823  1.00  0.00     0.016 C 
HETATM    4  C7  UNL     1      39.115  25.154  57.014  1.00  0.00     0.042 C 
HETATM    5  C8  UNL     1      39.720  26.349  56.241  1.00  0.00     0.215 C 
HETATM    6  N3  UNL     1      40.319  25.633  55.142  1.00  0.00    -0.055 N 
HETATM    7  C9  UNL     1      40.840  26.448  54.091  1.00  0.00     0.266 C 
HETATM    8  C10 UNL     1      41.231  25.542  52.945  1.00  0.00     0.269 C 
HETATM    9  N4  UNL     1      42.413  24.832  53.342  1.00  0.00    -0.032 N 
HETATM   10  C11 UNL     1      43.556  25.601  52.821  1.00  0.00     0.276 C 
HETATM   11  C20 UNL     1      42.597  24.716  54.750  1.00  0.00     0.350 C 
HETATM   12  C21 UNL     1      41.371  24.741  55.578  1.00  0.00     0.299 C 
HETATM   13  C22 UNL     1      39.232  24.772  54.705  1.00  0.00     0.243 C 
ENDROOT
BRANCH   1  14
HETATM   14  N2  UNL     1      37.980  28.005  56.828  1.00  0.00    -0.247 N 
ATOM     15  H2  UNL     1      37.782  27.733  57.791  1.00  0.00     0.187 HD
BRANCH  14  16
HETATM   16  N1  UNL     1      37.806  29.295  56.418  1.00  0.00    -0.003 N 
HETATM   17  C1  UNL     1      36.445  29.663  56.077  1.00  0.00     0.300 C 
HETATM   18  C2  UNL     1      38.129  30.146  57.589  1.00  0.00     0.300 C 
HETATM   19  C3  UNL     1      38.651  29.729  55.347  1.00  0.00     0.300 C 
ENDBRANCH  14  16
ENDBRANCH   1  14
BRANCH  11  20
HETATM   20  O1  UNL     1      43.565  25.632  55.225  1.00  0.00    -0.368 OA
ATOM     21  H1  UNL     1      43.255  26.102  55.990  1.00  0.00     0.212 HD
ENDBRANCH  11  20
BRANCH   9  22
HETATM   22  C12 UNL     1      42.432  23.555  52.654  1.00  0.00     0.333 C 
BRANCH  22  23
HETATM   23  C13 UNL     1      43.671  22.807  52.973  1.00  0.00    -0.078 C 
HETATM   24  C14 UNL     1      44.687  22.203  53.216  1.00  0.00    -0.099 C 
BRANCH  24  25
HETATM   25  C15 UNL     1      45.940  21.486  53.505  1.00  0.00     0.150 C 
BRANCH  25  26
HETATM   26  C16 UNL     1      45.594  20.046  53.643  1.00  0.00     0.020 A 
HETATM   27  C17 UNL     1      45.020  19.267  52.663  1.00  0.00     0.027 A 
HETATM   28  C18 UNL     1      44.853  17.989  53.165  1.00  0.00     0.019 A 
HETATM   29  C19 UNL     1      45.333  18.011  54.456  1.00  0.00     0.088 A 
HETATM   30  N5  UNL     1      45.776  19.265  54.725  1.00  0.00    -0.368 N 
ATOM     31  H5  UNL     1      46.185  19.569  55.609  1.00  0.00     0.165 HD
ENDBRANCH  25  26
ENDBRANCH  24  25
ENDBRANCH  22  23
ENDBRANCH   9  22
TORSDOF 7
ENDMDL
MODEL 3
REMARK VINA RESULT: -6.635347781      3.109      8.169
REMARK  7 active torsions:
REMARK  status: ('A' for Active; 'I' for Inactive)
REMARK    1  A    between atoms: N1_2  and  N2_5 
REMARK    2  A    between atoms: N2_5  and  C4_7 
REMARK    3  A    between atoms: N4_15  and  C12_17 
REMARK    4  A    between atoms: C12_17  and  C13_18 
REMARK    5  A    between atoms: C14_19  and  C15_20 
REMARK    6  A    between atoms: C15_20  and  C16_21 
REMARK    7  A    between atoms: C20_27  and  O1_28 
ROOT
HETATM    1  C4  UNL     1      43.689  24.374  50.102  1.00  0.00     0.138 C 
HETATM    2  C5  UNL     1      44.491  23.142  50.579  1.00  0.00     0.035 C 
HETATM    3  C6  UNL     1      43.676  22.730  51.770  1.00  0.00     0.016 C 
HETATM    4  C7  UNL     1      42.275  22.892  51.162  1.00  0.00     0.042 C 
HETATM    5  C8  UNL     1      42.453  24.413  50.947  1.00  0.00     0.215 C 
HETATM    6  N3  UNL     1      42.695  24.811  52.311  1.00  0.00    -0.055 N 
HETATM    7  C9  UNL     1      43.091  26.172  52.491  1.00  0.00     0.266 C 
HETATM    8  C10 UNL     1      43.501  26.354  53.935  1.00  0.00     0.269 C 
HETATM    9  N4  UNL     1      42.308  26.316  54.731  1.00  0.00    -0.032 N 
HETATM   10  C11 UNL     1      41.885  27.714  54.915  1.00  0.00     0.276 C 
HETATM   11  C20 UNL     1      41.212  25.626  54.134  1.00  0.00     0.350 C 
HETATM   12  C21 UNL     1      41.555  24.561  53.166  1.00  0.00     0.299 C 
HETATM   13  C22 UNL     1      43.715  23.865  52.733  1.00  0.00     0.243 C 
ENDROOT
BRANCH   1  14
HETATM   14  N2  UNL     1      43.471  24.287  48.697  1.00  0.00    -0.247 N 
ATOM     15  H2  UNL     1      42.805  23.617  48.313  1.00  0.00     0.187 HD
BRANCH  14  16
HETATM   16  N1  UNL     1      44.173  25.121  47.876  1.00  0.00    -0.003 N 
HETATM   17  C1  UNL     1      45.512  24.678  47.536  1.00  0.00     0.300 C 
HETATM   18  C2  UNL     1      43.453  25.126  46.580  1.00  0.00     0.300 C 
HETATM   19  C3  UNL     1      44.266  26.485  48.303  1.00  0.00     0.300 C 
ENDBRANCH  14  16
ENDBRANCH   1  14
BRANCH  11  20
HETATM   20  O1  UNL     1      40.259  26.526  53.602  1.00  0.00    -0.368 OA
ATOM     21  H1  UNL     1      39.803  26.152  52.858  1.00  0.00     0.212 HD
ENDBRANCH  11  20
BRANCH   9  22
HETATM   22  C12 UNL     1      42.651  25.816  56.048  1.00  0.00     0.333 C 
BRANCH  22  23
HETATM   23  C13 UNL     1      41.448  25.744  56.911  1.00  0.00    -0.078 C 
HETATM   24  C14 UNL     1      40.480  25.683  57.628  1.00  0.00    -0.099 C 
BRANCH  24  25
HETATM   25  C15 UNL     1      39.309  25.626  58.520  1.00  0.00     0.150 C 
BRANCH  25  26
HETATM   26  C16 UNL     1      38.230  24.926  57.774  1.00  0.00     0.020 A 
HETATM   27  C17 UNL     1      38.165  24.793  56.404  1.00  0.00     0.027 A 
HETATM   28  C18 UNL     1      37.021  24.083  56.090  1.00  0.00     0.019 A 
HETATM   29  C19 UNL     1      36.400  23.793  57.285  1.00  0.00     0.088 A 
HETATM   30  N5  UNL     1      37.149  24.312  58.292  1.00  0.00    -0.368 N 
ATOM     31  H5  UNL     1      36.927  24.247  59.285  1.00  0.00     0.165 HD
ENDBRANCH  25  26
ENDBRANCH  24  25
ENDBRANCH  22  23
ENDBRANCH   9  22
TORSDOF 7
ENDMDL
MODEL 4
REMARK VINA RESULT: -6.621736112      1.886      2.591
REMARK  7 active torsions:
REMARK  status: ('A' for Active; 'I' for Inactive)
REMARK    1  A    between atoms: N1_2  and  N2_5 
REMARK    2  A    between atoms: N2_5  and  C4_7 
REMARK    3  A    between atoms: N4_15  and  C12_17 
REMARK    4  A    between atoms: C12_17  and  C13_18 
REMARK    5  A    between atoms: C14_19  and  C15_20 
REMARK    6  A    between atoms: C15_20  and  C16_21 
REMARK    7  A    between atoms: C20_27  and  O1_28 
ROOT
HETATM    1  C4  UNL     1      39.776  27.020  54.653  1.00  0.00     0.138 C 
HETATM    2  C5  UNL     1      38.876  25.863  55.146  1.00  0.00     0.035 C 
HETATM    3  C6  UNL     1      39.894  24.771  55.296  1.00  0.00     0.016 C 
HETATM    4  C7  UNL     1      41.011  25.583  55.968  1.00  0.00     0.042 C 
HETATM    5  C8  UNL     1      41.183  26.515  54.746  1.00  0.00     0.215 C 
HETATM    6  N3  UNL     1      41.512  25.527  53.748  1.00  0.00    -0.055 N 
HETATM    7  C9  UNL     1      41.572  26.009  52.405  1.00  0.00     0.266 C 
HETATM    8  C10 UNL     1      41.716  24.817  51.485  1.00  0.00     0.269 C 
HETATM    9  N4  UNL     1      43.048  24.309  51.645  1.00  0.00    -0.032 N 
HETATM   10  C11 UNL     1      43.862  24.932  50.588  1.00  0.00     0.276 C 
HETATM   11  C20 UNL     1      43.666  24.629  52.889  1.00  0.00     0.350 C 
HETATM   12  C21 UNL     1      42.758  24.851  54.036  1.00  0.00     0.299 C 
HETATM   13  C22 UNL     1      40.472  24.530  53.946  1.00  0.00     0.243 C 
ENDROOT
BRANCH   1  14
HETATM   14  N2  UNL     1      39.495  28.197  55.403  1.00  0.00    -0.247 N 
ATOM     15  H2  UNL     1      39.807  28.287  56.370  1.00  0.00     0.187 HD
BRANCH  14  16
HETATM   16  N1  UNL     1      38.798  29.203  54.800  1.00  0.00    -0.003 N 
HETATM   17  C1  UNL     1      38.562  29.033  53.379  1.00  0.00     0.300 C 
HETATM   18  C2  UNL     1      37.441  29.181  55.398  1.00  0.00     0.300 C 
HETATM   19  C3  UNL     1      39.314  30.525  54.996  1.00  0.00     0.300 C 
ENDBRANCH  14  16
ENDBRANCH   1  14
BRANCH  11  20
HETATM   20  O1  UNL     1      44.597  25.684  52.750  1.00  0.00    -0.368 OA
ATOM     21  H1  UNL     1      44.243  26.396  52.229  1.00  0.00     0.212 HD
ENDBRANCH  11  20
BRANCH   9  22
HETATM   22  C12 UNL     1      43.031  22.886  51.362  1.00  0.00     0.333 C 
BRANCH  22  23
HETATM   23  C13 UNL     1      44.171  22.207  52.023  1.00  0.00    -0.078 C 
HETATM   24  C14 UNL     1      45.089  21.653  52.577  1.00  0.00    -0.099 C 
BRANCH  24  25
HETATM   25  C15 UNL     1      46.193  20.958  53.260  1.00  0.00     0.150 C 
BRANCH  25  26
HETATM   26  C16 UNL     1      45.693  19.607  53.629  1.00  0.00     0.020 A 
HETATM   27  C17 UNL     1      45.013  18.753  52.790  1.00  0.00     0.027 A 
HETATM   28  C18 UNL     1      44.717  17.598  53.491  1.00  0.00     0.019 A 
HETATM   29  C19 UNL     1      45.228  17.769  54.759  1.00  0.00     0.088 A 
HETATM   30  N5  UNL     1      45.815  18.992  54.821  1.00  0.00    -0.368 N 
ATOM     31  H5  UNL     1      46.276  19.384  55.642  1.00  0.00     0.165 HD
ENDBRANCH  25  26
ENDBRANCH  24  25
ENDBRANCH  22  23
ENDBRANCH   9  22
TORSDOF 7
ENDMDL
MODEL 5
REMARK VINA RESULT: -6.563377598      1.910      3.323
REMARK  7 active torsions:
REMARK  status: ('A' for Active; 'I' for Inactive)
REMARK    1  A    between atoms: N1_2  and  N2_5 
REMARK    2  A    between atoms: N2_5  and  C4_7 
REMARK    3  A    between atoms: N4_15  and  C12_17 
REMARK    4  A    between atoms: C12_17  and  C13_18 
REMARK    5  A    between atoms: C14_19  and  C15_20 
REMARK    6  A    between atoms: C15_20  and  C16_21 
REMARK    7  A    between atoms: C20_27  and  O1_28 
ROOT
HETATM    1  C4  UNL     1      40.501  26.153  56.414  1.00  0.00     0.138 C 
HETATM    2  C5  UNL     1      41.717  26.133  57.368  1.00  0.00     0.035 C 
HETATM    3  C6  UNL     1      42.810  26.546  56.426  1.00  0.00     0.016 C 
HETATM    4  C7  UNL     1      42.074  27.679  55.696  1.00  0.00     0.042 C 
HETATM    5  C8  UNL     1      41.001  26.726  55.123  1.00  0.00     0.215 C 
HETATM    6  N3  UNL     1      41.858  25.832  54.384  1.00  0.00    -0.055 N 
HETATM    7  C9  UNL     1      41.217  24.676  53.843  1.00  0.00     0.266 C 
HETATM    8  C10 UNL     1      42.287  23.761  53.293  1.00  0.00     0.269 C 
HETATM    9  N4  UNL     1      42.799  24.366  52.097  1.00  0.00    -0.032 N 
HETATM   10  C11 UNL     1      42.045  23.779  50.977  1.00  0.00     0.276 C 
HETATM   11  C20 UNL     1      42.625  25.778  52.019  1.00  0.00     0.350 C 
HETATM   12  C21 UNL     1      42.551  26.504  53.307  1.00  0.00     0.299 C 
HETATM   13  C22 UNL     1      42.880  25.505  55.364  1.00  0.00     0.243 C 
ENDROOT
BRANCH   1  14
HETATM   14  N2  UNL     1      39.426  26.859  57.024  1.00  0.00    -0.247 N 
ATOM     15  H2  UNL     1      39.571  27.785  57.426  1.00  0.00     0.187 HD
BRANCH  14  16
HETATM   16  N1  UNL     1      38.196  26.270  57.059  1.00  0.00    -0.003 N 
HETATM   17  C1  UNL     1      38.181  24.883  57.487  1.00  0.00     0.300 C 
HETATM   18  C2  UNL     1      37.427  26.981  58.109  1.00  0.00     0.300 C 
HETATM   19  C3  UNL     1      37.427  26.356  55.854  1.00  0.00     0.300 C 
ENDBRANCH  14  16
ENDBRANCH   1  14
BRANCH  11  20
HETATM   20  O1  UNL     1      41.552  26.124  51.165  1.00  0.00    -0.368 OA
ATOM     21  H1  UNL     1      41.374  27.057  51.188  1.00  0.00     0.212 HD
ENDBRANCH  11  20
BRANCH   9  22
HETATM   22  C12 UNL     1      44.177  23.947  51.926  1.00  0.00     0.333 C 
BRANCH  22  23
HETATM   23  C13 UNL     1      44.254  22.487  51.682  1.00  0.00    -0.078 C 
HETATM   24  C14 UNL     1      44.301  21.300  51.473  1.00  0.00    -0.099 C 
BRANCH  24  25
HETATM   25  C15 UNL     1      44.354  19.855  51.193  1.00  0.00     0.150 C 
BRANCH  25  26
HETATM   26  C16 UNL     1      44.753  19.182  52.458  1.00  0.00     0.020 A 
HETATM   27  C17 UNL     1      44.353  17.924  52.851  1.00  0.00     0.027 A 
HETATM   28  C18 UNL     1      44.928  17.649  54.079  1.00  0.00     0.019 A 
HETATM   29  C19 UNL     1      45.677  18.755  54.416  1.00  0.00     0.088 A 
HETATM   30  N5  UNL     1      45.557  19.671  53.422  1.00  0.00    -0.368 N 
ATOM     31  H5  UNL     1      46.006  20.587  53.406  1.00  0.00     0.165 HD
ENDBRANCH  25  26
ENDBRANCH  24  25
ENDBRANCH  22  23
ENDBRANCH   9  22
TORSDOF 7
ENDMDL
