MODEL 1
REMARK VINA RESULT: -8.470140106      0.000      0.000
REMARK  9 active torsions:
REMARK  status: ('A' for Active; 'I' for Inactive)
REMARK    1  A    between atoms: C2_2  and  N1_3 
REMARK    2  A    between atoms: C3_6  and  N3_7 
REMARK    3  A    between atoms: C4_12  and  C5_13 
REMARK    4  A    between atoms: C6_14  and  C7_15 
REMARK    5  A    between atoms: C8_16  and  C9_17 
REMARK    6  A    between atoms: C10_18  and  C11_19 
REMARK    7  A    between atoms: C11_19  and  C12_20 
REMARK    8  A    between atoms: N6_24  and  C14_25 
REMARK    9  A    between atoms: C14_25  and  C15_26 
ROOT
HETATM    1  C9  UNL     1      40.421  24.773  53.955  1.00  0.00    -0.014 C 
HETATM    2  C10 UNL     1      41.201  24.785  53.030  1.00  0.00    -0.086 C 
ENDROOT
BRANCH   1   3
HETATM    3  C8  UNL     1      39.488  24.767  55.024  1.00  0.00    -0.001 C 
HETATM    4  C7  UNL     1      38.704  24.763  55.955  1.00  0.00    -0.001 C 
BRANCH   4   5
HETATM    5  C6  UNL     1      37.811  24.765  57.055  1.00  0.00    -0.006 C 
HETATM    6  C5  UNL     1      37.053  24.781  58.014  1.00  0.00    -0.014 C 
BRANCH   6   7
HETATM    7  C4  UNL     1      36.178  24.812  59.153  1.00  0.00     0.194 A 
HETATM    8  N1  UNL     1      36.494  24.600  60.457  1.00  0.00    -0.255 N 
HETATM    9  N2  UNL     1      35.404  24.717  61.194  1.00  0.00    -0.128 N 
HETATM   10  C3  UNL     1      34.361  25.005  60.390  1.00  0.00     0.692 A 
ATOM     11  H2  UNL     1      35.359  24.607  62.208  1.00  0.00     0.206 HD
HETATM   12  N4  UNL     1      34.865  25.057  59.144  1.00  0.00    -0.166 N 
ATOM     13  H4  UNL     1      34.318  25.258  58.307  1.00  0.00     0.186 HD
BRANCH   8  14
HETATM   14  C2  UNL     1      37.819  24.294  60.959  1.00  0.00     0.147 C 
HETATM   15  C1  UNL     1      37.807  23.104  61.889  1.00  0.00     0.028 C 
ENDBRANCH   8  14
BRANCH  10  16
HETATM   16  N3  UNL     1      33.136  25.192  60.748  1.00  0.00    -0.233 N 
ATOM     17  H32 UNL     1      32.642  24.746  61.522  1.00  0.00     0.174 HD
ATOM     18  H31 UNL     1      32.459  25.818  60.311  1.00  0.00     0.174 HD
ENDBRANCH  10  16
ENDBRANCH   6   7
ENDBRANCH   4   5
ENDBRANCH   1   3
BRANCH   2  19
HETATM   19  C11 UNL     1      42.135  24.804  51.880  1.00  0.00     0.154 C 
BRANCH  19  20
HETATM   20  C12 UNL     1      42.939  23.557  51.840  1.00  0.00     0.043 A 
HETATM   21  N5  UNL     1      42.604  22.464  51.126  1.00  0.00    -0.353 N 
HETATM   22  C13 UNL     1      43.537  21.505  51.297  1.00  0.00     0.183 A 
ATOM     23  H5  UNL     1      41.771  22.375  50.544  1.00  0.00     0.166 HD
HETATM   24  N6  UNL     1      44.506  21.974  52.140  1.00  0.00    -0.341 N 
HETATM   25  C21 UNL     1      44.118  23.219  52.456  1.00  0.00     0.032 A 
HETATM   26  C22 UNL     1      44.874  24.132  53.362  1.00  0.00     0.070 C 
BRANCH  24  27
HETATM   27  C14 UNL     1      45.667  21.208  52.551  1.00  0.00     0.168 C 
BRANCH  27  28
HETATM   28  C15 UNL     1      45.356  19.844  53.000  1.00  0.00    -0.040 A 
HETATM   29  C16 UNL     1      44.829  18.890  52.163  1.00  0.00     0.009 A 
HETATM   30  C17 UNL     1      44.552  17.616  52.638  1.00  0.00     0.001 A 
HETATM   31  C18 UNL     1      44.803  17.294  53.953  1.00  0.00     0.000 A 
HETATM   32  C19 UNL     1      45.333  18.234  54.819  1.00  0.00     0.001 A 
HETATM   33  C20 UNL     1      45.595  19.484  54.314  1.00  0.00     0.009 A 
ENDBRANCH  27  28
ENDBRANCH  24  27
ENDBRANCH  19  20
ENDBRANCH   2  19
TORSDOF 9
ENDMDL
MODEL 2
REMARK VINA RESULT: -8.298327985      1.209      1.375
REMARK  9 active torsions:
REMARK  status: ('A' for Active; 'I' for Inactive)
REMARK    1  A    between atoms: C2_2  and  N1_3 
REMARK    2  A    between atoms: C3_6  and  N3_7 
REMARK    3  A    between atoms: C4_12  and  C5_13 
REMARK    4  A    between atoms: C6_14  and  C7_15 
REMARK    5  A    between atoms: C8_16  and  C9_17 
REMARK    6  A    between atoms: C10_18  and  C11_19 
REMARK    7  A    between atoms: C11_19  and  C12_20 
REMARK    8  A    between atoms: N6_24  and  C14_25 
REMARK    9  A    between atoms: C14_25  and  C15_26 
ROOT
HETATM    1  C9  UNL     1      40.964  24.820  53.450  1.00  0.00    -0.014 C 
HETATM    2  C10 UNL     1      41.843  24.853  52.618  1.00  0.00    -0.086 C 
ENDROOT
BRANCH   1   3
HETATM    3  C8  UNL     1      39.951  24.781  54.443  1.00  0.00    -0.001 C 
HETATM    4  C7  UNL     1      39.071  24.735  55.282  1.00  0.00    -0.001 C 
BRANCH   4   5
HETATM    5  C6  UNL     1      38.036  24.659  56.247  1.00  0.00    -0.006 C 
HETATM    6  C5  UNL     1      37.146  24.574  57.081  1.00  0.00    -0.014 C 
BRANCH   6   7
HETATM    7  C4  UNL     1      36.102  24.450  58.060  1.00  0.00     0.194 A 
HETATM    8  N1  UNL     1      35.800  25.302  59.073  1.00  0.00    -0.255 N 
HETATM    9  N2  UNL     1      34.770  24.827  59.750  1.00  0.00    -0.128 N 
HETATM   10  C3  UNL     1      34.383  23.662  59.196  1.00  0.00     0.692 A 
ATOM     11  H2  UNL     1      34.338  25.271  60.561  1.00  0.00     0.206 HD
HETATM   12  N4  UNL     1      35.216  23.455  58.161  1.00  0.00    -0.166 N 
ATOM     13  H4  UNL     1      35.178  22.648  57.538  1.00  0.00     0.186 HD
BRANCH   8  14
HETATM   14  C2  UNL     1      36.498  26.539  59.364  1.00  0.00     0.147 C 
HETATM   15  C1  UNL     1      37.672  26.318  60.289  1.00  0.00     0.028 C 
ENDBRANCH   8  14
BRANCH  10  16
HETATM   16  N3  UNL     1      33.411  22.905  59.581  1.00  0.00    -0.233 N 
ATOM     17  H32 UNL     1      32.412  23.112  59.541  1.00  0.00     0.174 HD
ATOM     18  H31 UNL     1      33.485  21.975  59.993  1.00  0.00     0.174 HD
ENDBRANCH  10  16
ENDBRANCH   6   7
ENDBRANCH   4   5
ENDBRANCH   1   3
BRANCH   2  19
HETATM   19  C11 UNL     1      42.936  24.900  51.620  1.00  0.00     0.154 C 
BRANCH  19  20
HETATM   20  C12 UNL     1      43.752  23.662  51.683  1.00  0.00     0.043 A 
HETATM   21  N5  UNL     1      43.819  22.749  50.693  1.00  0.00    -0.353 N 
HETATM   22  C13 UNL     1      44.645  21.746  51.054  1.00  0.00     0.183 A 
ATOM     23  H5  UNL     1      43.320  22.808  49.805  1.00  0.00     0.166 HD
HETATM   24  N6  UNL     1      45.133  22.002  52.306  1.00  0.00    -0.341 N 
HETATM   25  C21 UNL     1      44.575  23.169  52.664  1.00  0.00     0.032 A 
HETATM   26  C22 UNL     1      44.818  23.852  53.968  1.00  0.00     0.070 C 
BRANCH  24  27
HETATM   27  C14 UNL     1      46.052  21.131  53.013  1.00  0.00     0.168 C 
BRANCH  27  28
HETATM   28  C15 UNL     1      45.538  19.774  53.239  1.00  0.00    -0.040 A 
HETATM   29  C16 UNL     1      44.949  19.029  52.243  1.00  0.00     0.009 A 
HETATM   30  C17 UNL     1      44.478  17.751  52.509  1.00  0.00     0.001 A 
HETATM   31  C18 UNL     1      44.595  17.215  53.771  1.00  0.00     0.000 A 
HETATM   32  C19 UNL     1      45.183  17.940  54.793  1.00  0.00     0.001 A 
HETATM   33  C20 UNL     1      45.638  19.202  54.494  1.00  0.00     0.009 A 
ENDBRANCH  27  28
ENDBRANCH  24  27
ENDBRANCH  19  20
ENDBRANCH   2  19
TORSDOF 9
ENDMDL
MODEL 3
REMARK VINA RESULT: -8.239652208      1.020      1.371
REMARK  9 active torsions:
REMARK  status: ('A' for Active; 'I' for Inactive)
REMARK    1  A    between atoms: C2_2  and  N1_3 
REMARK    2  A    between atoms: C3_6  and  N3_7 
REMARK    3  A    between atoms: C4_12  and  C5_13 
REMARK    4  A    between atoms: C6_14  and  C7_15 
REMARK    5  A    between atoms: C8_16  and  C9_17 
REMARK    6  A    between atoms: C10_18  and  C11_19 
REMARK    7  A    between atoms: C11_19  and  C12_20 
REMARK    8  A    between atoms: N6_24  and  C14_25 
REMARK    9  A    between atoms: C14_25  and  C15_26 
ROOT
HETATM    1  C9  UNL     1      40.124  24.780  54.303  1.00  0.00    -0.014 C 
HETATM    2  C10 UNL     1      40.986  24.730  53.456  1.00  0.00    -0.086 C 
ENDROOT
BRANCH   1   3
HETATM    3  C8  UNL     1      39.125  24.822  55.311  1.00  0.00    -0.001 C 
HETATM    4  C7  UNL     1      38.281  24.872  56.187  1.00  0.00    -0.001 C 
BRANCH   4   5
HETATM    5  C6  UNL     1      37.309  24.953  57.215  1.00  0.00    -0.006 C 
HETATM    6  C5  UNL     1      36.476  25.042  58.104  1.00  0.00    -0.014 C 
BRANCH   6   7
HETATM    7  C4  UNL     1      35.503  25.169  59.154  1.00  0.00     0.194 A 
HETATM    8  N1  UNL     1      35.353  24.388  60.254  1.00  0.00    -0.255 N 
HETATM    9  N2  UNL     1      34.340  24.838  60.974  1.00  0.00    -0.128 N 
HETATM   10  C3  UNL     1      33.811  25.914  60.359  1.00  0.00     0.692 A 
ATOM     11  H2  UNL     1      34.012  24.435  61.852  1.00  0.00     0.206 HD
HETATM   12  N4  UNL     1      34.544  26.095  59.246  1.00  0.00    -0.166 N 
ATOM     13  H4  UNL     1      34.388  26.838  58.564  1.00  0.00     0.186 HD
BRANCH   8  14
HETATM   14  C2  UNL     1      36.177  23.243  60.588  1.00  0.00     0.147 C 
HETATM   15  C1  UNL     1      37.190  23.572  61.659  1.00  0.00     0.028 C 
ENDBRANCH   8  14
BRANCH  10  16
HETATM   16  N3  UNL     1      32.810  26.621  60.760  1.00  0.00    -0.233 N 
ATOM     17  H32 UNL     1      32.821  27.597  61.059  1.00  0.00     0.174 HD
ATOM     18  H31 UNL     1      31.840  26.316  60.847  1.00  0.00     0.174 HD
ENDBRANCH  10  16
ENDBRANCH   6   7
ENDBRANCH   4   5
ENDBRANCH   1   3
BRANCH   2  19
HETATM   19  C11 UNL     1      42.058  24.654  52.436  1.00  0.00     0.154 C 
BRANCH  19  20
HETATM   20  C12 UNL     1      43.184  23.820  52.925  1.00  0.00     0.043 A 
HETATM   21  N5  UNL     1      43.657  23.852  54.188  1.00  0.00    -0.353 N 
HETATM   22  C13 UNL     1      44.676  22.979  54.314  1.00  0.00     0.183 A 
ATOM     23  H5  UNL     1      43.297  24.447  54.934  1.00  0.00     0.166 HD
HETATM   24  N6  UNL     1      44.881  22.359  53.112  1.00  0.00    -0.341 N 
HETATM   25  C21 UNL     1      43.964  22.888  52.288  1.00  0.00     0.032 A 
HETATM   26  C22 UNL     1      43.805  22.511  50.853  1.00  0.00     0.070 C 
BRANCH  24  27
HETATM   27  C14 UNL     1      45.903  21.357  52.879  1.00  0.00     0.168 C 
BRANCH  27  28
HETATM   28  C15 UNL     1      45.463  19.980  53.140  1.00  0.00    -0.040 A 
HETATM   29  C16 UNL     1      44.764  19.237  52.218  1.00  0.00     0.009 A 
HETATM   30  C17 UNL     1      44.370  17.940  52.515  1.00  0.00     0.001 A 
HETATM   31  C18 UNL     1      44.676  17.383  53.736  1.00  0.00     0.000 A 
HETATM   32  C19 UNL     1      45.378  18.106  54.684  1.00  0.00     0.001 A 
HETATM   33  C20 UNL     1      45.752  19.387  54.355  1.00  0.00     0.009 A 
ENDBRANCH  27  28
ENDBRANCH  24  27
ENDBRANCH  19  20
ENDBRANCH   2  19
TORSDOF 9
ENDMDL
MODEL 4
REMARK VINA RESULT: -7.934427206      0.986      1.756
REMARK  9 active torsions:
REMARK  status: ('A' for Active; 'I' for Inactive)
REMARK    1  A    between atoms: C2_2  and  N1_3 
REMARK    2  A    between atoms: C3_6  and  N3_7 
REMARK    3  A    between atoms: C4_12  and  C5_13 
REMARK    4  A    between atoms: C6_14  and  C7_15 
REMARK    5  A    between atoms: C8_16  and  C9_17 
REMARK    6  A    between atoms: C10_18  and  C11_19 
REMARK    7  A    between atoms: C11_19  and  C12_20 
REMARK    8  A    between atoms: N6_24  and  C14_25 
REMARK    9  A    between atoms: C14_25  and  C15_26 
ROOT
HETATM    1  C9  UNL     1      40.453  24.848  54.338  1.00  0.00    -0.014 C 
HETATM    2  C10 UNL     1      41.077  24.846  53.301  1.00  0.00    -0.086 C 
ENDROOT
BRANCH   1   3
HETATM    3  C8  UNL     1      39.737  24.867  55.563  1.00  0.00    -0.001 C 
HETATM    4  C7  UNL     1      39.140  24.875  56.624  1.00  0.00    -0.001 C 
BRANCH   4   5
HETATM    5  C6  UNL     1      38.467  24.882  57.871  1.00  0.00    -0.006 C 
HETATM    6  C5  UNL     1      37.890  24.908  58.948  1.00  0.00    -0.014 C 
BRANCH   6   7
HETATM    7  C4  UNL     1      37.218  24.961  60.217  1.00  0.00     0.194 A 
HETATM    8  N1  UNL     1      35.882  24.949  60.456  1.00  0.00    -0.255 N 
HETATM    9  N2  UNL     1      35.671  25.014  61.759  1.00  0.00    -0.128 N 
HETATM   10  C3  UNL     1      36.860  25.070  62.391  1.00  0.00     0.692 A 
ATOM     11  H2  UNL     1      34.757  25.020  62.213  1.00  0.00     0.206 HD
HETATM   12  N4  UNL     1      37.791  25.036  61.422  1.00  0.00    -0.166 N 
ATOM     13  H4  UNL     1      38.798  25.063  61.584  1.00  0.00     0.186 HD
BRANCH   8  14
HETATM   14  C2  UNL     1      34.849  24.876  59.442  1.00  0.00     0.147 C 
HETATM   15  C1  UNL     1      34.337  23.466  59.262  1.00  0.00     0.028 C 
ENDBRANCH   8  14
BRANCH  10  16
HETATM   16  N3  UNL     1      37.058  25.141  63.664  1.00  0.00    -0.233 N 
ATOM     17  H32 UNL     1      37.893  25.479  64.143  1.00  0.00     0.174 HD
ATOM     18  H31 UNL     1      36.408  24.866  64.401  1.00  0.00     0.174 HD
ENDBRANCH  10  16
ENDBRANCH   6   7
ENDBRANCH   4   5
ENDBRANCH   1   3
BRANCH   2  19
HETATM   19  C11 UNL     1      41.853  24.868  52.039  1.00  0.00     0.154 C 
BRANCH  19  20
HETATM   20  C12 UNL     1      42.700  23.655  51.928  1.00  0.00     0.043 A 
HETATM   21  N5  UNL     1      42.375  22.571  51.195  1.00  0.00    -0.353 N 
HETATM   22  C13 UNL     1      43.350  21.645  51.297  1.00  0.00     0.183 A 
ATOM     23  H5  UNL     1      41.521  22.467  50.646  1.00  0.00     0.166 HD
HETATM   24  N6  UNL     1      44.337  22.126  52.112  1.00  0.00    -0.341 N 
HETATM   25  C21 UNL     1      43.917  23.346  52.482  1.00  0.00     0.032 A 
HETATM   26  C22 UNL     1      44.677  24.261  53.382  1.00  0.00     0.070 C 
BRANCH  24  27
HETATM   27  C14 UNL     1      45.542  21.394  52.449  1.00  0.00     0.168 C 
BRANCH  27  28
HETATM   28  C15 UNL     1      45.299  20.025  52.923  1.00  0.00    -0.040 A 
HETATM   29  C16 UNL     1      44.781  19.042  52.114  1.00  0.00     0.009 A 
HETATM   30  C17 UNL     1      44.569  17.764  52.611  1.00  0.00     0.001 A 
HETATM   31  C18 UNL     1      44.876  17.467  53.920  1.00  0.00     0.000 A 
HETATM   32  C19 UNL     1      45.399  18.436  54.758  1.00  0.00     0.001 A 
HETATM   33  C20 UNL     1      45.595  19.690  54.231  1.00  0.00     0.009 A 
ENDBRANCH  27  28
ENDBRANCH  24  27
ENDBRANCH  19  20
ENDBRANCH   2  19
TORSDOF 9
ENDMDL
MODEL 5
REMARK VINA RESULT: -7.845585472      1.326      2.207
REMARK  9 active torsions:
REMARK  status: ('A' for Active; 'I' for Inactive)
REMARK    1  A    between atoms: C2_2  and  N1_3 
REMARK    2  A    between atoms: C3_6  and  N3_7 
REMARK    3  A    between atoms: C4_12  and  C5_13 
REMARK    4  A    between atoms: C6_14  and  C7_15 
REMARK    5  A    between atoms: C8_16  and  C9_17 
REMARK    6  A    between atoms: C10_18  and  C11_19 
REMARK    7  A    between atoms: C11_19  and  C12_20 
REMARK    8  A    between atoms: N6_24  and  C14_25 
REMARK    9  A    between atoms: C14_25  and  C15_26 
ROOT
HETATM    1  C9  UNL     1      40.104  24.775  54.987  1.00  0.00    -0.014 C 
HETATM    2  C10 UNL     1      40.761  24.691  53.974  1.00  0.00    -0.086 C 
ENDROOT
BRANCH   1   3
HETATM    3  C8  UNL     1      39.342  24.850  56.182  1.00  0.00    -0.001 C 
HETATM    4  C7  UNL     1      38.703  24.928  57.215  1.00  0.00    -0.001 C 
BRANCH   4   5
HETATM    5  C6  UNL     1      37.972  25.041  58.423  1.00  0.00    -0.006 C 
HETATM    6  C5  UNL     1      37.348  25.159  59.468  1.00  0.00    -0.014 C 
BRANCH   6   7
HETATM    7  C4  UNL     1      36.625  25.318  60.699  1.00  0.00     0.194 A 
HETATM    8  N1  UNL     1      35.280  25.343  60.881  1.00  0.00    -0.255 N 
HETATM    9  N2  UNL     1      35.016  25.509  62.165  1.00  0.00    -0.128 N 
HETATM   10  C3  UNL     1      36.179  25.596  62.842  1.00  0.00     0.692 A 
ATOM     11  H2  UNL     1      34.084  25.563  62.578  1.00  0.00     0.206 HD
HETATM   12  N4  UNL     1      37.149  25.475  61.918  1.00  0.00    -0.166 N 
ATOM     13  H4  UNL     1      38.148  25.500  62.121  1.00  0.00     0.186 HD
BRANCH   8  14
HETATM   14  C2  UNL     1      34.289  25.208  59.831  1.00  0.00     0.147 C 
HETATM   15  C1  UNL     1      33.992  23.760  59.522  1.00  0.00     0.028 C 
ENDBRANCH   8  14
BRANCH  10  16
HETATM   16  N3  UNL     1      36.325  25.760  64.113  1.00  0.00    -0.233 N 
ATOM     17  H32 UNL     1      36.829  25.154  64.762  1.00  0.00     0.174 HD
ATOM     18  H31 UNL     1      35.955  26.524  64.678  1.00  0.00     0.174 HD
ENDBRANCH  10  16
ENDBRANCH   6   7
ENDBRANCH   4   5
ENDBRANCH   1   3
BRANCH   2  19
HETATM   19  C11 UNL     1      41.577  24.566  52.744  1.00  0.00     0.154 C 
BRANCH  19  20
HETATM   20  C12 UNL     1      42.807  23.780  53.013  1.00  0.00     0.043 A 
HETATM   21  N5  UNL     1      43.534  23.876  54.144  1.00  0.00    -0.353 N 
HETATM   22  C13 UNL     1      44.584  23.032  54.082  1.00  0.00     0.183 A 
ATOM     23  H5  UNL     1      43.322  24.493  54.928  1.00  0.00     0.166 HD
HETATM   24  N6  UNL     1      44.551  22.367  52.888  1.00  0.00    -0.341 N 
HETATM   25  C21 UNL     1      43.464  22.840  52.258  1.00  0.00     0.032 A 
HETATM   26  C22 UNL     1      43.018  22.400  50.905  1.00  0.00     0.070 C 
BRANCH  24  27
HETATM   27  C14 UNL     1      45.531  21.380  52.479  1.00  0.00     0.168 C 
BRANCH  27  28
HETATM   28  C15 UNL     1      45.219  20.011  52.911  1.00  0.00    -0.040 A 
HETATM   29  C16 UNL     1      44.401  19.175  52.188  1.00  0.00     0.009 A 
HETATM   30  C17 UNL     1      44.137  17.890  52.641  1.00  0.00     0.001 A 
HETATM   31  C18 UNL     1      44.691  17.439  53.817  1.00  0.00     0.000 A 
HETATM   32  C19 UNL     1      45.518  18.258  54.566  1.00  0.00     0.001 A 
HETATM   33  C20 UNL     1      45.758  19.523  54.087  1.00  0.00     0.009 A 
ENDBRANCH  27  28
ENDBRANCH  24  27
ENDBRANCH  19  20
ENDBRANCH   2  19
TORSDOF 9
ENDMDL
