MODEL 1
REMARK VINA RESULT: -7.423625380      0.000      0.000
REMARK  11 active torsions:
REMARK  status: ('A' for Active; 'I' for Inactive)
REMARK    1  A    between atoms: C3_3  and  N1_4 
REMARK       I    between atoms: N1_4  and  C4_6 
REMARK       I    between atoms: C4_6  and  N3_10 
REMARK    2  A    between atoms: N3_10  and  C5_12 
REMARK    3  A    between atoms: C5_12  and  C6_13 
REMARK    4  A    between atoms: C6_13  and  C7_14 
REMARK    5  A    between atoms: C7_14  and  C8_15 
REMARK    6  A    between atoms: C8_15  and  N4_16 
REMARK    7  A    between atoms: C9_18  and  N5_20 
REMARK    8  A    between atoms: N6_24  and  C14_25 
REMARK    9  A    between atoms: N7_28  and  C17_29 
REMARK   10  A    between atoms: C17_29  and  C18_30 
REMARK   11  A    between atoms: C18_30  and  O1_31 
ROOT
HETATM    1  C1  UNL     1      -1.675  13.990  15.002  1.00  0.00     0.014 C 
HETATM    2  C2  UNL     1      -1.379  13.767  16.150  1.00  0.00    -0.097 C 
HETATM    3  C3  UNL     1      -0.994  13.510  17.549  1.00  0.00     0.231 C 
ENDROOT
BRANCH   3   4
HETATM    4  N1  UNL     1      -1.380  14.618  18.409  1.00  0.00    -0.216 N 
HETATM    5  C4  UNL     1      -0.799  14.859  19.672  1.00  0.00     0.668 C 
HETATM    6  N2  UNL     1      -1.102  14.117  20.672  1.00  0.00    -0.235 N 
HETATM    7  N3  UNL     1       0.117  15.913  19.834  1.00  0.00    -0.227 N 
ATOM      8  H22 UNL     1      -1.767  13.353  20.554  1.00  0.00     0.174 HD
ATOM      9  H21 UNL     1      -0.682  14.292  21.585  1.00  0.00     0.174 HD
ATOM     10  H3  UNL     1       0.885  15.820  20.499  1.00  0.00     0.177 HD
ATOM     11  H1  UNL     1      -2.108  15.253  18.082  1.00  0.00     0.178 HD
BRANCH   7  12
HETATM   12  C5  UNL     1      -0.023  17.116  19.069  1.00  0.00     0.138 C 
BRANCH  12  13
HETATM   13  C6  UNL     1       0.950  18.187  19.416  1.00  0.00     0.022 C 
BRANCH  13  14
HETATM   14  C7  UNL     1       1.255  18.152  20.888  1.00  0.00     0.021 C 
BRANCH  14  15
HETATM   15  C8  UNL     1       1.766  19.460  21.413  1.00  0.00     0.121 C 
BRANCH  15  16
HETATM   16  N4  UNL     1       2.206  20.355  20.393  1.00  0.00    -0.380 N 
HETATM   17  C9  UNL     1       3.359  20.907  20.328  1.00  0.00     0.071 C 
HETATM   18  C10 UNL     1       4.379  20.642  21.366  1.00  0.00     0.088 C 
ATOM     19  H4  UNL     1       1.543  20.576  19.650  1.00  0.00     0.160 HD
BRANCH  17  20
HETATM   20  N5  UNL     1       3.606  21.765  19.229  1.00  0.00    -0.362 N 
HETATM   21  C11 UNL     1       4.719  22.661  19.373  1.00  0.00     0.126 C 
HETATM   22  C12 UNL     1       5.905  22.311  18.520  1.00  0.00     0.040 C 
HETATM   23  C13 UNL     1       5.556  22.529  17.045  1.00  0.00     0.128 C 
HETATM   24  N6  UNL     1       4.797  21.404  16.542  1.00  0.00    -0.337 N 
HETATM   25  C20 UNL     1       3.487  21.011  16.971  1.00  0.00     0.238 C 
HETATM   26  O3  UNL     1       2.924  20.049  16.388  1.00  0.00    -0.272 OA
HETATM   27  C21 UNL     1       2.724  21.662  18.073  1.00  0.00     0.227 C 
BRANCH  24  28
HETATM   28  C14 UNL     1       5.370  20.563  15.520  1.00  0.00     0.181 C 
HETATM   29  C15 UNL     1       6.850  20.335  15.675  1.00  0.00     0.055 C 
HETATM   30  C16 UNL     1       7.273  20.073  14.253  1.00  0.00     0.128 C 
HETATM   31  N7  UNL     1       6.442  20.943  13.468  1.00  0.00    -0.348 N 
HETATM   32  C19 UNL     1       5.270  21.238  14.196  1.00  0.00     0.242 C 
HETATM   33  O2  UNL     1       4.308  21.930  13.839  1.00  0.00    -0.271 OA
BRANCH  31  34
HETATM   34  C17 UNL     1       6.678  21.474  12.134  1.00  0.00     0.151 C 
BRANCH  34  35
HETATM   35  C18 UNL     1       7.979  20.910  11.610  1.00  0.00     0.183 C 
BRANCH  35  36
HETATM   36  O1  UNL     1       7.653  20.105  10.515  1.00  0.00    -0.399 OA
ATOM     37  H1  UNL     1       8.266  19.380  10.520  1.00  0.00     0.209 HD
ENDBRANCH  35  36
ENDBRANCH  34  35
ENDBRANCH  31  34
ENDBRANCH  24  28
ENDBRANCH  17  20
ENDBRANCH  15  16
ENDBRANCH  14  15
ENDBRANCH  13  14
ENDBRANCH  12  13
ENDBRANCH   7  12
ENDBRANCH   3   4
TORSDOF 11
ENDMDL
MODEL 2
REMARK VINA RESULT: -7.101954462      0.980      1.240
REMARK  11 active torsions:
REMARK  status: ('A' for Active; 'I' for Inactive)
REMARK    1  A    between atoms: C3_3  and  N1_4 
REMARK       I    between atoms: N1_4  and  C4_6 
REMARK       I    between atoms: C4_6  and  N3_10 
REMARK    2  A    between atoms: N3_10  and  C5_12 
REMARK    3  A    between atoms: C5_12  and  C6_13 
REMARK    4  A    between atoms: C6_13  and  C7_14 
REMARK    5  A    between atoms: C7_14  and  C8_15 
REMARK    6  A    between atoms: C8_15  and  N4_16 
REMARK    7  A    between atoms: C9_18  and  N5_20 
REMARK    8  A    between atoms: N6_24  and  C14_25 
REMARK    9  A    between atoms: N7_28  and  C17_29 
REMARK   10  A    between atoms: C17_29  and  C18_30 
REMARK   11  A    between atoms: C18_30  and  O1_31 
ROOT
HETATM    1  C1  UNL     1      -1.287  13.249  15.826  1.00  0.00     0.014 C 
HETATM    2  C2  UNL     1      -1.292  13.634  16.970  1.00  0.00    -0.097 C 
HETATM    3  C3  UNL     1      -1.271  14.099  18.368  1.00  0.00     0.231 C 
ENDROOT
BRANCH   3   4
HETATM    4  N1  UNL     1      -0.843  15.487  18.449  1.00  0.00    -0.216 N 
HETATM    5  C4  UNL     1      -1.698  16.579  18.186  1.00  0.00     0.668 C 
HETATM    6  N2  UNL     1      -2.029  16.862  16.981  1.00  0.00    -0.235 N 
HETATM    7  N3  UNL     1      -2.193  17.356  19.248  1.00  0.00    -0.227 N 
ATOM      8  H22 UNL     1      -1.670  16.298  16.210  1.00  0.00     0.174 HD
ATOM      9  H21 UNL     1      -2.647  17.651  16.792  1.00  0.00     0.174 HD
ATOM     10  H3  UNL     1      -3.123  17.769  19.185  1.00  0.00     0.177 HD
ATOM     11  H1  UNL     1       0.124  15.682  18.709  1.00  0.00     0.178 HD
BRANCH   7  12
HETATM   12  C5  UNL     1      -1.395  17.568  20.420  1.00  0.00     0.138 C 
BRANCH  12  13
HETATM   13  C6  UNL     1      -0.318  18.581  20.259  1.00  0.00     0.022 C 
BRANCH  13  14
HETATM   14  C7  UNL     1       1.019  17.971  20.575  1.00  0.00     0.021 C 
BRANCH  14  15
HETATM   15  C8  UNL     1       2.008  18.964  21.105  1.00  0.00     0.121 C 
BRANCH  15  16
HETATM   16  N4  UNL     1       2.410  19.941  20.146  1.00  0.00    -0.380 N 
HETATM   17  C9  UNL     1       3.439  20.697  20.235  1.00  0.00     0.071 C 
HETATM   18  C10 UNL     1       4.339  20.610  21.405  1.00  0.00     0.088 C 
ATOM     19  H4  UNL     1       1.826  20.047  19.317  1.00  0.00     0.160 HD
BRANCH  17  20
HETATM   20  N5  UNL     1       3.670  21.604  19.171  1.00  0.00    -0.362 N 
HETATM   21  C11 UNL     1       4.778  22.501  19.345  1.00  0.00     0.126 C 
HETATM   22  C12 UNL     1       5.959  22.197  18.467  1.00  0.00     0.040 C 
HETATM   23  C13 UNL     1       5.596  22.475  17.006  1.00  0.00     0.128 C 
HETATM   24  N6  UNL     1       4.841  21.366  16.461  1.00  0.00    -0.337 N 
HETATM   25  C20 UNL     1       3.538  20.945  16.884  1.00  0.00     0.238 C 
HETATM   26  O3  UNL     1       2.976  20.005  16.265  1.00  0.00    -0.272 OA
HETATM   27  C21 UNL     1       2.779  21.543  18.019  1.00  0.00     0.227 C 
BRANCH  24  28
HETATM   28  C14 UNL     1       5.412  20.574  15.400  1.00  0.00     0.181 C 
HETATM   29  C15 UNL     1       6.880  20.292  15.569  1.00  0.00     0.055 C 
HETATM   30  C16 UNL     1       7.326  20.107  14.142  1.00  0.00     0.128 C 
HETATM   31  N7  UNL     1       6.538  21.049  13.398  1.00  0.00    -0.348 N 
HETATM   32  C19 UNL     1       5.359  21.334  14.120  1.00  0.00     0.242 C 
HETATM   33  O2  UNL     1       4.426  22.075  13.788  1.00  0.00    -0.271 OA
BRANCH  31  34
HETATM   34  C17 UNL     1       6.818  21.655  12.105  1.00  0.00     0.151 C 
BRANCH  34  35
HETATM   35  C18 UNL     1       8.080  21.040  11.544  1.00  0.00     0.183 C 
BRANCH  35  36
HETATM   36  O1  UNL     1       7.676  20.060  10.633  1.00  0.00    -0.399 OA
ATOM     37  H1  UNL     1       7.632  19.244  11.116  1.00  0.00     0.209 HD
ENDBRANCH  35  36
ENDBRANCH  34  35
ENDBRANCH  31  34
ENDBRANCH  24  28
ENDBRANCH  17  20
ENDBRANCH  15  16
ENDBRANCH  14  15
ENDBRANCH  13  14
ENDBRANCH  12  13
ENDBRANCH   7  12
ENDBRANCH   3   4
TORSDOF 11
ENDMDL
MODEL 3
REMARK VINA RESULT: -7.083541282      1.287      1.706
REMARK  11 active torsions:
REMARK  status: ('A' for Active; 'I' for Inactive)
REMARK    1  A    between atoms: C3_3  and  N1_4 
REMARK       I    between atoms: N1_4  and  C4_6 
REMARK       I    between atoms: C4_6  and  N3_10 
REMARK    2  A    between atoms: N3_10  and  C5_12 
REMARK    3  A    between atoms: C5_12  and  C6_13 
REMARK    4  A    between atoms: C6_13  and  C7_14 
REMARK    5  A    between atoms: C7_14  and  C8_15 
REMARK    6  A    between atoms: C8_15  and  N4_16 
REMARK    7  A    between atoms: C9_18  and  N5_20 
REMARK    8  A    between atoms: N6_24  and  C14_25 
REMARK    9  A    between atoms: N7_28  and  C17_29 
REMARK   10  A    between atoms: C17_29  and  C18_30 
REMARK   11  A    between atoms: C18_30  and  O1_31 
ROOT
HETATM    1  C1  UNL     1      -0.229  14.155  18.954  1.00  0.00     0.014 C 
HETATM    2  C2  UNL     1      -1.005  14.618  18.155  1.00  0.00    -0.097 C 
HETATM    3  C3  UNL     1      -1.969  15.194  17.200  1.00  0.00     0.231 C 
ENDROOT
BRANCH   3   4
HETATM    4  N1  UNL     1      -1.670  16.594  16.938  1.00  0.00    -0.216 N 
HETATM    5  C4  UNL     1      -2.222  17.657  17.684  1.00  0.00     0.668 C 
HETATM    6  N2  UNL     1      -3.445  17.996  17.512  1.00  0.00    -0.235 N 
HETATM    7  N3  UNL     1      -1.429  18.344  18.621  1.00  0.00    -0.227 N 
ATOM      8  H22 UNL     1      -4.020  17.498  16.833  1.00  0.00     0.174 HD
ATOM      9  H21 UNL     1      -3.843  18.765  18.052  1.00  0.00     0.174 HD
ATOM     10  H3  UNL     1      -1.854  18.716  19.470  1.00  0.00     0.177 HD
ATOM     11  H1  UNL     1      -1.028  16.818  16.177  1.00  0.00     0.178 HD
BRANCH   7  12
HETATM   12  C5  UNL     1      -0.026  18.522  18.387  1.00  0.00     0.138 C 
BRANCH  12  13
HETATM   13  C6  UNL     1       0.856  17.787  19.333  1.00  0.00     0.022 C 
BRANCH  13  14
HETATM   14  C7  UNL     1       0.668  18.310  20.730  1.00  0.00     0.021 C 
BRANCH  14  15
HETATM   15  C8  UNL     1       1.803  19.173  21.192  1.00  0.00     0.121 C 
BRANCH  15  16
HETATM   16  N4  UNL     1       2.241  20.116  20.214  1.00  0.00    -0.380 N 
HETATM   17  C9  UNL     1       3.335  20.779  20.252  1.00  0.00     0.071 C 
HETATM   18  C10 UNL     1       4.280  20.607  21.376  1.00  0.00     0.088 C 
ATOM     19  H4  UNL     1       1.628  20.277  19.415  1.00  0.00     0.160 HD
BRANCH  17  20
HETATM   20  N5  UNL     1       3.592  21.667  19.178  1.00  0.00    -0.362 N 
HETATM   21  C11 UNL     1       4.707  22.553  19.355  1.00  0.00     0.126 C 
HETATM   22  C12 UNL     1       5.898  22.223  18.499  1.00  0.00     0.040 C 
HETATM   23  C13 UNL     1       5.560  22.483  17.029  1.00  0.00     0.128 C 
HETATM   24  N6  UNL     1       4.799  21.375  16.490  1.00  0.00    -0.337 N 
HETATM   25  C20 UNL     1       3.485  20.975  16.900  1.00  0.00     0.238 C 
HETATM   26  O3  UNL     1       2.922  20.032  16.287  1.00  0.00    -0.272 OA
HETATM   27  C21 UNL     1       2.718  21.599  18.015  1.00  0.00     0.227 C 
BRANCH  24  28
HETATM   28  C14 UNL     1       5.376  20.561  15.448  1.00  0.00     0.181 C 
HETATM   29  C15 UNL     1       6.844  20.283  15.632  1.00  0.00     0.055 C 
HETATM   30  C16 UNL     1       7.298  20.067  14.212  1.00  0.00     0.128 C 
HETATM   31  N7  UNL     1       6.513  20.993  13.443  1.00  0.00    -0.348 N 
HETATM   32  C19 UNL     1       5.330  21.293  14.153  1.00  0.00     0.242 C 
HETATM   33  O2  UNL     1       4.399  22.026  13.800  1.00  0.00    -0.271 OA
BRANCH  31  34
HETATM   34  C17 UNL     1       6.800  21.572  12.139  1.00  0.00     0.151 C 
BRANCH  34  35
HETATM   35  C18 UNL     1       8.067  20.947  11.599  1.00  0.00     0.183 C 
BRANCH  35  36
HETATM   36  O1  UNL     1       7.678  20.067  10.586  1.00  0.00    -0.399 OA
ATOM     37  H1  UNL     1       8.120  19.244  10.757  1.00  0.00     0.209 HD
ENDBRANCH  35  36
ENDBRANCH  34  35
ENDBRANCH  31  34
ENDBRANCH  24  28
ENDBRANCH  17  20
ENDBRANCH  15  16
ENDBRANCH  14  15
ENDBRANCH  13  14
ENDBRANCH  12  13
ENDBRANCH   7  12
ENDBRANCH   3   4
TORSDOF 11
ENDMDL
MODEL 4
REMARK VINA RESULT: -6.893020018      1.220      1.678
REMARK  11 active torsions:
REMARK  status: ('A' for Active; 'I' for Inactive)
REMARK    1  A    between atoms: C3_3  and  N1_4 
REMARK       I    between atoms: N1_4  and  C4_6 
REMARK       I    between atoms: C4_6  and  N3_10 
REMARK    2  A    between atoms: N3_10  and  C5_12 
REMARK    3  A    between atoms: C5_12  and  C6_13 
REMARK    4  A    between atoms: C6_13  and  C7_14 
REMARK    5  A    between atoms: C7_14  and  C8_15 
REMARK    6  A    between atoms: C8_15  and  N4_16 
REMARK    7  A    between atoms: C9_18  and  N5_20 
REMARK    8  A    between atoms: N6_24  and  C14_25 
REMARK    9  A    between atoms: N7_28  and  C17_29 
REMARK   10  A    between atoms: C17_29  and  C18_30 
REMARK   11  A    between atoms: C18_30  and  O1_31 
ROOT
HETATM    1  C1  UNL     1      -1.289  13.627  16.913  1.00  0.00     0.014 C 
HETATM    2  C2  UNL     1      -1.452  14.807  17.106  1.00  0.00    -0.097 C 
HETATM    3  C3  UNL     1      -1.668  16.242  17.363  1.00  0.00     0.231 C 
ENDROOT
BRANCH   3   4
HETATM    4  N1  UNL     1      -0.776  16.725  18.405  1.00  0.00    -0.216 N 
HETATM    5  C4  UNL     1      -0.379  18.074  18.522  1.00  0.00     0.668 C 
HETATM    6  N2  UNL     1       0.479  18.566  17.707  1.00  0.00    -0.235 N 
HETATM    7  N3  UNL     1      -0.928  18.884  19.532  1.00  0.00    -0.227 N 
ATOM      8  H22 UNL     1       0.878  17.978  16.975  1.00  0.00     0.174 HD
ATOM      9  H21 UNL     1       0.766  19.541  17.792  1.00  0.00     0.174 HD
ATOM     10  H3  UNL     1      -1.076  19.878  19.362  1.00  0.00     0.177 HD
ATOM     11  H1  UNL     1      -0.419  16.055  19.086  1.00  0.00     0.178 HD
BRANCH   7  12
HETATM   12  C5  UNL     1      -1.283  18.316  20.799  1.00  0.00     0.138 C 
BRANCH  12  13
HETATM   13  C6  UNL     1      -0.132  18.073  21.711  1.00  0.00     0.022 C 
BRANCH  13  14
HETATM   14  C7  UNL     1       0.757  19.284  21.757  1.00  0.00     0.021 C 
BRANCH  14  15
HETATM   15  C8  UNL     1       2.113  19.039  21.166  1.00  0.00     0.121 C 
BRANCH  15  16
HETATM   16  N4  UNL     1       2.493  20.002  20.183  1.00  0.00    -0.380 N 
HETATM   17  C9  UNL     1       3.487  20.803  20.267  1.00  0.00     0.071 C 
HETATM   18  C10 UNL     1       4.366  20.791  21.457  1.00  0.00     0.088 C 
ATOM     19  H4  UNL     1       1.922  20.056  19.340  1.00  0.00     0.160 HD
BRANCH  17  20
HETATM   20  N5  UNL     1       3.702  21.685  19.179  1.00  0.00    -0.362 N 
HETATM   21  C11 UNL     1       4.810  22.588  19.317  1.00  0.00     0.126 C 
HETATM   22  C12 UNL     1       5.981  22.267  18.433  1.00  0.00     0.040 C 
HETATM   23  C13 UNL     1       5.599  22.509  16.969  1.00  0.00     0.128 C 
HETATM   24  N6  UNL     1       4.839  21.385  16.461  1.00  0.00    -0.337 N 
HETATM   25  C20 UNL     1       3.543  20.971  16.911  1.00  0.00     0.238 C 
HETATM   26  O3  UNL     1       2.977  20.015  16.322  1.00  0.00    -0.272 OA
HETATM   27  C21 UNL     1       2.798  21.594  18.041  1.00  0.00     0.227 C 
BRANCH  24  28
HETATM   28  C14 UNL     1       5.399  20.570  15.412  1.00  0.00     0.181 C 
HETATM   29  C15 UNL     1       6.871  20.295  15.570  1.00  0.00     0.055 C 
HETATM   30  C16 UNL     1       7.299  20.077  14.142  1.00  0.00     0.128 C 
HETATM   31  N7  UNL     1       6.500  21.000  13.386  1.00  0.00    -0.348 N 
HETATM   32  C19 UNL     1       5.330  21.299  14.115  1.00  0.00     0.242 C 
HETATM   33  O2  UNL     1       4.391  22.030  13.778  1.00  0.00    -0.271 OA
BRANCH  31  34
HETATM   34  C17 UNL     1       6.763  21.576  12.075  1.00  0.00     0.151 C 
BRANCH  34  35
HETATM   35  C18 UNL     1       8.040  20.979  11.530  1.00  0.00     0.183 C 
BRANCH  35  36
HETATM   36  O1  UNL     1       7.663  20.039  10.567  1.00  0.00    -0.399 OA
ATOM     37  H1  UNL     1       7.206  20.518   9.886  1.00  0.00     0.209 HD
ENDBRANCH  35  36
ENDBRANCH  34  35
ENDBRANCH  31  34
ENDBRANCH  24  28
ENDBRANCH  17  20
ENDBRANCH  15  16
ENDBRANCH  14  15
ENDBRANCH  13  14
ENDBRANCH  12  13
ENDBRANCH   7  12
ENDBRANCH   3   4
TORSDOF 11
ENDMDL
MODEL 5
REMARK VINA RESULT: -6.837456098      1.430      1.673
REMARK  11 active torsions:
REMARK  status: ('A' for Active; 'I' for Inactive)
REMARK    1  A    between atoms: C3_3  and  N1_4 
REMARK       I    between atoms: N1_4  and  C4_6 
REMARK       I    between atoms: C4_6  and  N3_10 
REMARK    2  A    between atoms: N3_10  and  C5_12 
REMARK    3  A    between atoms: C5_12  and  C6_13 
REMARK    4  A    between atoms: C6_13  and  C7_14 
REMARK    5  A    between atoms: C7_14  and  C8_15 
REMARK    6  A    between atoms: C8_15  and  N4_16 
REMARK    7  A    between atoms: C9_18  and  N5_20 
REMARK    8  A    between atoms: N6_24  and  C14_25 
REMARK    9  A    between atoms: N7_28  and  C17_29 
REMARK   10  A    between atoms: C17_29  and  C18_30 
REMARK   11  A    between atoms: C18_30  and  O1_31 
ROOT
HETATM    1  C1  UNL     1      -1.270  13.316  15.817  1.00  0.00     0.014 C 
HETATM    2  C2  UNL     1      -1.292  13.698  16.961  1.00  0.00    -0.097 C 
HETATM    3  C3  UNL     1      -1.291  14.161  18.360  1.00  0.00     0.231 C 
ENDROOT
BRANCH   3   4
HETATM    4  N1  UNL     1      -0.898  15.559  18.446  1.00  0.00    -0.216 N 
HETATM    5  C4  UNL     1      -1.782  16.630  18.197  1.00  0.00     0.668 C 
HETATM    6  N2  UNL     1      -2.128  16.913  16.997  1.00  0.00    -0.235 N 
HETATM    7  N3  UNL     1      -2.287  17.388  19.268  1.00  0.00    -0.227 N 
ATOM      8  H22 UNL     1      -1.761  16.363  16.219  1.00  0.00     0.174 HD
ATOM      9  H21 UNL     1      -2.767  17.687  16.817  1.00  0.00     0.174 HD
ATOM     10  H3  UNL     1      -3.228  17.779  19.214  1.00  0.00     0.177 HD
ATOM     11  H1  UNL     1       0.066  15.776  18.701  1.00  0.00     0.178 HD
BRANCH   7  12
HETATM   12  C5  UNL     1      -1.487  17.613  20.435  1.00  0.00     0.138 C 
BRANCH  12  13
HETATM   13  C6  UNL     1      -0.462  18.681  20.286  1.00  0.00     0.022 C 
BRANCH  13  14
HETATM   14  C7  UNL     1       0.621  18.507  21.313  1.00  0.00     0.021 C 
BRANCH  14  15
HETATM   15  C8  UNL     1       1.986  18.366  20.709  1.00  0.00     0.121 C 
BRANCH  15  16
HETATM   16  N4  UNL     1       2.372  19.475  19.898  1.00  0.00    -0.380 N 
HETATM   17  C9  UNL     1       3.307  20.307  20.165  1.00  0.00     0.071 C 
HETATM   18  C10 UNL     1       4.102  20.174  21.406  1.00  0.00     0.088 C 
ATOM     19  H4  UNL     1       1.858  19.618  19.029  1.00  0.00     0.160 HD
BRANCH  17  20
HETATM   20  N5  UNL     1       3.541  21.342  19.226  1.00  0.00    -0.362 N 
HETATM   21  C11 UNL     1       4.649  22.209  19.515  1.00  0.00     0.126 C 
HETATM   22  C12 UNL     1       5.832  22.018  18.609  1.00  0.00     0.040 C 
HETATM   23  C13 UNL     1       5.472  22.481  17.194  1.00  0.00     0.128 C 
HETATM   24  N6  UNL     1       4.717  21.451  16.511  1.00  0.00    -0.337 N 
HETATM   25  C20 UNL     1       3.413  20.981  16.874  1.00  0.00     0.238 C 
HETATM   26  O3  UNL     1       2.852  20.128  16.139  1.00  0.00    -0.272 OA
HETATM   27  C21 UNL     1       2.653  21.430  18.075  1.00  0.00     0.227 C 
BRANCH  24  28
HETATM   28  C14 UNL     1       5.290  20.801  15.358  1.00  0.00     0.181 C 
HETATM   29  C15 UNL     1       6.657  20.220  15.600  1.00  0.00     0.055 C 
HETATM   30  C16 UNL     1       7.255  20.251  14.217  1.00  0.00     0.128 C 
HETATM   31  N7  UNL     1       6.737  21.456  13.633  1.00  0.00    -0.348 N 
HETATM   32  C19 UNL     1       5.534  21.803  14.284  1.00  0.00     0.242 C 
HETATM   33  O2  UNL     1       4.787  22.758  14.039  1.00  0.00    -0.271 OA
BRANCH  31  34
HETATM   34  C17 UNL     1       7.284  22.251  12.543  1.00  0.00     0.151 C 
BRANCH  34  35
HETATM   35  C18 UNL     1       8.676  22.702  12.922  1.00  0.00     0.183 C 
BRANCH  35  36
HETATM   36  O1  UNL     1       8.530  23.608  13.976  1.00  0.00    -0.399 OA
ATOM     37  H1  UNL     1       8.482  23.093  14.772  1.00  0.00     0.209 HD
ENDBRANCH  35  36
ENDBRANCH  34  35
ENDBRANCH  31  34
ENDBRANCH  24  28
ENDBRANCH  17  20
ENDBRANCH  15  16
ENDBRANCH  14  15
ENDBRANCH  13  14
ENDBRANCH  12  13
ENDBRANCH   7  12
ENDBRANCH   3   4
TORSDOF 11
ENDMDL
