MODEL 1
REMARK VINA RESULT: -7.213871195      0.000      0.000
REMARK  9 active torsions:
REMARK  status: ('A' for Active; 'I' for Inactive)
REMARK    1  A    between atoms: C2_2  and  C3_3 
REMARK    2  A    between atoms: C3_3  and  N1_4 
REMARK    3  A    between atoms: C7_8  and  C8_9 
REMARK       I    between atoms: C8_9  and  N2_11 
REMARK    4  A    between atoms: C12_15  and  C13_16 
REMARK       I    between atoms: C13_16  and  N3_18 
REMARK    5  A    between atoms: C14_20  and  C15_22 
REMARK    6  A    between atoms: C15_22  and  C16_23 
REMARK    7  A    between atoms: C16_23  and  C17_24 
REMARK    8  A    between atoms: C17_24  and  C18_25 
REMARK    9  A    between atoms: C18_25  and  N5_26 
ROOT
HETATM    1  C8  UNL     1       3.377  21.291  17.951  1.00  0.00     0.225 C 
HETATM    2  O1  UNL     1       2.240  20.954  17.567  1.00  0.00    -0.273 OA
HETATM    3  N2  UNL     1       3.717  21.375  19.287  1.00  0.00    -0.338 N 
HETATM    4  C9  UNL     1       5.115  21.769  19.690  1.00  0.00     0.127 C 
HETATM    5  C10 UNL     1       4.955  22.484  20.995  1.00  0.00     0.022 C 
HETATM    6  C11 UNL     1       3.464  22.556  21.187  1.00  0.00     0.037 C 
HETATM    7  C12 UNL     1       3.073  21.189  20.513  1.00  0.00     0.179 C 
ENDROOT
BRANCH   7   8
HETATM    8  C13 UNL     1       1.663  20.963  20.678  1.00  0.00     0.245 C 
HETATM    9  O2  UNL     1       0.773  21.597  20.093  1.00  0.00    -0.271 OA
HETATM   10  N3  UNL     1       1.158  19.940  21.575  1.00  0.00    -0.317 N 
HETATM   11  C14 UNL     1       0.956  18.712  21.133  1.00  0.00     0.095 C 
ATOM     12  H3  UNL     1       0.958  20.170  22.548  1.00  0.00     0.169 HD
HETATM   13  N4  UNL     1       0.467  17.815  22.099  1.00  0.00    -0.087 NA
BRANCH  11  14
HETATM   14  C15 UNL     1       1.239  18.368  19.737  1.00  0.00     0.073 C 
BRANCH  14  15
HETATM   15  C16 UNL     1       0.555  17.137  19.284  1.00  0.00     0.009 C 
BRANCH  15  16
HETATM   16  C17 UNL     1      -0.618  17.241  18.397  1.00  0.00     0.020 C 
BRANCH  16  17
HETATM   17  C18 UNL     1      -1.522  16.057  18.322  1.00  0.00     0.122 C 
BRANCH  17  18
HETATM   18  N5  UNL     1      -1.352  15.146  17.252  1.00  0.00    -0.367 N 
HETATM   19  C19 UNL     1      -1.343  13.861  17.326  1.00  0.00     0.196 C 
HETATM   20  N6  UNL     1      -1.515  13.185  18.564  1.00  0.00    -0.067 NA
HETATM   21  N7  UNL     1      -1.155  13.130  16.133  1.00  0.00    -0.067 NA
ATOM     22  H5  UNL     1      -1.224  15.551  16.325  1.00  0.00     0.161 HD
ENDBRANCH  17  18
ENDBRANCH  16  17
ENDBRANCH  15  16
ENDBRANCH  14  15
ENDBRANCH  11  14
ENDBRANCH   7   8
BRANCH   1  23
HETATM   23  C7  UNL     1       4.328  21.592  16.811  1.00  0.00     0.087 C 
HETATM   24  C6  UNL     1       3.633  22.459  15.790  1.00  0.00     0.016 C 
HETATM   25  C5  UNL     1       2.870  21.661  14.765  1.00  0.00     0.021 C 
HETATM   26  C4  UNL     1       3.684  21.534  13.468  1.00  0.00     0.126 C 
HETATM   27  N1  UNL     1       5.060  21.245  13.758  1.00  0.00    -0.349 N 
HETATM   28  C21 UNL     1       5.613  20.733  14.949  1.00  0.00     0.220 C 
HETATM   29  C20 UNL     1       4.891  20.345  16.194  1.00  0.00     0.117 C 
HETATM   30  O3  UNL     1       6.871  20.594  14.944  1.00  0.00    -0.273 OA
BRANCH  27  31
HETATM   31  C3  UNL     1       5.952  21.540  12.632  1.00  0.00     0.152 C 
BRANCH  31  32
HETATM   32  C2  UNL     1       5.126  21.395  11.385  1.00  0.00    -0.017 C 
HETATM   33  C1  UNL     1       5.570  20.781  10.307  1.00  0.00     0.008 C 
ENDBRANCH  31  32
ENDBRANCH  27  31
ENDBRANCH   1  23
TORSDOF 9
ENDMDL
MODEL 2
REMARK VINA RESULT: -6.972132011      1.456      1.853
REMARK  9 active torsions:
REMARK  status: ('A' for Active; 'I' for Inactive)
REMARK    1  A    between atoms: C2_2  and  C3_3 
REMARK    2  A    between atoms: C3_3  and  N1_4 
REMARK    3  A    between atoms: C7_8  and  C8_9 
REMARK       I    between atoms: C8_9  and  N2_11 
REMARK    4  A    between atoms: C12_15  and  C13_16 
REMARK       I    between atoms: C13_16  and  N3_18 
REMARK    5  A    between atoms: C14_20  and  C15_22 
REMARK    6  A    between atoms: C15_22  and  C16_23 
REMARK    7  A    between atoms: C16_23  and  C17_24 
REMARK    8  A    between atoms: C17_24  and  C18_25 
REMARK    9  A    between atoms: C18_25  and  N5_26 
ROOT
HETATM    1  C8  UNL     1       3.689  21.301  17.767  1.00  0.00     0.225 C 
HETATM    2  O1  UNL     1       2.571  20.907  17.382  1.00  0.00    -0.273 OA
HETATM    3  N2  UNL     1       4.005  21.450  19.103  1.00  0.00    -0.338 N 
HETATM    4  C9  UNL     1       5.382  21.912  19.508  1.00  0.00     0.127 C 
HETATM    5  C10 UNL     1       5.176  22.671  20.782  1.00  0.00     0.022 C 
HETATM    6  C11 UNL     1       3.681  22.694  20.951  1.00  0.00     0.037 C 
HETATM    7  C12 UNL     1       3.350  21.288  20.327  1.00  0.00     0.179 C 
ENDROOT
BRANCH   7   8
HETATM    8  C13 UNL     1       1.948  21.016  20.481  1.00  0.00     0.245 C 
HETATM    9  O2  UNL     1       1.040  21.649  19.924  1.00  0.00    -0.271 OA
HETATM   10  N3  UNL     1       1.473  19.941  21.334  1.00  0.00    -0.317 N 
HETATM   11  C14 UNL     1       1.305  18.729  20.840  1.00  0.00     0.095 C 
ATOM     12  H3  UNL     1       1.268  20.124  22.316  1.00  0.00     0.169 HD
HETATM   13  N4  UNL     1       0.842  17.777  21.766  1.00  0.00    -0.087 NA
BRANCH  11  14
HETATM   14  C15 UNL     1       1.596  18.453  19.429  1.00  0.00     0.073 C 
BRANCH  14  15
HETATM   15  C16 UNL     1       0.385  18.192  18.620  1.00  0.00     0.009 C 
BRANCH  15  16
HETATM   16  C17 UNL     1      -0.242  16.859  18.659  1.00  0.00     0.020 C 
BRANCH  16  17
HETATM   17  C18 UNL     1      -1.343  16.595  17.689  1.00  0.00     0.122 C 
BRANCH  17  18
HETATM   18  N5  UNL     1      -2.080  17.696  17.189  1.00  0.00    -0.367 N 
HETATM   19  C19 UNL     1      -3.144  18.209  17.701  1.00  0.00     0.196 C 
HETATM   20  N6  UNL     1      -3.722  17.693  18.891  1.00  0.00    -0.067 NA
HETATM   21  N7  UNL     1      -3.731  19.310  17.040  1.00  0.00    -0.067 NA
ATOM     22  H5  UNL     1      -1.730  18.128  16.334  1.00  0.00     0.161 HD
ENDBRANCH  17  18
ENDBRANCH  16  17
ENDBRANCH  15  16
ENDBRANCH  14  15
ENDBRANCH  11  14
ENDBRANCH   7   8
BRANCH   1  23
HETATM   23  C7  UNL     1       4.645  21.593  16.629  1.00  0.00     0.087 C 
HETATM   24  C6  UNL     1       3.951  22.445  15.593  1.00  0.00     0.016 C 
HETATM   25  C5  UNL     1       3.198  21.631  14.574  1.00  0.00     0.021 C 
HETATM   26  C4  UNL     1       4.019  21.493  13.283  1.00  0.00     0.126 C 
HETATM   27  N1  UNL     1       5.394  21.213  13.584  1.00  0.00    -0.349 N 
HETATM   28  C21 UNL     1       5.944  20.718  14.784  1.00  0.00     0.220 C 
HETATM   29  C20 UNL     1       5.216  20.341  16.029  1.00  0.00     0.117 C 
HETATM   30  O3  UNL     1       7.202  20.584  14.787  1.00  0.00    -0.273 OA
BRANCH  27  31
HETATM   31  C3  UNL     1       6.292  21.500  12.460  1.00  0.00     0.152 C 
BRANCH  31  32
HETATM   32  C2  UNL     1       5.469  21.350  11.210  1.00  0.00    -0.017 C 
HETATM   33  C1  UNL     1       5.869  20.635  10.178  1.00  0.00     0.008 C 
ENDBRANCH  31  32
ENDBRANCH  27  31
ENDBRANCH   1  23
TORSDOF 9
ENDMDL
MODEL 3
REMARK VINA RESULT: -6.964939068      1.730      2.023
REMARK  9 active torsions:
REMARK  status: ('A' for Active; 'I' for Inactive)
REMARK    1  A    between atoms: C2_2  and  C3_3 
REMARK    2  A    between atoms: C3_3  and  N1_4 
REMARK    3  A    between atoms: C7_8  and  C8_9 
REMARK       I    between atoms: C8_9  and  N2_11 
REMARK    4  A    between atoms: C12_15  and  C13_16 
REMARK       I    between atoms: C13_16  and  N3_18 
REMARK    5  A    between atoms: C14_20  and  C15_22 
REMARK    6  A    between atoms: C15_22  and  C16_23 
REMARK    7  A    between atoms: C16_23  and  C17_24 
REMARK    8  A    between atoms: C17_24  and  C18_25 
REMARK    9  A    between atoms: C18_25  and  N5_26 
ROOT
HETATM    1  C8  UNL     1       3.226  20.533  16.718  1.00  0.00     0.225 C 
HETATM    2  O1  UNL     1       2.465  19.936  15.932  1.00  0.00    -0.273 OA
HETATM    3  N2  UNL     1       3.027  20.540  18.085  1.00  0.00    -0.338 N 
HETATM    4  C9  UNL     1       3.994  21.263  18.988  1.00  0.00     0.127 C 
HETATM    5  C10 UNL     1       3.167  21.729  20.145  1.00  0.00     0.022 C 
HETATM    6  C11 UNL     1       1.763  21.345  19.765  1.00  0.00     0.037 C 
HETATM    7  C12 UNL     1       2.086  20.021  18.978  1.00  0.00     0.179 C 
ENDROOT
BRANCH   7   8
HETATM    8  C13 UNL     1       0.856  19.380  18.599  1.00  0.00     0.245 C 
HETATM    9  O2  UNL     1       0.779  18.302  17.993  1.00  0.00    -0.271 OA
HETATM   10  N3  UNL     1      -0.433  19.971  18.907  1.00  0.00    -0.317 N 
HETATM   11  C14 UNL     1      -1.036  19.689  20.047  1.00  0.00     0.095 C 
ATOM     12  H3  UNL     1      -0.875  20.605  18.241  1.00  0.00     0.169 HD
HETATM   13  N4  UNL     1      -2.277  20.324  20.228  1.00  0.00    -0.087 NA
BRANCH  11  14
HETATM   14  C15 UNL     1      -0.411  18.779  21.013  1.00  0.00     0.073 C 
BRANCH  14  15
HETATM   15  C16 UNL     1      -1.201  17.552  21.260  1.00  0.00     0.009 C 
BRANCH  15  16
HETATM   16  C17 UNL     1      -1.696  16.764  20.117  1.00  0.00     0.020 C 
BRANCH  16  17
HETATM   17  C18 UNL     1      -0.764  15.761  19.526  1.00  0.00     0.122 C 
BRANCH  17  18
HETATM   18  N5  UNL     1      -0.884  15.459  18.149  1.00  0.00    -0.367 N 
HETATM   19  C19 UNL     1      -1.213  14.326  17.632  1.00  0.00     0.196 C 
HETATM   20  N6  UNL     1      -1.509  13.197  18.441  1.00  0.00    -0.067 NA
HETATM   21  N7  UNL     1      -1.272  14.233  16.225  1.00  0.00    -0.067 NA
ATOM     22  H5  UNL     1      -0.690  16.219  17.497  1.00  0.00     0.161 HD
ENDBRANCH  17  18
ENDBRANCH  16  17
ENDBRANCH  15  16
ENDBRANCH  14  15
ENDBRANCH  11  14
ENDBRANCH   7   8
BRANCH   1  23
HETATM   23  C7  UNL     1       4.372  21.238  16.022  1.00  0.00     0.087 C 
HETATM   24  C6  UNL     1       3.829  22.115  14.920  1.00  0.00     0.016 C 
HETATM   25  C5  UNL     1       3.665  21.381  13.615  1.00  0.00     0.021 C 
HETATM   26  C4  UNL     1       4.847  21.676  12.679  1.00  0.00     0.126 C 
HETATM   27  N1  UNL     1       6.088  21.635  13.400  1.00  0.00    -0.349 N 
HETATM   28  C21 UNL     1       6.354  21.038  14.649  1.00  0.00     0.220 C 
HETATM   29  C20 UNL     1       5.407  20.278  15.513  1.00  0.00     0.117 C 
HETATM   30  O3  UNL     1       7.540  21.172  15.069  1.00  0.00    -0.273 OA
BRANCH  27  31
HETATM   31  C3  UNL     1       7.177  22.320  12.696  1.00  0.00     0.152 C 
BRANCH  31  32
HETATM   32  C2  UNL     1       7.361  21.596  11.391  1.00  0.00    -0.017 C 
HETATM   33  C1  UNL     1       8.155  20.553  11.264  1.00  0.00     0.008 C 
ENDBRANCH  31  32
ENDBRANCH  27  31
ENDBRANCH   1  23
TORSDOF 9
ENDMDL
MODEL 4
REMARK VINA RESULT: -6.897752683      1.927      2.485
REMARK  9 active torsions:
REMARK  status: ('A' for Active; 'I' for Inactive)
REMARK    1  A    between atoms: C2_2  and  C3_3 
REMARK    2  A    between atoms: C3_3  and  N1_4 
REMARK    3  A    between atoms: C7_8  and  C8_9 
REMARK       I    between atoms: C8_9  and  N2_11 
REMARK    4  A    between atoms: C12_15  and  C13_16 
REMARK       I    between atoms: C13_16  and  N3_18 
REMARK    5  A    between atoms: C14_20  and  C15_22 
REMARK    6  A    between atoms: C15_22  and  C16_23 
REMARK    7  A    between atoms: C16_23  and  C17_24 
REMARK    8  A    between atoms: C17_24  and  C18_25 
REMARK    9  A    between atoms: C18_25  and  N5_26 
ROOT
HETATM    1  C8  UNL     1       1.316  20.898  18.441  1.00  0.00     0.225 C 
HETATM    2  O1  UNL     1       0.918  19.850  17.897  1.00  0.00    -0.273 OA
HETATM    3  N2  UNL     1       0.712  21.428  19.565  1.00  0.00    -0.338 N 
HETATM    4  C9  UNL     1       1.250  22.690  20.191  1.00  0.00     0.127 C 
HETATM    5  C10 UNL     1       0.056  23.365  20.788  1.00  0.00     0.022 C 
HETATM    6  C11 UNL     1      -1.100  22.504  20.356  1.00  0.00     0.037 C 
HETATM    7  C12 UNL     1      -0.376  21.107  20.381  1.00  0.00     0.179 C 
ENDROOT
BRANCH   7   8
HETATM    8  C13 UNL     1      -1.332  20.069  20.109  1.00  0.00     0.245 C 
HETATM    9  O2  UNL     1      -1.930  19.924  19.033  1.00  0.00    -0.271 OA
HETATM   10  N3  UNL     1      -1.684  19.080  21.111  1.00  0.00    -0.317 N 
HETATM   11  C14 UNL     1      -0.999  17.954  21.200  1.00  0.00     0.095 C 
ATOM     12  H3  UNL     1      -2.461  19.254  21.748  1.00  0.00     0.169 HD
HETATM   13  N4  UNL     1      -1.437  17.079  22.210  1.00  0.00    -0.087 NA
BRANCH  11  14
HETATM   14  C15 UNL     1       0.121  17.692  20.291  1.00  0.00     0.073 C 
BRANCH  14  15
HETATM   15  C16 UNL     1      -0.160  16.623  19.307  1.00  0.00     0.009 C 
BRANCH  15  16
HETATM   16  C17 UNL     1      -0.908  16.943  18.078  1.00  0.00     0.020 C 
BRANCH  16  17
HETATM   17  C18 UNL     1      -2.047  16.049  17.721  1.00  0.00     0.122 C 
BRANCH  17  18
HETATM   18  N5  UNL     1      -1.837  15.046  16.746  1.00  0.00    -0.367 N 
HETATM   19  C19 UNL     1      -1.498  13.821  16.956  1.00  0.00     0.196 C 
HETATM   20  N6  UNL     1      -1.291  13.322  18.269  1.00  0.00    -0.067 NA
HETATM   21  N7  UNL     1      -1.335  12.977  15.837  1.00  0.00    -0.067 NA
ATOM     22  H5  UNL     1      -1.967  15.322  15.772  1.00  0.00     0.161 HD
ENDBRANCH  17  18
ENDBRANCH  16  17
ENDBRANCH  15  16
ENDBRANCH  14  15
ENDBRANCH  11  14
ENDBRANCH   7   8
BRANCH   1  23
HETATM   23  C7  UNL     1       2.511  21.517  17.747  1.00  0.00     0.087 C 
HETATM   24  C6  UNL     1       2.079  22.098  16.422  1.00  0.00     0.016 C 
HETATM   25  C5  UNL     1       2.118  21.092  15.301  1.00  0.00     0.021 C 
HETATM   26  C4  UNL     1       3.398  21.264  14.468  1.00  0.00     0.126 C 
HETATM   27  N1  UNL     1       4.535  21.465  15.322  1.00  0.00    -0.349 N 
HETATM   28  C21 UNL     1       4.662  21.169  16.694  1.00  0.00     0.220 C 
HETATM   29  C20 UNL     1       3.644  20.546  17.588  1.00  0.00     0.117 C 
HETATM   30  O3  UNL     1       5.776  21.472  17.211  1.00  0.00    -0.273 OA
BRANCH  27  31
HETATM   31  C3  UNL     1       5.676  22.059  14.617  1.00  0.00     0.152 C 
BRANCH  31  32
HETATM   32  C2  UNL     1       6.270  20.965  13.773  1.00  0.00    -0.017 C 
HETATM   33  C1  UNL     1       7.296  20.241  14.169  1.00  0.00     0.008 C 
ENDBRANCH  31  32
ENDBRANCH  27  31
ENDBRANCH   1  23
TORSDOF 9
ENDMDL
MODEL 5
REMARK VINA RESULT: -6.878578799      1.781      2.611
REMARK  9 active torsions:
REMARK  status: ('A' for Active; 'I' for Inactive)
REMARK    1  A    between atoms: C2_2  and  C3_3 
REMARK    2  A    between atoms: C3_3  and  N1_4 
REMARK    3  A    between atoms: C7_8  and  C8_9 
REMARK       I    between atoms: C8_9  and  N2_11 
REMARK    4  A    between atoms: C12_15  and  C13_16 
REMARK       I    between atoms: C13_16  and  N3_18 
REMARK    5  A    between atoms: C14_20  and  C15_22 
REMARK    6  A    between atoms: C15_22  and  C16_23 
REMARK    7  A    between atoms: C16_23  and  C17_24 
REMARK    8  A    between atoms: C17_24  and  C18_25 
REMARK    9  A    between atoms: C18_25  and  N5_26 
ROOT
HETATM    1  C8  UNL     1       4.852  21.925  17.614  1.00  0.00     0.225 C 
HETATM    2  O1  UNL     1       4.005  21.014  17.696  1.00  0.00    -0.273 OA
HETATM    3  N2  UNL     1       4.991  22.901  18.582  1.00  0.00    -0.338 N 
HETATM    4  C9  UNL     1       6.048  23.965  18.437  1.00  0.00     0.127 C 
HETATM    5  C10 UNL     1       5.475  25.173  19.109  1.00  0.00     0.022 C 
HETATM    6  C11 UNL     1       4.080  24.750  19.484  1.00  0.00     0.037 C 
HETATM    7  C12 UNL     1       4.367  23.233  19.787  1.00  0.00     0.179 C 
ENDROOT
BRANCH   7   8
HETATM    8  C13 UNL     1       3.173  22.615  20.294  1.00  0.00     0.245 C 
HETATM    9  O2  UNL     1       2.161  22.374  19.621  1.00  0.00    -0.271 OA
HETATM   10  N3  UNL     1       3.058  22.214  21.685  1.00  0.00    -0.317 N 
HETATM   11  C14 UNL     1       3.434  21.005  22.059  1.00  0.00     0.095 C 
ATOM     12  H3  UNL     1       2.687  22.868  22.374  1.00  0.00     0.169 HD
HETATM   13  N4  UNL     1       3.274  20.739  23.430  1.00  0.00    -0.087 NA
BRANCH  11  14
HETATM   14  C15 UNL     1       3.970  20.056  21.078  1.00  0.00     0.073 C 
BRANCH  14  15
HETATM   15  C16 UNL     1       3.126  18.854  20.902  1.00  0.00     0.009 C 
BRANCH  15  16
HETATM   16  C17 UNL     1       2.110  18.827  19.834  1.00  0.00     0.020 C 
BRANCH  16  17
HETATM   17  C18 UNL     1       0.768  18.279  20.183  1.00  0.00     0.122 C 
BRANCH  17  18
HETATM   18  N5  UNL     1       0.623  16.876  20.302  1.00  0.00    -0.367 N 
HETATM   19  C19 UNL     1       0.048  16.085  19.464  1.00  0.00     0.196 C 
HETATM   20  N6  UNL     1      -0.532  16.569  18.262  1.00  0.00    -0.067 NA
HETATM   21  N7  UNL     1       0.007  14.709  19.774  1.00  0.00    -0.067 NA
ATOM     22  H5  UNL     1       1.016  16.447  21.140  1.00  0.00     0.161 HD
ENDBRANCH  17  18
ENDBRANCH  16  17
ENDBRANCH  15  16
ENDBRANCH  14  15
ENDBRANCH  11  14
ENDBRANCH   7   8
BRANCH   1  23
HETATM   23  C7  UNL     1       5.697  21.845  16.360  1.00  0.00     0.087 C 
HETATM   24  C6  UNL     1       5.186  22.837  15.343  1.00  0.00     0.016 C 
HETATM   25  C5  UNL     1       4.088  22.275  14.478  1.00  0.00     0.021 C 
HETATM   26  C4  UNL     1       4.649  21.827  13.120  1.00  0.00     0.126 C 
HETATM   27  N1  UNL     1       5.889  21.125  13.290  1.00  0.00    -0.349 N 
HETATM   28  C21 UNL     1       6.401  20.524  14.458  1.00  0.00     0.220 C 
HETATM   29  C20 UNL     1       5.757  20.453  15.801  1.00  0.00     0.117 C 
HETATM   30  O3  UNL     1       7.540  19.987  14.334  1.00  0.00    -0.273 OA
BRANCH  27  31
HETATM   31  C3  UNL     1       6.680  21.059  12.056  1.00  0.00     0.152 C 
BRANCH  31  32
HETATM   32  C2  UNL     1       5.722  21.310  10.924  1.00  0.00    -0.017 C 
HETATM   33  C1  UNL     1       5.731  20.598   9.816  1.00  0.00     0.008 C 
ENDBRANCH  31  32
ENDBRANCH  27  31
ENDBRANCH   1  23
TORSDOF 9
ENDMDL
