MODEL 1
REMARK VINA RESULT: -6.293156532      0.000      0.000
REMARK  10 active torsions:
REMARK  status: ('A' for Active; 'I' for Inactive)
REMARK    1  A    between atoms: C1_2  and  N1_3 
REMARK    2  A    between atoms: N1_3  and  C2_5 
REMARK    3  A    between atoms: C2_5  and  C3_6 
REMARK    4  A    between atoms: C3_6  and  C4_7 
REMARK    5  A    between atoms: C4_7  and  C5_8 
REMARK    6  A    between atoms: C5_8  and  C6_9 
REMARK    7  A    between atoms: C6_9  and  C7_10 
REMARK    8  A    between atoms: C7_10  and  C8_11 
REMARK    9  A    between atoms: C8_11  and  C9_12 
REMARK   10  A    between atoms: C16_24  and  C17_25 
ROOT
HETATM    1  C9  UNL     1      -2.227  19.926  20.020  1.00  0.00     0.176 C 
HETATM    2  N2  UNL     1      -2.458  20.416  21.362  1.00  0.00    -0.346 N 
ATOM      3  H2  UNL     1      -3.438  20.523  21.625  1.00  0.00     0.163 HD
HETATM    4  C10 UNL     1      -1.539  20.762  22.339  1.00  0.00     0.241 C 
HETATM    5  O2  UNL     1      -1.589  21.977  22.783  1.00  0.00    -0.271 OA
HETATM    6  C11 UNL     1      -0.480  19.954  22.982  1.00  0.00     0.179 C 
HETATM    7  C12 UNL     1      -0.975  19.554  24.394  1.00  0.00     0.037 C 
HETATM    8  C13 UNL     1      -1.084  18.054  24.328  1.00  0.00     0.022 C 
HETATM    9  C14 UNL     1      -1.118  17.772  22.845  1.00  0.00     0.127 C 
HETATM   10  N3  UNL     1      -0.144  18.726  22.365  1.00  0.00    -0.337 N 
HETATM   11  C15 UNL     1       0.954  18.576  21.500  1.00  0.00     0.250 C 
HETATM   12  O3  UNL     1       1.335  17.416  21.097  1.00  0.00    -0.271 OA
HETATM   13  C16 UNL     1       1.759  19.724  20.987  1.00  0.00     0.238 C 
HETATM   14  N4  UNL     1       2.305  19.343  19.704  1.00  0.00    -0.341 N 
ATOM     15  H4  UNL     1       3.219  18.890  19.699  1.00  0.00     0.163 HD
HETATM   16  C18 UNL     1       1.671  19.552  18.451  1.00  0.00     0.236 C 
HETATM   17  O5  UNL     1       2.433  20.020  17.526  1.00  0.00    -0.272 OA
HETATM   18  C19 UNL     1       0.240  19.270  18.168  1.00  0.00     0.225 C 
HETATM   19  N5  UNL     1      -0.578  20.455  18.136  1.00  0.00    -0.351 N 
ATOM     20  H5  UNL     1      -0.511  21.053  17.313  1.00  0.00     0.163 HD
HETATM   21  C20 UNL     1      -1.464  20.847  19.158  1.00  0.00     0.240 C 
HETATM   22  O6  UNL     1      -1.624  22.087  19.362  1.00  0.00    -0.271 OA
ENDROOT
BRANCH   1  23
HETATM   23  C8  UNL     1      -3.563  19.680  19.305  1.00  0.00     0.035 C 
BRANCH  23  24
HETATM   24  C7  UNL     1      -3.694  18.261  18.822  1.00  0.00     0.002 C 
BRANCH  24  25
HETATM   25  C6  UNL     1      -2.606  17.389  19.466  1.00  0.00     0.000 C 
BRANCH  25  26
HETATM   26  C5  UNL     1      -2.278  16.326  18.458  1.00  0.00     0.000 C 
BRANCH  26  27
HETATM   27  C4  UNL     1      -0.815  15.999  18.477  1.00  0.00     0.002 C 
BRANCH  27  28
HETATM   28  C3  UNL     1      -0.553  14.709  19.175  1.00  0.00     0.020 C 
BRANCH  28  29
HETATM   29  C2  UNL     1      -1.218  13.556  18.458  1.00  0.00     0.122 C 
BRANCH  29  30
HETATM   30  N1  UNL     1      -0.538  13.245  17.210  1.00  0.00    -0.368 N 
ATOM     31  H1  UNL     1       0.452  13.002  17.240  1.00  0.00     0.161 HD
BRANCH  30  32
HETATM   32  C1  UNL     1      -1.188  13.268  15.962  1.00  0.00     0.348 C 
HETATM   33  O1  UNL     1      -1.936  14.178  15.554  1.00  0.00    -0.284 OA
ENDBRANCH  30  32
ENDBRANCH  29  30
ENDBRANCH  28  29
ENDBRANCH  27  28
ENDBRANCH  26  27
ENDBRANCH  25  26
ENDBRANCH  24  25
ENDBRANCH  23  24
ENDBRANCH   1  23
BRANCH  13  34
HETATM   34  C17 UNL     1       2.888  20.028  21.921  1.00  0.00     0.266 C 
HETATM   35  O4  UNL     1       4.040  19.871  21.557  1.00  0.00    -0.304 OA
ENDBRANCH  13  34
TORSDOF 10
ENDMDL
MODEL 2
REMARK VINA RESULT: -6.211584649      4.083      6.798
REMARK  10 active torsions:
REMARK  status: ('A' for Active; 'I' for Inactive)
REMARK    1  A    between atoms: C1_2  and  N1_3 
REMARK    2  A    between atoms: N1_3  and  C2_5 
REMARK    3  A    between atoms: C2_5  and  C3_6 
REMARK    4  A    between atoms: C3_6  and  C4_7 
REMARK    5  A    between atoms: C4_7  and  C5_8 
REMARK    6  A    between atoms: C5_8  and  C6_9 
REMARK    7  A    between atoms: C6_9  and  C7_10 
REMARK    8  A    between atoms: C7_10  and  C8_11 
REMARK    9  A    between atoms: C8_11  and  C9_12 
REMARK   10  A    between atoms: C16_24  and  C17_25 
ROOT
HETATM    1  C9  UNL     1       1.142  19.993  17.870  1.00  0.00     0.176 C 
HETATM    2  N2  UNL     1      -0.230  19.782  17.462  1.00  0.00    -0.346 N 
ATOM      3  H2  UNL     1      -0.397  19.820  16.457  1.00  0.00     0.163 HD
HETATM    4  C10 UNL     1      -1.348  19.536  18.242  1.00  0.00     0.241 C 
HETATM    5  O2  UNL     1      -2.326  20.379  18.142  1.00  0.00    -0.271 OA
HETATM    6  C11 UNL     1      -1.624  18.440  19.196  1.00  0.00     0.179 C 
HETATM    7  C12 UNL     1      -2.587  17.439  18.508  1.00  0.00     0.037 C 
HETATM    8  C13 UNL     1      -1.776  16.176  18.395  1.00  0.00     0.022 C 
HETATM    9  C14 UNL     1      -0.355  16.657  18.563  1.00  0.00     0.127 C 
HETATM   10  N3  UNL     1      -0.524  17.648  19.602  1.00  0.00    -0.337 N 
HETATM   11  C15 UNL     1       0.169  17.857  20.807  1.00  0.00     0.250 C 
HETATM   12  O3  UNL     1       1.046  17.017  21.229  1.00  0.00    -0.271 OA
HETATM   13  C16 UNL     1      -0.049  19.045  21.684  1.00  0.00     0.238 C 
HETATM   14  N4  UNL     1       1.182  19.300  22.398  1.00  0.00    -0.341 N 
ATOM     15  H4  UNL     1       1.306  18.839  23.300  1.00  0.00     0.163 HD
HETATM   16  C18 UNL     1       2.232  20.141  21.944  1.00  0.00     0.236 C 
HETATM   17  O5  UNL     1       2.710  20.942  22.829  1.00  0.00    -0.272 OA
HETATM   18  C19 UNL     1       2.779  20.142  20.562  1.00  0.00     0.225 C 
HETATM   19  N5  UNL     1       2.315  21.249  19.767  1.00  0.00    -0.351 N 
ATOM     20  H5  UNL     1       2.721  22.167  19.952  1.00  0.00     0.163 HD
HETATM   21  C20 UNL     1       1.342  21.158  18.753  1.00  0.00     0.240 C 
HETATM   22  O6  UNL     1       0.573  22.148  18.577  1.00  0.00    -0.271 OA
ENDROOT
BRANCH   1  23
HETATM   23  C8  UNL     1       2.033  20.230  16.643  1.00  0.00     0.035 C 
BRANCH  23  24
HETATM   24  C7  UNL     1       3.488  20.335  17.012  1.00  0.00     0.002 C 
BRANCH  24  25
HETATM   25  C6  UNL     1       4.314  20.708  15.772  1.00  0.00     0.000 C 
BRANCH  25  26
HETATM   26  C5  UNL     1       5.725  20.885  16.253  1.00  0.00     0.000 C 
BRANCH  26  27
HETATM   27  C4  UNL     1       6.677  20.051  15.449  1.00  0.00     0.002 C 
BRANCH  27  28
HETATM   28  C3  UNL     1       6.774  20.538  14.043  1.00  0.00     0.020 C 
BRANCH  28  29
HETATM   29  C2  UNL     1       8.216  20.620  13.593  1.00  0.00     0.122 C 
BRANCH  29  30
HETATM   30  N1  UNL     1       8.391  20.042  12.269  1.00  0.00    -0.368 N 
ATOM     31  H1  UNL     1       8.883  19.152  12.186  1.00  0.00     0.161 HD
BRANCH  30  32
HETATM   32  C1  UNL     1       7.910  20.658  11.099  1.00  0.00     0.348 C 
HETATM   33  O1  UNL     1       7.165  20.123  10.255  1.00  0.00    -0.284 OA
ENDBRANCH  30  32
ENDBRANCH  29  30
ENDBRANCH  28  29
ENDBRANCH  27  28
ENDBRANCH  26  27
ENDBRANCH  25  26
ENDBRANCH  24  25
ENDBRANCH  23  24
ENDBRANCH   1  23
BRANCH  13  34
HETATM   34  C17 UNL     1      -1.134  18.767  22.677  1.00  0.00     0.266 C 
HETATM   35  O4  UNL     1      -1.306  17.635  23.092  1.00  0.00    -0.304 OA
ENDBRANCH  13  34
TORSDOF 10
ENDMDL
MODEL 3
REMARK VINA RESULT: -6.016397136      3.644      6.469
REMARK  10 active torsions:
REMARK  status: ('A' for Active; 'I' for Inactive)
REMARK    1  A    between atoms: C1_2  and  N1_3 
REMARK    2  A    between atoms: N1_3  and  C2_5 
REMARK    3  A    between atoms: C2_5  and  C3_6 
REMARK    4  A    between atoms: C3_6  and  C4_7 
REMARK    5  A    between atoms: C4_7  and  C5_8 
REMARK    6  A    between atoms: C5_8  and  C6_9 
REMARK    7  A    between atoms: C6_9  and  C7_10 
REMARK    8  A    between atoms: C7_10  and  C8_11 
REMARK    9  A    between atoms: C8_11  and  C9_12 
REMARK   10  A    between atoms: C16_24  and  C17_25 
ROOT
HETATM    1  C9  UNL     1       0.450  20.303  18.085  1.00  0.00     0.176 C 
HETATM    2  N2  UNL     1      -0.902  19.945  17.718  1.00  0.00    -0.346 N 
ATOM      3  H2  UNL     1      -1.131  20.057  16.731  1.00  0.00     0.163 HD
HETATM    4  C10 UNL     1      -1.930  19.471  18.517  1.00  0.00     0.241 C 
HETATM    5  O2  UNL     1      -3.016  20.176  18.549  1.00  0.00    -0.271 OA
HETATM    6  C11 UNL     1      -2.002  18.260  19.362  1.00  0.00     0.179 C 
HETATM    7  C12 UNL     1      -2.861  17.206  18.618  1.00  0.00     0.037 C 
HETATM    8  C13 UNL     1      -1.896  16.085  18.337  1.00  0.00     0.022 C 
HETATM    9  C14 UNL     1      -0.545  16.740  18.491  1.00  0.00     0.127 C 
HETATM   10  N3  UNL     1      -0.784  17.592  19.635  1.00  0.00    -0.337 N 
HETATM   11  C15 UNL     1      -0.057  17.777  20.822  1.00  0.00     0.250 C 
HETATM   12  O3  UNL     1       0.948  17.030  21.116  1.00  0.00    -0.271 OA
HETATM   13  C16 UNL     1      -0.379  18.832  21.828  1.00  0.00     0.238 C 
HETATM   14  N4  UNL     1       0.846  19.185  22.509  1.00  0.00    -0.341 N 
ATOM     15  H4  UNL     1       1.083  18.660  23.352  1.00  0.00     0.163 HD
HETATM   16  C18 UNL     1       1.746  20.203  22.099  1.00  0.00     0.236 C 
HETATM   17  O5  UNL     1       2.164  20.973  23.041  1.00  0.00    -0.272 OA
HETATM   18  C19 UNL     1       2.207  20.415  20.702  1.00  0.00     0.225 C 
HETATM   19  N5  UNL     1       1.554  21.519  20.048  1.00  0.00    -0.351 N 
ATOM     20  H5  UNL     1       1.844  22.462  20.309  1.00  0.00     0.163 HD
HETATM   21  C20 UNL     1       0.544  21.393  19.074  1.00  0.00     0.240 C 
HETATM   22  O6  UNL     1      -0.359  22.279  19.037  1.00  0.00    -0.271 OA
ENDROOT
BRANCH   1  23
HETATM   23  C8  UNL     1       1.229  20.780  16.851  1.00  0.00     0.035 C 
BRANCH  23  24
HETATM   24  C7  UNL     1       2.459  19.950  16.603  1.00  0.00     0.002 C 
BRANCH  24  25
HETATM   25  C6  UNL     1       3.694  20.667  17.172  1.00  0.00     0.000 C 
BRANCH  25  26
HETATM   26  C5  UNL     1       4.805  20.413  16.195  1.00  0.00     0.000 C 
BRANCH  26  27
HETATM   27  C4  UNL     1       4.540  21.099  14.888  1.00  0.00     0.002 C 
BRANCH  27  28
HETATM   28  C3  UNL     1       5.765  21.146  14.040  1.00  0.00     0.020 C 
BRANCH  28  29
HETATM   29  C2  UNL     1       6.859  20.273  14.611  1.00  0.00     0.122 C 
BRANCH  29  30
HETATM   30  N1  UNL     1       8.150  20.583  14.015  1.00  0.00    -0.368 N 
ATOM     31  H1  UNL     1       8.773  21.224  14.505  1.00  0.00     0.161 HD
BRANCH  30  32
HETATM   32  C1  UNL     1       8.573  20.035  12.790  1.00  0.00     0.348 C 
HETATM   33  O1  UNL     1       8.194  20.410  11.663  1.00  0.00    -0.284 OA
ENDBRANCH  30  32
ENDBRANCH  29  30
ENDBRANCH  28  29
ENDBRANCH  27  28
ENDBRANCH  26  27
ENDBRANCH  25  26
ENDBRANCH  24  25
ENDBRANCH  23  24
ENDBRANCH   1  23
BRANCH  13  34
HETATM   34  C17 UNL     1      -1.357  18.312  22.834  1.00  0.00     0.266 C 
HETATM   35  O4  UNL     1      -1.065  17.357  23.532  1.00  0.00    -0.304 OA
ENDBRANCH  13  34
TORSDOF 10
ENDMDL
MODEL 4
REMARK VINA RESULT: -5.942521328      3.683      6.737
REMARK  10 active torsions:
REMARK  status: ('A' for Active; 'I' for Inactive)
REMARK    1  A    between atoms: C1_2  and  N1_3 
REMARK    2  A    between atoms: N1_3  and  C2_5 
REMARK    3  A    between atoms: C2_5  and  C3_6 
REMARK    4  A    between atoms: C3_6  and  C4_7 
REMARK    5  A    between atoms: C4_7  and  C5_8 
REMARK    6  A    between atoms: C5_8  and  C6_9 
REMARK    7  A    between atoms: C6_9  and  C7_10 
REMARK    8  A    between atoms: C7_10  and  C8_11 
REMARK    9  A    between atoms: C8_11  and  C9_12 
REMARK   10  A    between atoms: C16_24  and  C17_25 
ROOT
HETATM    1  C9  UNL     1       0.408  20.242  18.111  1.00  0.00     0.176 C 
HETATM    2  N2  UNL     1      -0.940  19.867  17.742  1.00  0.00    -0.346 N 
ATOM      3  H2  UNL     1      -1.168  19.977  16.754  1.00  0.00     0.163 HD
HETATM    4  C10 UNL     1      -1.963  19.380  18.539  1.00  0.00     0.241 C 
HETATM    5  O2  UNL     1      -3.058  20.072  18.570  1.00  0.00    -0.271 OA
HETATM    6  C11 UNL     1      -2.021  18.167  19.383  1.00  0.00     0.179 C 
HETATM    7  C12 UNL     1      -2.866  17.104  18.636  1.00  0.00     0.037 C 
HETATM    8  C13 UNL     1      -1.887  15.995  18.357  1.00  0.00     0.022 C 
HETATM    9  C14 UNL     1      -0.544  16.667  18.513  1.00  0.00     0.127 C 
HETATM   10  N3  UNL     1      -0.796  17.514  19.657  1.00  0.00    -0.337 N 
HETATM   11  C15 UNL     1      -0.073  17.708  20.846  1.00  0.00     0.250 C 
HETATM   12  O3  UNL     1       0.940  16.973  21.141  1.00  0.00    -0.271 OA
HETATM   13  C16 UNL     1      -0.410  18.758  21.852  1.00  0.00     0.238 C 
HETATM   14  N4  UNL     1       0.810  19.125  22.536  1.00  0.00    -0.341 N 
ATOM     15  H4  UNL     1       1.051  18.602  23.378  1.00  0.00     0.163 HD
HETATM   16  C18 UNL     1       1.698  20.155  22.128  1.00  0.00     0.236 C 
HETATM   17  O5  UNL     1       2.104  20.928  23.071  1.00  0.00    -0.272 OA
HETATM   18  C19 UNL     1       2.158  20.373  20.732  1.00  0.00     0.225 C 
HETATM   19  N5  UNL     1       1.493  21.470  20.078  1.00  0.00    -0.351 N 
ATOM     20  H5  UNL     1       1.771  22.416  20.340  1.00  0.00     0.163 HD
HETATM   21  C20 UNL     1       0.487  21.332  19.102  1.00  0.00     0.240 C 
HETATM   22  O6  UNL     1      -0.428  22.207  19.064  1.00  0.00    -0.271 OA
ENDROOT
BRANCH   1  23
HETATM   23  C8  UNL     1       1.183  20.729  16.879  1.00  0.00     0.035 C 
BRANCH  23  24
HETATM   24  C7  UNL     1       2.406  19.894  16.613  1.00  0.00     0.002 C 
BRANCH  24  25
HETATM   25  C6  UNL     1       3.661  20.646  17.081  1.00  0.00     0.000 C 
BRANCH  25  26
HETATM   26  C5  UNL     1       4.501  20.852  15.854  1.00  0.00     0.000 C 
BRANCH  26  27
HETATM   27  C4  UNL     1       5.954  20.955  16.207  1.00  0.00     0.002 C 
BRANCH  27  28
HETATM   28  C3  UNL     1       6.767  19.947  15.469  1.00  0.00     0.020 C 
BRANCH  28  29
HETATM   29  C2  UNL     1       7.292  20.516  14.169  1.00  0.00     0.122 C 
BRANCH  29  30
HETATM   30  N1  UNL     1       7.946  21.799  14.378  1.00  0.00    -0.368 N 
ATOM     31  H1  UNL     1       8.057  22.141  15.332  1.00  0.00     0.161 HD
BRANCH  30  32
HETATM   32  C1  UNL     1       8.431  22.587  13.318  1.00  0.00     0.348 C 
HETATM   33  O1  UNL     1       8.513  23.831  13.323  1.00  0.00    -0.284 OA
ENDBRANCH  30  32
ENDBRANCH  29  30
ENDBRANCH  28  29
ENDBRANCH  27  28
ENDBRANCH  26  27
ENDBRANCH  25  26
ENDBRANCH  24  25
ENDBRANCH  23  24
ENDBRANCH   1  23
BRANCH  13  34
HETATM   34  C17 UNL     1      -1.383  18.225  22.856  1.00  0.00     0.266 C 
HETATM   35  O4  UNL     1      -1.026  17.392  23.670  1.00  0.00    -0.304 OA
ENDBRANCH  13  34
TORSDOF 10
ENDMDL
MODEL 5
REMARK VINA RESULT: -5.933907004      3.809      6.719
REMARK  10 active torsions:
REMARK  status: ('A' for Active; 'I' for Inactive)
REMARK    1  A    between atoms: C1_2  and  N1_3 
REMARK    2  A    between atoms: N1_3  and  C2_5 
REMARK    3  A    between atoms: C2_5  and  C3_6 
REMARK    4  A    between atoms: C3_6  and  C4_7 
REMARK    5  A    between atoms: C4_7  and  C5_8 
REMARK    6  A    between atoms: C5_8  and  C6_9 
REMARK    7  A    between atoms: C6_9  and  C7_10 
REMARK    8  A    between atoms: C7_10  and  C8_11 
REMARK    9  A    between atoms: C8_11  and  C9_12 
REMARK   10  A    between atoms: C16_24  and  C17_25 
ROOT
HETATM    1  C9  UNL     1       1.924  20.223  20.052  1.00  0.00     0.176 C 
HETATM    2  N2  UNL     1       2.213  21.023  21.223  1.00  0.00    -0.346 N 
ATOM      3  H2  UNL     1       2.838  21.813  21.068  1.00  0.00     0.163 HD
HETATM    4  C10 UNL     1       1.761  20.868  22.523  1.00  0.00     0.241 C 
HETATM    5  O2  UNL     1       2.663  20.707  23.439  1.00  0.00    -0.271 OA
HETATM    6  C11 UNL     1       0.384  20.856  23.061  1.00  0.00     0.179 C 
HETATM    7  C12 UNL     1       0.123  22.225  23.739  1.00  0.00     0.037 C 
HETATM    8  C13 UNL     1      -0.971  22.839  22.906  1.00  0.00     0.022 C 
HETATM    9  C14 UNL     1      -0.914  22.051  21.619  1.00  0.00     0.127 C 
HETATM   10  N3  UNL     1      -0.670  20.719  22.126  1.00  0.00    -0.337 N 
HETATM   11  C15 UNL     1      -1.296  19.492  21.849  1.00  0.00     0.250 C 
HETATM   12  O3  UNL     1      -2.360  19.430  21.130  1.00  0.00    -0.271 OA
HETATM   13  C16 UNL     1      -0.794  18.180  22.355  1.00  0.00     0.238 C 
HETATM   14  N4  UNL     1      -1.196  17.159  21.415  1.00  0.00    -0.341 N 
ATOM     15  H4  UNL     1      -2.098  16.707  21.569  1.00  0.00     0.163 HD
HETATM   16  C18 UNL     1      -0.436  16.734  20.294  1.00  0.00     0.236 C 
HETATM   17  O5  UNL     1      -0.367  15.460  20.134  1.00  0.00    -0.272 OA
HETATM   18  C19 UNL     1       0.252  17.645  19.342  1.00  0.00     0.225 C 
HETATM   19  N5  UNL     1       1.674  17.725  19.558  1.00  0.00    -0.351 N 
ATOM     20  H5  UNL     1       2.244  16.937  19.250  1.00  0.00     0.163 HD
HETATM   21  C20 UNL     1       2.335  18.811  20.163  1.00  0.00     0.240 C 
HETATM   22  O6  UNL     1       3.364  18.567  20.860  1.00  0.00    -0.271 OA
ENDROOT
BRANCH   1  23
HETATM   23  C8  UNL     1       2.658  20.786  18.828  1.00  0.00     0.035 C 
BRANCH  23  24
HETATM   24  C7  UNL     1       3.962  21.439  19.200  1.00  0.00     0.002 C 
BRANCH  24  25
HETATM   25  C6  UNL     1       4.820  21.644  17.942  1.00  0.00     0.000 C 
BRANCH  25  26
HETATM   26  C5  UNL     1       4.321  20.649  16.935  1.00  0.00     0.000 C 
BRANCH  26  27
HETATM   27  C4  UNL     1       5.020  20.817  15.619  1.00  0.00     0.002 C 
BRANCH  27  28
HETATM   28  C3  UNL     1       6.386  20.220  15.647  1.00  0.00     0.020 C 
BRANCH  28  29
HETATM   29  C2  UNL     1       7.312  20.932  14.688  1.00  0.00     0.122 C 
BRANCH  29  30
HETATM   30  N1  UNL     1       8.090  19.986  13.902  1.00  0.00    -0.368 N 
ATOM     31  H1  UNL     1       8.371  19.106  14.335  1.00  0.00     0.161 HD
BRANCH  30  32
HETATM   32  C1  UNL     1       8.471  20.234  12.570  1.00  0.00     0.348 C 
HETATM   33  O1  UNL     1       8.862  21.330  12.124  1.00  0.00    -0.284 OA
ENDBRANCH  30  32
ENDBRANCH  29  30
ENDBRANCH  28  29
ENDBRANCH  27  28
ENDBRANCH  26  27
ENDBRANCH  25  26
ENDBRANCH  24  25
ENDBRANCH  23  24
ENDBRANCH   1  23
BRANCH  13  34
HETATM   34  C17 UNL     1      -1.396  17.872  23.690  1.00  0.00     0.266 C 
HETATM   35  O4  UNL     1      -1.765  16.739  23.946  1.00  0.00    -0.304 OA
ENDBRANCH  13  34
TORSDOF 10
ENDMDL
