MODEL 1
REMARK VINA RESULT: -6.619052874      0.000      0.000
REMARK  9 active torsions:
REMARK  status: ('A' for Active; 'I' for Inactive)
REMARK    1  A    between atoms: C2_2  and  C3_3 
REMARK    2  A    between atoms: C3_3  and  C4_4 
REMARK    3  A    between atoms: C4_4  and  N1_5 
REMARK       I    between atoms: N1_5  and  C5_7 
REMARK    4  A    between atoms: C5_7  and  C6_9 
REMARK    5  A    between atoms: C10_14  and  C11_15 
REMARK    6  A    between atoms: C13_20  and  N3_21 
REMARK       I    between atoms: N3_21  and  C14_23 
REMARK       I    between atoms: C14_23  and  N4_25 
REMARK    7  A    between atoms: N4_25  and  C15_27 
REMARK    8  A    between atoms: C15_27  and  C16_28 
REMARK    9  A    between atoms: C16_28  and  N5_29 
ROOT
HETATM    1  N5  UNL     1      -9.475  18.706  17.264  1.00  0.00    -0.323 N 
HETATM    2  C17 UNL     1      -9.704  19.446  18.487  1.00  0.00     0.162 C 
HETATM    3  C18 UNL     1     -10.363  18.903  16.204  1.00  0.00     0.179 C 
HETATM    4  N6  UNL     1     -11.101  19.084  15.333  1.00  0.00    -0.172 NA
ENDROOT
BRANCH   1   5
HETATM    5  C16 UNL     1      -8.368  17.781  17.109  1.00  0.00     0.153 C 
BRANCH   5   6
HETATM    6  C15 UNL     1      -7.359  17.944  18.232  1.00  0.00     0.145 C 
BRANCH   6   7
HETATM    7  N4  UNL     1      -6.043  17.486  17.892  1.00  0.00    -0.342 N 
HETATM    8  C14 UNL     1      -4.835  18.101  18.300  1.00  0.00     0.317 C 
HETATM    9  N3  UNL     1      -3.559  17.594  17.927  1.00  0.00    -0.315 N 
HETATM   10  O3  UNL     1      -4.863  19.133  19.014  1.00  0.00    -0.247 OA
ATOM     11  H3  UNL     1      -3.518  16.756  17.348  1.00  0.00     0.166 HD
ATOM     12  H4  UNL     1      -5.973  16.651  17.311  1.00  0.00     0.164 HD
BRANCH   9  13
HETATM   13  C13 UNL     1      -2.311  18.219  18.337  1.00  0.00     0.293 C 
HETATM   14  N2  UNL     1      -2.084  18.126  19.734  1.00  0.00    -0.042 N 
HETATM   15  C10 UNL     1      -0.804  18.517  20.137  1.00  0.00     0.160 C 
ATOM     16  H22 UNL     1      -2.289  17.184  20.066  1.00  0.00     0.280 HD
ATOM     17  H21 UNL     1      -2.794  18.649  20.246  1.00  0.00     0.280 HD
HETATM   18  C9  UNL     1       0.006  17.428  20.825  1.00  0.00     0.172 C 
HETATM   19  C22 UNL     1       0.124  19.099  19.134  1.00  0.00     0.059 C 
HETATM   20  C6  UNL     1       0.374  16.263  19.955  1.00  0.00     0.116 C 
HETATM   21  O2  UNL     1       1.269  18.088  20.786  1.00  0.00    -0.376 OA
HETATM   22  C7  UNL     1       0.910  16.952  18.763  1.00  0.00     0.035 C 
HETATM   23  C8  UNL     1       1.361  18.269  19.399  1.00  0.00     0.134 C 
HETATM   24  C20 UNL     1       0.056  17.213  17.614  1.00  0.00     0.006 A 
HETATM   25  C19 UNL     1      -1.197  17.825  17.432  1.00  0.00     0.046 A 
HETATM   26  C21 UNL     1      -0.106  18.767  17.705  1.00  0.00     0.008 A 
BRANCH  15  27
HETATM   27  C11 UNL     1      -0.946  19.599  21.230  1.00  0.00     0.037 C 
HETATM   28  C12 UNL     1      -1.673  19.060  22.422  1.00  0.00     0.007 C 
ENDBRANCH  15  27
BRANCH  20  29
HETATM   29  C5  UNL     1      -0.579  15.207  19.785  1.00  0.00     0.224 C 
HETATM   30  N1  UNL     1      -0.225  14.012  19.122  1.00  0.00    -0.361 N 
ATOM     31  H1  UNL     1       0.717  13.885  18.753  1.00  0.00     0.162 HD
HETATM   32  O1  UNL     1      -1.747  15.315  20.220  1.00  0.00    -0.273 OA
BRANCH  30  33
HETATM   33  C4  UNL     1      -1.214  12.971  18.974  1.00  0.00     0.122 C 
BRANCH  33  34
HETATM   34  C3  UNL     1      -1.125  12.307  17.607  1.00  0.00     0.019 C 
BRANCH  34  35
HETATM   35  C2  UNL     1      -1.983  13.121  16.669  1.00  0.00    -0.003 C 
HETATM   36  C1  UNL     1      -2.137  12.465  15.314  1.00  0.00     0.005 C 
ENDBRANCH  34  35
ENDBRANCH  33  34
ENDBRANCH  30  33
ENDBRANCH  20  29
ENDBRANCH   9  13
ENDBRANCH   6   7
ENDBRANCH   5   6
ENDBRANCH   1   5
TORSDOF 9
ENDMDL
MODEL 2
REMARK VINA RESULT: -6.600227288      4.859      7.989
REMARK  9 active torsions:
REMARK  status: ('A' for Active; 'I' for Inactive)
REMARK    1  A    between atoms: C2_2  and  C3_3 
REMARK    2  A    between atoms: C3_3  and  C4_4 
REMARK    3  A    between atoms: C4_4  and  N1_5 
REMARK       I    between atoms: N1_5  and  C5_7 
REMARK    4  A    between atoms: C5_7  and  C6_9 
REMARK    5  A    between atoms: C10_14  and  C11_15 
REMARK    6  A    between atoms: C13_20  and  N3_21 
REMARK       I    between atoms: N3_21  and  C14_23 
REMARK       I    between atoms: C14_23  and  N4_25 
REMARK    7  A    between atoms: N4_25  and  C15_27 
REMARK    8  A    between atoms: C15_27  and  C16_28 
REMARK    9  A    between atoms: C16_28  and  N5_29 
ROOT
HETATM    1  N5  UNL     1      -1.443  13.406  17.818  1.00  0.00    -0.323 N 
HETATM    2  C17 UNL     1      -0.596  13.039  18.933  1.00  0.00     0.162 C 
HETATM    3  C18 UNL     1      -1.597  12.481  16.781  1.00  0.00     0.179 C 
HETATM    4  N6  UNL     1      -1.721  11.703  15.937  1.00  0.00    -0.172 NA
ENDROOT
BRANCH   1   5
HETATM    5  C16 UNL     1      -2.127  14.683  17.746  1.00  0.00     0.153 C 
BRANCH   5   6
HETATM    6  C15 UNL     1      -1.237  15.807  18.247  1.00  0.00     0.145 C 
BRANCH   6   7
HETATM    7  N4  UNL     1      -0.596  16.543  17.196  1.00  0.00    -0.342 N 
HETATM    8  C14 UNL     1       0.442  17.488  17.378  1.00  0.00     0.317 C 
HETATM    9  N3  UNL     1       1.036  18.186  16.290  1.00  0.00    -0.315 N 
HETATM   10  O3  UNL     1       0.870  17.739  18.531  1.00  0.00    -0.247 OA
ATOM     11  H3  UNL     1       0.701  17.993  15.346  1.00  0.00     0.166 HD
ATOM     12  H4  UNL     1      -0.913  16.372  16.242  1.00  0.00     0.164 HD
BRANCH   9  13
HETATM   13  C13 UNL     1       2.101  19.161  16.465  1.00  0.00     0.293 C 
HETATM   14  N2  UNL     1       3.160  18.989  15.537  1.00  0.00    -0.042 N 
HETATM   15  C10 UNL     1       4.093  20.030  15.528  1.00  0.00     0.160 C 
ATOM     16  H22 UNL     1       2.791  18.834  14.599  1.00  0.00     0.280 HD
ATOM     17  H21 UNL     1       3.626  18.095  15.690  1.00  0.00     0.280 HD
HETATM   18  C9  UNL     1       4.222  20.755  14.196  1.00  0.00     0.172 C 
HETATM   19  C22 UNL     1       3.978  21.113  16.536  1.00  0.00     0.059 C 
HETATM   20  C6  UNL     1       3.005  21.520  13.768  1.00  0.00     0.116 C 
HETATM   21  O2  UNL     1       4.978  21.869  14.667  1.00  0.00    -0.376 OA
HETATM   22  C7  UNL     1       2.689  22.271  15.000  1.00  0.00     0.035 C 
HETATM   23  C8  UNL     1       4.078  22.328  15.639  1.00  0.00     0.134 C 
HETATM   24  C20 UNL     1       1.716  21.754  15.951  1.00  0.00     0.006 A 
HETATM   25  C19 UNL     1       1.546  20.533  16.626  1.00  0.00     0.046 A 
HETATM   26  C21 UNL     1       2.645  21.352  17.145  1.00  0.00     0.008 A 
BRANCH  15  27
HETATM   27  C11 UNL     1       5.499  19.427  15.741  1.00  0.00     0.037 C 
HETATM   28  C12 UNL     1       5.917  18.614  14.556  1.00  0.00     0.007 C 
ENDBRANCH  15  27
BRANCH  20  29
HETATM   29  C5  UNL     1       1.958  20.817  13.087  1.00  0.00     0.224 C 
HETATM   30  N1  UNL     1       0.808  21.496  12.630  1.00  0.00    -0.361 N 
ATOM     31  H1  UNL     1       0.706  22.499  12.781  1.00  0.00     0.162 HD
HETATM   32  O1  UNL     1       2.037  19.586  12.878  1.00  0.00    -0.273 OA
BRANCH  30  33
HETATM   33  C4  UNL     1      -0.222  20.751  11.946  1.00  0.00     0.122 C 
BRANCH  33  34
HETATM   34  C3  UNL     1      -1.555  20.844  12.676  1.00  0.00     0.019 C 
BRANCH  34  35
HETATM   35  C2  UNL     1      -1.388  20.114  13.987  1.00  0.00    -0.003 C 
HETATM   36  C1  UNL     1      -1.879  20.926  15.165  1.00  0.00     0.005 C 
ENDBRANCH  34  35
ENDBRANCH  33  34
ENDBRANCH  30  33
ENDBRANCH  20  29
ENDBRANCH   9  13
ENDBRANCH   6   7
ENDBRANCH   5   6
ENDBRANCH   1   5
TORSDOF 9
ENDMDL
MODEL 3
REMARK VINA RESULT: -6.535497763      4.217      7.336
REMARK  9 active torsions:
REMARK  status: ('A' for Active; 'I' for Inactive)
REMARK    1  A    between atoms: C2_2  and  C3_3 
REMARK    2  A    between atoms: C3_3  and  C4_4 
REMARK    3  A    between atoms: C4_4  and  N1_5 
REMARK       I    between atoms: N1_5  and  C5_7 
REMARK    4  A    between atoms: C5_7  and  C6_9 
REMARK    5  A    between atoms: C10_14  and  C11_15 
REMARK    6  A    between atoms: C13_20  and  N3_21 
REMARK       I    between atoms: N3_21  and  C14_23 
REMARK       I    between atoms: C14_23  and  N4_25 
REMARK    7  A    between atoms: N4_25  and  C15_27 
REMARK    8  A    between atoms: C15_27  and  C16_28 
REMARK    9  A    between atoms: C16_28  and  N5_29 
ROOT
HETATM    1  N5  UNL     1      -1.939  14.901  18.723  1.00  0.00    -0.323 N 
HETATM    2  C17 UNL     1      -2.894  14.969  17.638  1.00  0.00     0.162 C 
HETATM    3  C18 UNL     1      -1.016  13.852  18.718  1.00  0.00     0.179 C 
HETATM    4  N6  UNL     1      -0.254  12.983  18.694  1.00  0.00    -0.172 NA
ENDROOT
BRANCH   1   5
HETATM    5  C16 UNL     1      -1.910  15.874  19.799  1.00  0.00     0.153 C 
BRANCH   5   6
HETATM    6  C15 UNL     1      -2.465  17.211  19.339  1.00  0.00     0.145 C 
BRANCH   6   7
HETATM    7  N4  UNL     1      -1.456  18.208  19.126  1.00  0.00    -0.342 N 
HETATM    8  C14 UNL     1      -0.799  18.453  17.896  1.00  0.00     0.317 C 
HETATM    9  N3  UNL     1       0.196  19.460  17.751  1.00  0.00    -0.315 N 
HETATM   10  O3  UNL     1      -1.085  17.770  16.882  1.00  0.00    -0.247 OA
ATOM     11  H3  UNL     1       0.439  20.024  18.564  1.00  0.00     0.166 HD
ATOM     12  H4  UNL     1      -1.191  18.786  19.923  1.00  0.00     0.164 HD
BRANCH   9  13
HETATM   13  C13 UNL     1       0.880  19.719  16.493  1.00  0.00     0.293 C 
HETATM   14  N2  UNL     1       1.107  21.101  16.268  1.00  0.00    -0.042 N 
HETATM   15  C10 UNL     1       1.948  21.377  15.185  1.00  0.00     0.160 C 
ATOM     16  H22 UNL     1       1.459  21.547  17.115  1.00  0.00     0.280 HD
ATOM     17  H21 UNL     1       0.221  21.596  16.166  1.00  0.00     0.280 HD
HETATM   18  C9  UNL     1       3.221  22.128  15.546  1.00  0.00     0.172 C 
HETATM   19  C22 UNL     1       2.403  20.260  14.320  1.00  0.00     0.059 C 
HETATM   20  C6  UNL     1       4.184  21.370  16.411  1.00  0.00     0.116 C 
HETATM   21  O2  UNL     1       3.902  21.938  14.308  1.00  0.00    -0.376 OA
HETATM   22  C7  UNL     1       4.255  20.078  15.697  1.00  0.00     0.035 C 
HETATM   23  C8  UNL     1       3.890  20.537  14.284  1.00  0.00     0.134 C 
HETATM   24  C20 UNL     1       3.412  18.964  16.101  1.00  0.00     0.006 A 
HETATM   25  C19 UNL     1       2.032  18.795  16.314  1.00  0.00     0.046 A 
HETATM   26  C21 UNL     1       2.410  18.893  14.901  1.00  0.00     0.008 A 
BRANCH  15  27
HETATM   27  C11 UNL     1       1.217  22.351  14.236  1.00  0.00     0.037 C 
HETATM   28  C12 UNL     1       0.364  21.606  13.258  1.00  0.00     0.007 C 
ENDBRANCH  15  27
BRANCH  20  29
HETATM   29  C5  UNL     1       3.984  21.378  17.829  1.00  0.00     0.224 C 
HETATM   30  N1  UNL     1       4.823  20.632  18.684  1.00  0.00    -0.361 N 
ATOM     31  H1  UNL     1       5.586  20.073  18.300  1.00  0.00     0.162 HD
HETATM   32  O1  UNL     1       3.062  22.046  18.348  1.00  0.00    -0.273 OA
BRANCH  30  33
HETATM   33  C4  UNL     1       4.589  20.668  20.108  1.00  0.00     0.122 C 
BRANCH  33  34
HETATM   34  C3  UNL     1       4.233  19.290  20.650  1.00  0.00     0.019 C 
BRANCH  34  35
HETATM   35  C2  UNL     1       2.786  19.043  20.298  1.00  0.00    -0.003 C 
HETATM   36  C1  UNL     1       2.539  17.622  19.841  1.00  0.00     0.005 C 
ENDBRANCH  34  35
ENDBRANCH  33  34
ENDBRANCH  30  33
ENDBRANCH  20  29
ENDBRANCH   9  13
ENDBRANCH   6   7
ENDBRANCH   5   6
ENDBRANCH   1   5
TORSDOF 9
ENDMDL
MODEL 4
REMARK VINA RESULT: -6.528444487      4.516      6.689
REMARK  9 active torsions:
REMARK  status: ('A' for Active; 'I' for Inactive)
REMARK    1  A    between atoms: C2_2  and  C3_3 
REMARK    2  A    between atoms: C3_3  and  C4_4 
REMARK    3  A    between atoms: C4_4  and  N1_5 
REMARK       I    between atoms: N1_5  and  C5_7 
REMARK    4  A    between atoms: C5_7  and  C6_9 
REMARK    5  A    between atoms: C10_14  and  C11_15 
REMARK    6  A    between atoms: C13_20  and  N3_21 
REMARK       I    between atoms: N3_21  and  C14_23 
REMARK       I    between atoms: C14_23  and  N4_25 
REMARK    7  A    between atoms: N4_25  and  C15_27 
REMARK    8  A    between atoms: C15_27  and  C16_28 
REMARK    9  A    between atoms: C16_28  and  N5_29 
ROOT
HETATM    1  N5  UNL     1      -1.872  13.276  17.082  1.00  0.00    -0.323 N 
HETATM    2  C17 UNL     1      -2.453  14.510  16.599  1.00  0.00     0.162 C 
HETATM    3  C18 UNL     1      -1.719  12.225  16.174  1.00  0.00     0.179 C 
HETATM    4  N6  UNL     1      -1.591  11.368  15.409  1.00  0.00    -0.172 NA
ENDROOT
BRANCH   1   5
HETATM    5  C16 UNL     1      -1.450  13.100  18.459  1.00  0.00     0.153 C 
BRANCH   5   6
HETATM    6  C15 UNL     1      -1.681  14.366  19.266  1.00  0.00     0.145 C 
BRANCH   6   7
HETATM    7  N4  UNL     1      -0.476  14.944  19.784  1.00  0.00    -0.342 N 
HETATM    8  C14 UNL     1       0.207  16.048  19.219  1.00  0.00     0.317 C 
HETATM    9  N3  UNL     1       1.401  16.575  19.784  1.00  0.00    -0.315 N 
HETATM   10  O3  UNL     1      -0.237  16.599  18.182  1.00  0.00    -0.247 OA
ATOM     11  H3  UNL     1       1.774  16.140  20.628  1.00  0.00     0.166 HD
ATOM     12  H4  UNL     1      -0.079  14.527  20.626  1.00  0.00     0.164 HD
BRANCH   9  13
HETATM   13  C13 UNL     1       2.114  17.707  19.211  1.00  0.00     0.293 C 
HETATM   14  N2  UNL     1       1.345  18.406  18.245  1.00  0.00    -0.042 N 
HETATM   15  C10 UNL     1       1.904  19.618  17.831  1.00  0.00     0.160 C 
ATOM     16  H22 UNL     1       0.393  18.549  18.582  1.00  0.00     0.280 HD
ATOM     17  H21 UNL     1       1.156  17.808  17.440  1.00  0.00     0.280 HD
HETATM   18  C9  UNL     1       1.043  20.842  18.110  1.00  0.00     0.172 C 
HETATM   19  C22 UNL     1       3.258  19.992  18.314  1.00  0.00     0.059 C 
HETATM   20  C6  UNL     1       0.835  21.156  19.562  1.00  0.00     0.116 C 
HETATM   21  O2  UNL     1       2.040  21.829  17.854  1.00  0.00    -0.376 OA
HETATM   22  C7  UNL     1       2.220  21.084  20.073  1.00  0.00     0.035 C 
HETATM   23  C8  UNL     1       2.992  21.404  18.791  1.00  0.00     0.134 C 
HETATM   24  C20 UNL     1       2.723  19.857  20.673  1.00  0.00     0.006 A 
HETATM   25  C19 UNL     1       2.777  18.511  20.273  1.00  0.00     0.046 A 
HETATM   26  C21 UNL     1       3.735  19.379  19.579  1.00  0.00     0.008 A 
BRANCH  15  27
HETATM   27  C11 UNL     1       2.014  19.605  16.291  1.00  0.00     0.037 C 
HETATM   28  C12 UNL     1       3.315  19.009  15.853  1.00  0.00     0.007 C 
ENDBRANCH  15  27
BRANCH  20  29
HETATM   29  C5  UNL     1      -0.209  20.475  20.268  1.00  0.00     0.224 C 
HETATM   30  N1  UNL     1      -0.449  20.734  21.634  1.00  0.00    -0.361 N 
ATOM     31  H1  UNL     1       0.122  21.412  22.139  1.00  0.00     0.162 HD
HETATM   32  O1  UNL     1      -0.935  19.634  19.692  1.00  0.00    -0.273 OA
BRANCH  30  33
HETATM   33  C4  UNL     1      -1.513  20.028  22.308  1.00  0.00     0.122 C 
BRANCH  33  34
HETATM   34  C3  UNL     1      -0.975  19.138  23.420  1.00  0.00     0.019 C 
BRANCH  34  35
HETATM   35  C2  UNL     1      -0.521  17.853  22.769  1.00  0.00    -0.003 C 
HETATM   36  C1  UNL     1      -1.660  16.880  22.559  1.00  0.00     0.005 C 
ENDBRANCH  34  35
ENDBRANCH  33  34
ENDBRANCH  30  33
ENDBRANCH  20  29
ENDBRANCH   9  13
ENDBRANCH   6   7
ENDBRANCH   5   6
ENDBRANCH   1   5
TORSDOF 9
ENDMDL
MODEL 5
REMARK VINA RESULT: -6.477827053      5.326      8.198
REMARK  9 active torsions:
REMARK  status: ('A' for Active; 'I' for Inactive)
REMARK    1  A    between atoms: C2_2  and  C3_3 
REMARK    2  A    between atoms: C3_3  and  C4_4 
REMARK    3  A    between atoms: C4_4  and  N1_5 
REMARK       I    between atoms: N1_5  and  C5_7 
REMARK    4  A    between atoms: C5_7  and  C6_9 
REMARK    5  A    between atoms: C10_14  and  C11_15 
REMARK    6  A    between atoms: C13_20  and  N3_21 
REMARK       I    between atoms: N3_21  and  C14_23 
REMARK       I    between atoms: C14_23  and  N4_25 
REMARK    7  A    between atoms: N4_25  and  C15_27 
REMARK    8  A    between atoms: C15_27  and  C16_28 
REMARK    9  A    between atoms: C16_28  and  N5_29 
ROOT
HETATM    1  N5  UNL     1      -1.423  13.675  17.602  1.00  0.00    -0.323 N 
HETATM    2  C17 UNL     1      -0.785  13.474  18.886  1.00  0.00     0.162 C 
HETATM    3  C18 UNL     1      -1.583  12.563  16.770  1.00  0.00     0.179 C 
HETATM    4  N6  UNL     1      -1.716  11.633  16.098  1.00  0.00    -0.172 NA
ENDROOT
BRANCH   1   5
HETATM    5  C16 UNL     1      -1.894  14.973  17.160  1.00  0.00     0.153 C 
BRANCH   5   6
HETATM    6  C15 UNL     1      -1.109  16.092  17.823  1.00  0.00     0.145 C 
BRANCH   6   7
HETATM    7  N4  UNL     1      -0.323  16.864  16.905  1.00  0.00    -0.342 N 
HETATM    8  C14 UNL     1       0.841  17.595  17.243  1.00  0.00     0.317 C 
HETATM    9  N3  UNL     1       1.577  18.342  16.281  1.00  0.00    -0.315 N 
HETATM   10  O3  UNL     1       1.260  17.601  18.426  1.00  0.00    -0.247 OA
ATOM     11  H3  UNL     1       1.251  18.347  15.315  1.00  0.00     0.166 HD
ATOM     12  H4  UNL     1      -0.628  16.889  15.932  1.00  0.00     0.164 HD
BRANCH   9  13
HETATM   13  C13 UNL     1       2.773  19.100  16.616  1.00  0.00     0.293 C 
HETATM   14  N2  UNL     1       3.683  19.195  15.532  1.00  0.00    -0.042 N 
HETATM   15  C10 UNL     1       4.736  20.090  15.741  1.00  0.00     0.160 C 
ATOM     16  H22 UNL     1       3.188  19.422  14.670  1.00  0.00     0.280 HD
ATOM     17  H21 UNL     1       4.043  18.272  15.288  1.00  0.00     0.280 HD
HETATM   18  C9  UNL     1       4.799  21.238  14.745  1.00  0.00     0.172 C 
HETATM   19  C22 UNL     1       4.883  20.736  17.070  1.00  0.00     0.059 C 
HETATM   20  C6  UNL     1       3.650  22.200  14.808  1.00  0.00     0.116 C 
HETATM   21  O2  UNL     1       5.744  22.040  15.450  1.00  0.00    -0.376 OA
HETATM   22  C7  UNL     1       3.583  22.472  16.259  1.00  0.00     0.035 C 
HETATM   23  C8  UNL     1       5.034  22.182  16.650  1.00  0.00     0.134 C 
HETATM   24  C20 UNL     1       2.671  21.723  17.109  1.00  0.00     0.006 A 
HETATM   25  C19 UNL     1       2.424  20.357  17.332  1.00  0.00     0.046 A 
HETATM   26  C21 UNL     1       3.674  20.841  17.925  1.00  0.00     0.008 A 
BRANCH  15  27
HETATM   27  C11 UNL     1       6.066  19.342  15.506  1.00  0.00     0.037 C 
HETATM   28  C12 UNL     1       6.051  18.625  14.192  1.00  0.00     0.007 C 
ENDBRANCH  15  27
BRANCH  20  29
HETATM   29  C5  UNL     1       2.448  21.879  14.098  1.00  0.00     0.224 C 
HETATM   30  N1  UNL     1       2.478  21.045  12.960  1.00  0.00    -0.361 N 
ATOM     31  H1  UNL     1       3.362  20.660  12.626  1.00  0.00     0.162 HD
HETATM   32  O1  UNL     1       1.340  22.329  14.468  1.00  0.00    -0.273 OA
BRANCH  30  33
HETATM   33  C4  UNL     1       1.244  20.745  12.275  1.00  0.00     0.122 C 
BRANCH  33  34
HETATM   34  C3  UNL     1       1.280  19.360  11.642  1.00  0.00     0.019 C 
BRANCH  34  35
HETATM   35  C2  UNL     1       1.999  19.502  10.322  1.00  0.00    -0.003 C 
HETATM   36  C1  UNL     1       2.339  18.163   9.705  1.00  0.00     0.005 C 
ENDBRANCH  34  35
ENDBRANCH  33  34
ENDBRANCH  30  33
ENDBRANCH  20  29
ENDBRANCH   9  13
ENDBRANCH   6   7
ENDBRANCH   5   6
ENDBRANCH   1   5
TORSDOF 9
ENDMDL
