MODEL 1
REMARK VINA RESULT: -6.662631717      0.000      0.000
REMARK  10 active torsions:
REMARK  status: ('A' for Active; 'I' for Inactive)
REMARK    1  A    between atoms: C8_8  and  O1_9 
REMARK    2  A    between atoms: C9_13  and  C10_14 
REMARK    3  A    between atoms: C10_14  and  C11_15 
REMARK    4  A    between atoms: C11_15  and  C12_16 
REMARK    5  A    between atoms: C12_16  and  N2_17 
REMARK    6  A    between atoms: N5_24  and  C15_25 
REMARK    7  A    between atoms: C15_25  and  C16_26 
REMARK    8  A    between atoms: C16_26  and  C17_27 
REMARK    9  A    between atoms: C17_27  and  C18_28 
REMARK   10  A    between atoms: C18_28  and  S1_29 
ROOT
HETATM    1  C1  UNL     1      -0.276  18.024  22.802  1.00  0.00     0.024 C 
HETATM    2  C2  UNL     1       0.258  18.621  21.496  1.00  0.00     0.097 C 
HETATM    3  C3  UNL     1       1.702  18.991  21.650  1.00  0.00    -0.017 C 
HETATM    4  C4  UNL     1       2.467  20.013  21.661  1.00  0.00    -0.030 C 
HETATM    5  C5  UNL     1       3.916  20.353  21.805  1.00  0.00     0.027 C 
HETATM    6  C6  UNL     1       4.421  21.114  20.579  1.00  0.00     0.012 C 
HETATM    7  C7  UNL     1       4.517  20.277  19.293  1.00  0.00     0.084 C 
HETATM    8  C8  UNL     1       3.183  19.915  18.789  1.00  0.00     0.111 C 
HETATM    9  N1  UNL     1       2.480  18.855  18.350  1.00  0.00    -0.361 N 
ATOM     10  H1  UNL     1       2.605  18.119  19.046  1.00  0.00     0.162 HD
HETATM   11  C9  UNL     1       1.641  18.312  17.343  1.00  0.00     0.176 C 
HETATM   12  C14 UNL     1       0.228  18.117  17.924  1.00  0.00     0.249 C 
HETATM   13  O2  UNL     1      -0.671  18.623  17.161  1.00  0.00    -0.271 OA
HETATM   14  N5  UNL     1      -0.210  17.510  19.087  1.00  0.00    -0.286 N 
HETATM   15  C19 UNL     1       0.149  17.538  20.432  1.00  0.00     0.233 C 
HETATM   16  O5  UNL     1       0.476  16.386  20.938  1.00  0.00    -0.272 OA
ENDROOT
BRANCH  11  17
HETATM   17  C10 UNL     1       1.629  18.829  15.978  1.00  0.00     0.036 C 
BRANCH  17  18
HETATM   18  C11 UNL     1       2.861  18.994  15.198  1.00  0.00     0.022 C 
BRANCH  18  19
HETATM   19  C12 UNL     1       2.820  20.384  14.511  1.00  0.00     0.122 C 
BRANCH  19  20
HETATM   20  N2  UNL     1       2.945  21.345  15.591  1.00  0.00    -0.367 N 
HETATM   21  C13 UNL     1       4.030  22.006  15.809  1.00  0.00     0.196 C 
HETATM   22  N3  UNL     1       5.147  21.763  14.937  1.00  0.00    -0.067 NA
HETATM   23  N4  UNL     1       4.196  22.941  16.837  1.00  0.00    -0.067 NA
ATOM     24  H2  UNL     1       2.143  21.504  16.201  1.00  0.00     0.161 HD
ENDBRANCH  19  20
ENDBRANCH  18  19
ENDBRANCH  17  18
ENDBRANCH  11  17
BRANCH   8  25
HETATM   25  O1  UNL     1       2.539  21.057  18.814  1.00  0.00    -0.350 OA
ATOM     26  H1  UNL     1       2.650  21.385  17.929  1.00  0.00     0.219 HD
ENDBRANCH   8  25
BRANCH  14  27
HETATM   27  C15 UNL     1      -1.379  16.564  18.861  1.00  0.00     0.135 C 
BRANCH  27  28
HETATM   28  C16 UNL     1      -0.962  15.434  17.998  1.00  0.00     0.021 C 
BRANCH  28  29
HETATM   29  C17 UNL     1      -1.864  15.269  16.812  1.00  0.00     0.018 C 
BRANCH  29  30
HETATM   30  C18 UNL     1      -2.656  13.993  16.861  1.00  0.00     0.157 C 
BRANCH  30  31
HETATM   31  S1  UNL     1      -1.588  12.593  17.108  1.00  0.00     0.250 S 
HETATM   32  O3  UNL     1      -1.664  11.606  15.775  1.00  0.00    -0.212 OA
HETATM   33  O4  UNL     1      -1.957  11.799  18.513  1.00  0.00    -0.212 OA
ENDBRANCH  30  31
ENDBRANCH  29  30
ENDBRANCH  28  29
ENDBRANCH  27  28
ENDBRANCH  14  27
TORSDOF 10
ENDMDL
MODEL 2
REMARK VINA RESULT: -6.522743095      4.704      7.398
REMARK  10 active torsions:
REMARK  status: ('A' for Active; 'I' for Inactive)
REMARK    1  A    between atoms: C8_8  and  O1_9 
REMARK    2  A    between atoms: C9_13  and  C10_14 
REMARK    3  A    between atoms: C10_14  and  C11_15 
REMARK    4  A    between atoms: C11_15  and  C12_16 
REMARK    5  A    between atoms: C12_16  and  N2_17 
REMARK    6  A    between atoms: N5_24  and  C15_25 
REMARK    7  A    between atoms: C15_25  and  C16_26 
REMARK    8  A    between atoms: C16_26  and  C17_27 
REMARK    9  A    between atoms: C17_27  and  C18_28 
REMARK   10  A    between atoms: C18_28  and  S1_29 
ROOT
HETATM    1  C1  UNL     1      -3.740  20.864  15.377  1.00  0.00     0.024 C 
HETATM    2  C2  UNL     1      -2.987  19.667  15.964  1.00  0.00     0.097 C 
HETATM    3  C3  UNL     1      -1.550  20.024  16.194  1.00  0.00    -0.017 C 
HETATM    4  C4  UNL     1      -0.377  19.724  15.787  1.00  0.00    -0.030 C 
HETATM    5  C5  UNL     1       1.050  20.090  16.045  1.00  0.00     0.027 C 
HETATM    6  C6  UNL     1       1.860  18.862  16.460  1.00  0.00     0.012 C 
HETATM    7  C7  UNL     1       1.521  18.303  17.851  1.00  0.00     0.084 C 
HETATM    8  C8  UNL     1       0.181  17.694  17.870  1.00  0.00     0.111 C 
HETATM    9  N1  UNL     1      -0.959  17.692  18.586  1.00  0.00    -0.361 N 
ATOM     10  H1  UNL     1      -1.213  18.670  18.725  1.00  0.00     0.162 HD
HETATM   11  C9  UNL     1      -1.962  16.923  19.231  1.00  0.00     0.176 C 
HETATM   12  C14 UNL     1      -3.281  17.070  18.451  1.00  0.00     0.249 C 
HETATM   13  O2  UNL     1      -3.812  15.929  18.201  1.00  0.00    -0.271 OA
HETATM   14  N5  UNL     1      -3.958  18.187  17.995  1.00  0.00    -0.286 N 
HETATM   15  C19 UNL     1      -3.626  19.353  17.309  1.00  0.00     0.233 C 
HETATM   16  O5  UNL     1      -3.913  20.457  17.931  1.00  0.00    -0.272 OA
ENDROOT
BRANCH  11  17
HETATM   17  C10 UNL     1      -1.722  15.559  19.692  1.00  0.00     0.036 C 
BRANCH  17  18
HETATM   18  C11 UNL     1      -0.718  14.690  19.064  1.00  0.00     0.022 C 
BRANCH  18  19
HETATM   19  C12 UNL     1      -1.371  13.312  18.787  1.00  0.00     0.122 C 
BRANCH  19  20
HETATM   20  N2  UNL     1      -2.000  13.444  17.486  1.00  0.00    -0.367 N 
HETATM   21  C13 UNL     1      -1.812  12.594  16.535  1.00  0.00     0.196 C 
HETATM   22  N3  UNL     1      -0.940  11.481  16.797  1.00  0.00    -0.067 NA
HETATM   23  N4  UNL     1      -2.395  12.681  15.266  1.00  0.00    -0.067 NA
ATOM     24  H2  UNL     1      -2.614  14.241  17.316  1.00  0.00     0.161 HD
ENDBRANCH  19  20
ENDBRANCH  18  19
ENDBRANCH  17  18
ENDBRANCH  11  17
BRANCH   8  25
HETATM   25  O1  UNL     1       0.191  16.925  16.809  1.00  0.00    -0.350 OA
ATOM     26  H1  UNL     1      -0.732  16.832  16.603  1.00  0.00     0.219 HD
ENDBRANCH   8  25
BRANCH  14  27
HETATM   27  C15 UNL     1      -5.444  18.156  18.317  1.00  0.00     0.135 C 
BRANCH  27  28
HETATM   28  C16 UNL     1      -6.238  18.238  17.070  1.00  0.00     0.021 C 
BRANCH  28  29
HETATM   29  C17 UNL     1      -7.318  19.274  17.157  1.00  0.00     0.018 C 
BRANCH  29  30
HETATM   30  C18 UNL     1      -7.611  19.686  18.572  1.00  0.00     0.157 C 
BRANCH  30  31
HETATM   31  S1  UNL     1      -9.148  18.988  19.130  1.00  0.00     0.250 S 
HETATM   32  O3  UNL     1      -8.850  17.934  20.378  1.00  0.00    -0.212 OA
HETATM   33  O4  UNL     1      -9.974  18.282  17.880  1.00  0.00    -0.212 OA
ENDBRANCH  30  31
ENDBRANCH  29  30
ENDBRANCH  28  29
ENDBRANCH  27  28
ENDBRANCH  14  27
TORSDOF 10
ENDMDL
MODEL 3
REMARK VINA RESULT: -6.459795659      3.799      8.005
REMARK  10 active torsions:
REMARK  status: ('A' for Active; 'I' for Inactive)
REMARK    1  A    between atoms: C8_8  and  O1_9 
REMARK    2  A    between atoms: C9_13  and  C10_14 
REMARK    3  A    between atoms: C10_14  and  C11_15 
REMARK    4  A    between atoms: C11_15  and  C12_16 
REMARK    5  A    between atoms: C12_16  and  N2_17 
REMARK    6  A    between atoms: N5_24  and  C15_25 
REMARK    7  A    between atoms: C15_25  and  C16_26 
REMARK    8  A    between atoms: C16_26  and  C17_27 
REMARK    9  A    between atoms: C17_27  and  C18_28 
REMARK   10  A    between atoms: C18_28  and  S1_29 
ROOT
HETATM    1  C1  UNL     1       0.550  21.311  18.189  1.00  0.00     0.024 C 
HETATM    2  C2  UNL     1      -0.200  20.014  18.508  1.00  0.00     0.097 C 
HETATM    3  C3  UNL     1      -1.324  19.816  17.537  1.00  0.00    -0.017 C 
HETATM    4  C4  UNL     1      -2.599  19.769  17.494  1.00  0.00    -0.030 C 
HETATM    5  C5  UNL     1      -3.701  19.555  16.505  1.00  0.00     0.027 C 
HETATM    6  C6  UNL     1      -4.573  18.367  16.912  1.00  0.00     0.012 C 
HETATM    7  C7  UNL     1      -3.894  16.993  16.785  1.00  0.00     0.084 C 
HETATM    8  C8  UNL     1      -2.827  16.830  17.785  1.00  0.00     0.111 C 
HETATM    9  N1  UNL     1      -1.541  16.449  17.894  1.00  0.00    -0.361 N 
ATOM     10  H1  UNL     1      -1.027  16.963  17.178  1.00  0.00     0.162 HD
HETATM   11  C9  UNL     1      -0.587  15.644  18.568  1.00  0.00     0.176 C 
HETATM   12  C14 UNL     1       0.351  16.557  19.379  1.00  0.00     0.249 C 
HETATM   13  O2  UNL     1       0.465  16.158  20.594  1.00  0.00    -0.271 OA
HETATM   14  N5  UNL     1       1.061  17.690  19.025  1.00  0.00    -0.286 N 
HETATM   15  C19 UNL     1       0.790  18.871  18.339  1.00  0.00     0.233 C 
HETATM   16  O5  UNL     1       1.540  19.086  17.299  1.00  0.00    -0.272 OA
ENDROOT
BRANCH  11  17
HETATM   17  C10 UNL     1      -0.961  14.430  19.287  1.00  0.00     0.036 C 
BRANCH  17  18
HETATM   18  C11 UNL     1      -0.454  13.108  18.900  1.00  0.00     0.022 C 
BRANCH  18  19
HETATM   19  C12 UNL     1      -1.661  12.218  18.504  1.00  0.00     0.122 C 
BRANCH  19  20
HETATM   20  N2  UNL     1      -1.413  11.832  17.128  1.00  0.00    -0.367 N 
HETATM   21  C13 UNL     1      -1.952  12.442  16.128  1.00  0.00     0.196 C 
HETATM   22  N3  UNL     1      -2.830  13.544  16.413  1.00  0.00    -0.067 NA
HETATM   23  N4  UNL     1      -1.743  12.104  14.786  1.00  0.00    -0.067 NA
ATOM     24  H2  UNL     1      -0.788  11.046  16.944  1.00  0.00     0.161 HD
ENDBRANCH  19  20
ENDBRANCH  18  19
ENDBRANCH  17  18
ENDBRANCH  11  17
BRANCH   8  25
HETATM   25  O1  UNL     1      -3.407  17.205  18.899  1.00  0.00    -0.350 OA
ATOM     26  H1  UNL     1      -3.597  18.123  18.744  1.00  0.00     0.219 HD
ENDBRANCH   8  25
BRANCH  14  27
HETATM   27  C15 UNL     1       2.508  17.656  19.492  1.00  0.00     0.135 C 
BRANCH  27  28
HETATM   28  C16 UNL     1       2.720  18.652  20.567  1.00  0.00     0.021 C 
BRANCH  28  29
HETATM   29  C17 UNL     1       4.002  19.408  20.389  1.00  0.00     0.018 C 
BRANCH  29  30
HETATM   30  C18 UNL     1       3.811  20.705  19.654  1.00  0.00     0.157 C 
BRANCH  30  31
HETATM   31  S1  UNL     1       5.077  20.930  18.427  1.00  0.00     0.250 S 
HETATM   32  O3  UNL     1       5.495  22.536  18.360  1.00  0.00    -0.212 OA
HETATM   33  O4  UNL     1       4.600  20.332  16.958  1.00  0.00    -0.212 OA
ENDBRANCH  30  31
ENDBRANCH  29  30
ENDBRANCH  28  29
ENDBRANCH  27  28
ENDBRANCH  14  27
TORSDOF 10
ENDMDL
MODEL 4
REMARK VINA RESULT: -6.447853640      4.620      7.255
REMARK  10 active torsions:
REMARK  status: ('A' for Active; 'I' for Inactive)
REMARK    1  A    between atoms: C8_8  and  O1_9 
REMARK    2  A    between atoms: C9_13  and  C10_14 
REMARK    3  A    between atoms: C10_14  and  C11_15 
REMARK    4  A    between atoms: C11_15  and  C12_16 
REMARK    5  A    between atoms: C12_16  and  N2_17 
REMARK    6  A    between atoms: N5_24  and  C15_25 
REMARK    7  A    between atoms: C15_25  and  C16_26 
REMARK    8  A    between atoms: C16_26  and  C17_27 
REMARK    9  A    between atoms: C17_27  and  C18_28 
REMARK   10  A    between atoms: C18_28  and  S1_29 
ROOT
HETATM    1  C1  UNL     1      -3.621  20.978  15.462  1.00  0.00     0.024 C 
HETATM    2  C2  UNL     1      -2.899  19.754  16.033  1.00  0.00     0.097 C 
HETATM    3  C3  UNL     1      -1.456  20.075  16.281  1.00  0.00    -0.017 C 
HETATM    4  C4  UNL     1      -0.287  19.757  15.879  1.00  0.00    -0.030 C 
HETATM    5  C5  UNL     1       1.146  20.088  16.156  1.00  0.00     0.027 C 
HETATM    6  C6  UNL     1       1.926  18.835  16.553  1.00  0.00     0.012 C 
HETATM    7  C7  UNL     1       1.562  18.257  17.930  1.00  0.00     0.084 C 
HETATM    8  C8  UNL     1       0.210  17.677  17.927  1.00  0.00     0.111 C 
HETATM    9  N1  UNL     1      -0.936  17.685  18.633  1.00  0.00    -0.361 N 
ATOM     10  H1  UNL     1      -1.171  18.666  18.789  1.00  0.00     0.162 HD
HETATM   11  C9  UNL     1      -1.961  16.926  19.254  1.00  0.00     0.176 C 
HETATM   12  C14 UNL     1      -3.270  17.117  18.466  1.00  0.00     0.249 C 
HETATM   13  O2  UNL     1      -3.823  15.992  18.191  1.00  0.00    -0.271 OA
HETATM   14  N5  UNL     1      -3.919  18.256  18.027  1.00  0.00    -0.286 N 
HETATM   15  C19 UNL     1      -3.556  19.428  17.366  1.00  0.00     0.233 C 
HETATM   16  O5  UNL     1      -3.824  20.526  18.007  1.00  0.00    -0.272 OA
ENDROOT
BRANCH  11  17
HETATM   17  C10 UNL     1      -1.754  15.549  19.691  1.00  0.00     0.036 C 
BRANCH  17  18
HETATM   18  C11 UNL     1      -0.738  14.683  19.080  1.00  0.00     0.022 C 
BRANCH  18  19
HETATM   19  C12 UNL     1      -1.383  13.303  18.792  1.00  0.00     0.122 C 
BRANCH  19  20
HETATM   20  N2  UNL     1      -1.995  13.435  17.483  1.00  0.00    -0.367 N 
HETATM   21  C13 UNL     1      -1.798  12.581  16.536  1.00  0.00     0.196 C 
HETATM   22  N3  UNL     1      -0.935  11.465  16.812  1.00  0.00    -0.067 NA
HETATM   23  N4  UNL     1      -2.365  12.668  15.260  1.00  0.00    -0.067 NA
ATOM     24  H2  UNL     1      -2.603  14.234  17.304  1.00  0.00     0.161 HD
ENDBRANCH  19  20
ENDBRANCH  18  19
ENDBRANCH  17  18
ENDBRANCH  11  17
BRANCH   8  25
HETATM   25  O1  UNL     1       0.212  16.928  16.851  1.00  0.00    -0.350 OA
ATOM     26  H1  UNL     1      -0.001  17.545  16.160  1.00  0.00     0.219 HD
ENDBRANCH   8  25
BRANCH  14  27
HETATM   27  C15 UNL     1      -5.408  18.251  18.336  1.00  0.00     0.135 C 
BRANCH  27  28
HETATM   28  C16 UNL     1      -6.189  18.368  17.084  1.00  0.00     0.021 C 
BRANCH  28  29
HETATM   29  C17 UNL     1      -7.334  19.326  17.222  1.00  0.00     0.018 C 
BRANCH  29  30
HETATM   30  C18 UNL     1      -8.122  19.472  15.951  1.00  0.00     0.157 C 
BRANCH  30  31
HETATM   31  S1  UNL     1      -9.111  18.026  15.649  1.00  0.00     0.250 S 
HETATM   32  O3  UNL     1      -9.522  17.331  17.100  1.00  0.00    -0.212 OA
HETATM   33  O4  UNL     1      -8.338  16.973  14.632  1.00  0.00    -0.212 OA
ENDBRANCH  30  31
ENDBRANCH  29  30
ENDBRANCH  28  29
ENDBRANCH  27  28
ENDBRANCH  14  27
TORSDOF 10
ENDMDL
MODEL 5
REMARK VINA RESULT: -6.446406178      1.587      2.487
REMARK  10 active torsions:
REMARK  status: ('A' for Active; 'I' for Inactive)
REMARK    1  A    between atoms: C8_8  and  O1_9 
REMARK    2  A    between atoms: C9_13  and  C10_14 
REMARK    3  A    between atoms: C10_14  and  C11_15 
REMARK    4  A    between atoms: C11_15  and  C12_16 
REMARK    5  A    between atoms: C12_16  and  N2_17 
REMARK    6  A    between atoms: N5_24  and  C15_25 
REMARK    7  A    between atoms: C15_25  and  C16_26 
REMARK    8  A    between atoms: C16_26  and  C17_27 
REMARK    9  A    between atoms: C17_27  and  C18_28 
REMARK   10  A    between atoms: C18_28  and  S1_29 
ROOT
HETATM    1  C1  UNL     1      -1.683  16.753  21.767  1.00  0.00     0.024 C 
HETATM    2  C2  UNL     1      -0.694  17.843  21.344  1.00  0.00     0.097 C 
HETATM    3  C3  UNL     1       0.176  18.229  22.502  1.00  0.00    -0.017 C 
HETATM    4  C4  UNL     1       0.425  19.220  23.266  1.00  0.00    -0.030 C 
HETATM    5  C5  UNL     1       1.314  19.583  24.414  1.00  0.00     0.027 C 
HETATM    6  C6  UNL     1       2.184  20.792  24.067  1.00  0.00     0.012 C 
HETATM    7  C7  UNL     1       3.275  20.523  23.018  1.00  0.00     0.084 C 
HETATM    8  C8  UNL     1       2.692  20.288  21.688  1.00  0.00     0.111 C 
HETATM    9  N1  UNL     1       2.754  19.430  20.652  1.00  0.00    -0.361 N 
ATOM     10  H1  UNL     1       2.660  18.495  21.048  1.00  0.00     0.162 HD
HETATM   11  C9  UNL     1       2.894  19.258  19.251  1.00  0.00     0.176 C 
HETATM   12  C14 UNL     1       1.557  18.753  18.676  1.00  0.00     0.249 C 
HETATM   13  O2  UNL     1       1.186  19.448  17.663  1.00  0.00    -0.271 OA
HETATM   14  N5  UNL     1       0.728  17.715  19.059  1.00  0.00    -0.286 N 
HETATM   15  C19 UNL     1       0.188  17.249  20.256  1.00  0.00     0.233 C 
HETATM   16  O5  UNL     1       0.485  16.018  20.550  1.00  0.00    -0.272 OA
ENDROOT
BRANCH  11  17
HETATM   17  C10 UNL     1       3.537  20.258  18.404  1.00  0.00     0.036 C 
BRANCH  17  18
HETATM   18  C11 UNL     1       4.904  20.729  18.655  1.00  0.00     0.022 C 
BRANCH  18  19
HETATM   19  C12 UNL     1       5.631  20.867  17.293  1.00  0.00     0.122 C 
BRANCH  19  20
HETATM   20  N2  UNL     1       4.664  21.489  16.408  1.00  0.00    -0.367 N 
HETATM   21  C13 UNL     1       4.710  21.355  15.126  1.00  0.00     0.196 C 
HETATM   22  N3  UNL     1       5.771  20.555  14.576  1.00  0.00    -0.067 NA
HETATM   23  N4  UNL     1       3.801  21.936  14.234  1.00  0.00    -0.067 NA
ATOM     24  H2  UNL     1       3.918  22.055  16.815  1.00  0.00     0.161 HD
ENDBRANCH  19  20
ENDBRANCH  18  19
ENDBRANCH  17  18
ENDBRANCH  11  17
BRANCH   8  25
HETATM   25  O1  UNL     1       1.848  21.282  21.556  1.00  0.00    -0.350 OA
ATOM     26  H1  UNL     1       2.190  21.756  20.806  1.00  0.00     0.219 HD
ENDBRANCH   8  25
BRANCH  14  27
HETATM   27  C15 UNL     1       0.282  16.847  17.892  1.00  0.00     0.135 C 
BRANCH  27  28
HETATM   28  C16 UNL     1      -1.190  16.906  17.746  1.00  0.00     0.021 C 
BRANCH  28  29
HETATM   29  C17 UNL     1      -1.760  15.607  17.262  1.00  0.00     0.018 C 
BRANCH  29  30
HETATM   30  C18 UNL     1      -2.077  14.661  18.385  1.00  0.00     0.157 C 
BRANCH  30  31
HETATM   31  S1  UNL     1      -1.060  13.205  18.293  1.00  0.00     0.250 S 
HETATM   32  O3  UNL     1      -2.021  11.883  18.000  1.00  0.00    -0.212 OA
HETATM   33  O4  UNL     1      -0.135  13.034  19.656  1.00  0.00    -0.212 OA
ENDBRANCH  30  31
ENDBRANCH  29  30
ENDBRANCH  28  29
ENDBRANCH  27  28
ENDBRANCH  14  27
TORSDOF 10
ENDMDL
