MODEL 1
REMARK VINA RESULT: -7.186133281      0.000      0.000
REMARK  11 active torsions:
REMARK  status: ('A' for Active; 'I' for Inactive)
REMARK    1  A    between atoms: C2_2  and  C3_3 
REMARK    2  A    between atoms: C3_3  and  N1_4 
REMARK    3  A    between atoms: N1_4  and  C4_5 
REMARK       I    between atoms: N1_4  and  C19_32 
REMARK    4  A    between atoms: C4_5  and  C5_6 
REMARK    5  A    between atoms: C5_6  and  C6_7 
REMARK    6  A    between atoms: C6_7  and  N2_8 
REMARK    7  A    between atoms: N2_8  and  C7_10 
REMARK    8  A    between atoms: C13_19  and  C14_20 
REMARK    9  A    between atoms: C16_27  and  O2_28 
REMARK   10  A    between atoms: C19_32  and  C20_34 
REMARK   11  A    between atoms: C20_34  and  N7_35 
ROOT
HETATM    1  C7  UNL     1      -1.952  19.955  14.901  1.00  0.00     0.117 A 
HETATM    2  C8  UNL     1      -3.211  20.507  15.016  1.00  0.00     0.139 A 
HETATM    3  N3  UNL     1      -4.179  19.937  15.754  1.00  0.00    -0.356 N 
HETATM    4  C9  UNL     1      -5.505  20.489  15.896  1.00  0.00     0.156 C 
HETATM    5  C10 UNL     1      -3.936  18.772  16.423  1.00  0.00     0.061 A 
HETATM    6  C11 UNL     1      -2.689  18.212  16.318  1.00  0.00     0.071 A 
HETATM    7  N4  UNL     1      -1.728  18.805  15.566  1.00  0.00    -0.339 N 
ATOM      8  H4  UNL     1      -0.809  18.368  15.503  1.00  0.00     0.167 HD
HETATM    9  C12 UNL     1      -2.710  16.974  17.142  1.00  0.00    -0.005 A 
HETATM   10  C13 UNL     1      -1.652  16.214  17.268  1.00  0.00     0.048 C 
HETATM   11  C17 UNL     1      -4.047  16.905  17.696  1.00  0.00     0.016 A 
HETATM   12  C18 UNL     1      -4.781  17.945  17.288  1.00  0.00     0.033 A 
ENDROOT
BRANCH   1  13
HETATM   13  N2  UNL     1      -1.003  20.513  14.187  1.00  0.00    -0.375 N 
ATOM     14  H2  UNL     1      -1.121  20.710  13.193  1.00  0.00     0.161 HD
BRANCH  13  15
HETATM   15  C6  UNL     1       0.217  20.832  14.886  1.00  0.00     0.123 C 
BRANCH  15  16
HETATM   16  C5  UNL     1       1.445  20.324  14.144  1.00  0.00     0.039 C 
BRANCH  16  17
HETATM   17  C4  UNL     1       1.964  19.053  14.728  1.00  0.00     0.127 C 
BRANCH  17  18
HETATM   18  N1  UNL     1       2.850  19.331  15.824  1.00  0.00    -0.347 N 
HETATM   19  C19 UNL     1       2.503  19.040  17.193  1.00  0.00     0.241 C 
HETATM   20  O3  UNL     1       3.262  19.311  18.133  1.00  0.00    -0.271 OA
BRANCH  18  21
HETATM   21  C3  UNL     1       4.180  19.907  15.661  1.00  0.00     0.152 C 
BRANCH  21  22
HETATM   22  C2  UNL     1       4.926  19.327  14.518  1.00  0.00    -0.017 C 
HETATM   23  C1  UNL     1       6.095  18.703  14.700  1.00  0.00     0.008 C 
ENDBRANCH  21  22
ENDBRANCH  18  21
BRANCH  19  24
HETATM   24  C20 UNL     1       1.209  18.400  17.515  1.00  0.00     0.276 C 
BRANCH  24  25
HETATM   25  N7  UNL     1       1.244  17.804  18.852  1.00  0.00    -0.182 N 
HETATM   26  N8  UNL     1       1.742  16.732  19.418  1.00  0.00    -0.162 N 
HETATM   27  O4  UNL     1       1.256  17.109  20.544  1.00  0.00    -0.123 OA
ATOM     28  H8  UNL     1       2.288  15.931  19.098  1.00  0.00     0.220 HD
HETATM   29  N9  UNL     1       0.758  18.169  20.010  1.00  0.00    -0.162 N 
ATOM     30  H9  UNL     1       0.213  18.961  20.348  1.00  0.00     0.220 HD
ENDBRANCH  24  25
ENDBRANCH  19  24
ENDBRANCH  17  18
ENDBRANCH  16  17
ENDBRANCH  15  16
ENDBRANCH  13  15
ENDBRANCH   1  13
BRANCH  10  31
HETATM   31  C14 UNL     1      -1.615  15.004  18.048  1.00  0.00     0.088 A 
HETATM   32  N5  UNL     1      -1.831  13.753  17.528  1.00  0.00    -0.305 N 
HETATM   33  C15 UNL     1      -1.768  12.833  18.498  1.00  0.00     0.326 A 
ATOM     34  H5  UNL     1      -2.013  13.553  16.544  1.00  0.00     0.171 HD
HETATM   35  O1  UNL     1      -1.908  11.589  18.436  1.00  0.00    -0.247 OA
HETATM   36  N6  UNL     1      -1.511  13.464  19.667  1.00  0.00    -0.287 N 
HETATM   37  C16 UNL     1      -1.421  14.779  19.389  1.00  0.00     0.171 A 
ATOM     38  H6  UNL     1      -1.406  13.028  20.583  1.00  0.00     0.172 HD
BRANCH  37  39
HETATM   39  O2  UNL     1      -1.165  15.748  20.359  1.00  0.00    -0.344 OA
ATOM     40  H2  UNL     1      -1.564  15.801  21.220  1.00  0.00     0.219 HD
ENDBRANCH  37  39
ENDBRANCH  10  31
TORSDOF 11
ENDMDL
MODEL 2
REMARK VINA RESULT: -7.094782066      3.277      8.167
REMARK  11 active torsions:
REMARK  status: ('A' for Active; 'I' for Inactive)
REMARK    1  A    between atoms: C2_2  and  C3_3 
REMARK    2  A    between atoms: C3_3  and  N1_4 
REMARK    3  A    between atoms: N1_4  and  C4_5 
REMARK       I    between atoms: N1_4  and  C19_32 
REMARK    4  A    between atoms: C4_5  and  C5_6 
REMARK    5  A    between atoms: C5_6  and  C6_7 
REMARK    6  A    between atoms: C6_7  and  N2_8 
REMARK    7  A    between atoms: N2_8  and  C7_10 
REMARK    8  A    between atoms: C13_19  and  C14_20 
REMARK    9  A    between atoms: C16_27  and  O2_28 
REMARK   10  A    between atoms: C19_32  and  C20_34 
REMARK   11  A    between atoms: C20_34  and  N7_35 
ROOT
HETATM    1  C7  UNL     1       1.530  18.768  16.499  1.00  0.00     0.117 A 
HETATM    2  C8  UNL     1       2.135  18.904  15.267  1.00  0.00     0.139 A 
HETATM    3  N3  UNL     1       3.329  19.504  15.117  1.00  0.00    -0.356 N 
HETATM    4  C9  UNL     1       3.990  19.661  13.844  1.00  0.00     0.156 C 
HETATM    5  C10 UNL     1       3.987  20.005  16.204  1.00  0.00     0.061 A 
HETATM    6  C11 UNL     1       3.396  19.876  17.435  1.00  0.00     0.071 A 
HETATM    7  N4  UNL     1       2.191  19.268  17.561  1.00  0.00    -0.339 N 
ATOM      8  H4  UNL     1       1.772  19.187  18.488  1.00  0.00     0.167 HD
HETATM    9  C12 UNL     1       4.326  20.496  18.417  1.00  0.00    -0.005 A 
HETATM   10  C13 UNL     1       4.060  20.516  19.698  1.00  0.00     0.048 C 
HETATM   11  C17 UNL     1       5.452  20.965  17.635  1.00  0.00     0.016 A 
HETATM   12  C18 UNL     1       5.274  20.689  16.339  1.00  0.00     0.033 A 
ENDROOT
BRANCH   1  13
HETATM   13  N2  UNL     1       0.368  18.177  16.650  1.00  0.00    -0.375 N 
ATOM     14  H2  UNL     1       0.200  17.226  16.319  1.00  0.00     0.161 HD
BRANCH  13  15
HETATM   15  C6  UNL     1      -0.658  18.943  17.310  1.00  0.00     0.123 C 
BRANCH  15  16
HETATM   16  C5  UNL     1      -1.816  18.067  17.765  1.00  0.00     0.039 C 
BRANCH  16  17
HETATM   17  C4  UNL     1      -1.764  16.708  17.150  1.00  0.00     0.127 C 
BRANCH  17  18
HETATM   18  N1  UNL     1      -1.614  15.704  18.165  1.00  0.00    -0.347 N 
HETATM   19  C19 UNL     1      -1.957  14.321  17.942  1.00  0.00     0.241 C 
HETATM   20  O3  UNL     1      -1.852  13.468  18.834  1.00  0.00    -0.271 OA
BRANCH  18  21
HETATM   21  C3  UNL     1      -1.088  15.975  19.498  1.00  0.00     0.152 C 
BRANCH  21  22
HETATM   22  C2  UNL     1       0.392  16.057  19.530  1.00  0.00    -0.017 C 
HETATM   23  C1  UNL     1       1.016  17.085  20.118  1.00  0.00     0.008 C 
ENDBRANCH  21  22
ENDBRANCH  18  21
BRANCH  19  24
HETATM   24  C20 UNL     1      -2.450  13.877  16.620  1.00  0.00     0.276 C 
BRANCH  24  25
HETATM   25  N7  UNL     1      -1.877  12.579  16.261  1.00  0.00    -0.182 N 
HETATM   26  N8  UNL     1      -0.861  11.837  16.629  1.00  0.00    -0.162 N 
HETATM   27  O4  UNL     1      -1.208  10.948  15.771  1.00  0.00    -0.123 OA
ATOM     28  H8  UNL     1      -0.109  11.928  17.312  1.00  0.00     0.220 HD
HETATM   29  N9  UNL     1      -2.212  11.660  15.394  1.00  0.00    -0.162 N 
ATOM     30  H9  UNL     1      -2.957  11.552  14.706  1.00  0.00     0.220 HD
ENDBRANCH  24  25
ENDBRANCH  19  24
ENDBRANCH  17  18
ENDBRANCH  16  17
ENDBRANCH  15  16
ENDBRANCH  13  15
ENDBRANCH   1  13
BRANCH  10  31
HETATM   31  C14 UNL     1       4.919  21.106  20.692  1.00  0.00     0.088 A 
HETATM   32  N5  UNL     1       5.532  20.394  21.691  1.00  0.00    -0.305 N 
HETATM   33  C15 UNL     1       6.236  21.215  22.479  1.00  0.00     0.326 A 
ATOM     34  H5  UNL     1       5.462  19.383  21.816  1.00  0.00     0.171 HD
HETATM   35  O1  UNL     1       6.930  20.960  23.490  1.00  0.00    -0.247 OA
HETATM   36  N6  UNL     1       6.095  22.477  22.011  1.00  0.00    -0.287 N 
HETATM   37  C16 UNL     1       5.296  22.405  20.929  1.00  0.00     0.171 A 
ATOM     38  H6  UNL     1       6.514  23.321  22.401  1.00  0.00     0.172 HD
BRANCH  37  39
HETATM   39  O2  UNL     1       4.924  23.521  20.180  1.00  0.00    -0.344 OA
ATOM     40  H2  UNL     1       5.063  23.645  19.248  1.00  0.00     0.219 HD
ENDBRANCH  37  39
ENDBRANCH  10  31
TORSDOF 11
ENDMDL
MODEL 3
REMARK VINA RESULT: -7.048291043      2.702      4.712
REMARK  11 active torsions:
REMARK  status: ('A' for Active; 'I' for Inactive)
REMARK    1  A    between atoms: C2_2  and  C3_3 
REMARK    2  A    between atoms: C3_3  and  N1_4 
REMARK    3  A    between atoms: N1_4  and  C4_5 
REMARK       I    between atoms: N1_4  and  C19_32 
REMARK    4  A    between atoms: C4_5  and  C5_6 
REMARK    5  A    between atoms: C5_6  and  C6_7 
REMARK    6  A    between atoms: C6_7  and  N2_8 
REMARK    7  A    between atoms: N2_8  and  C7_10 
REMARK    8  A    between atoms: C13_19  and  C14_20 
REMARK    9  A    between atoms: C16_27  and  O2_28 
REMARK   10  A    between atoms: C19_32  and  C20_34 
REMARK   11  A    between atoms: C20_34  and  N7_35 
ROOT
HETATM    1  C7  UNL     1       2.721  19.156  20.709  1.00  0.00     0.117 A 
HETATM    2  C8  UNL     1       2.118  19.695  21.826  1.00  0.00     0.139 A 
HETATM    3  N3  UNL     1       0.920  19.274  22.267  1.00  0.00    -0.356 N 
HETATM    4  C9  UNL     1       0.262  19.816  23.432  1.00  0.00     0.156 C 
HETATM    5  C10 UNL     1       0.254  18.282  21.605  1.00  0.00     0.061 A 
HETATM    6  C11 UNL     1       0.842  17.738  20.493  1.00  0.00     0.071 A 
HETATM    7  N4  UNL     1       2.052  18.179  20.066  1.00  0.00    -0.339 N 
ATOM      8  H4  UNL     1       2.467  17.758  19.235  1.00  0.00     0.167 HD
HETATM    9  C12 UNL     1      -0.090  16.694  19.989  1.00  0.00    -0.005 A 
HETATM   10  C13 UNL     1       0.195  15.966  18.940  1.00  0.00     0.048 C 
HETATM   11  C17 UNL     1      -1.215  16.713  20.902  1.00  0.00     0.016 A 
HETATM   12  C18 UNL     1      -1.035  17.634  21.853  1.00  0.00     0.033 A 
ENDROOT
BRANCH   1  13
HETATM   13  N2  UNL     1       3.895  19.558  20.280  1.00  0.00    -0.375 N 
ATOM     14  H2  UNL     1       4.749  19.040  20.484  1.00  0.00     0.161 HD
BRANCH  13  15
HETATM   15  C6  UNL     1       3.910  20.774  19.505  1.00  0.00     0.123 C 
BRANCH  15  16
HETATM   16  C5  UNL     1       4.458  20.546  18.105  1.00  0.00     0.039 C 
BRANCH  16  17
HETATM   17  C4  UNL     1       3.427  20.792  17.054  1.00  0.00     0.127 C 
BRANCH  17  18
HETATM   18  N1  UNL     1       3.030  19.555  16.442  1.00  0.00    -0.347 N 
HETATM   19  C19 UNL     1       1.695  19.026  16.563  1.00  0.00     0.241 C 
HETATM   20  O3  UNL     1       1.371  17.943  16.056  1.00  0.00    -0.271 OA
BRANCH  18  21
HETATM   21  C3  UNL     1       3.921  18.734  15.631  1.00  0.00     0.152 C 
BRANCH  21  22
HETATM   22  C2  UNL     1       4.758  19.531  14.702  1.00  0.00    -0.017 C 
HETATM   23  C1  UNL     1       6.031  19.198  14.458  1.00  0.00     0.008 C 
ENDBRANCH  21  22
ENDBRANCH  18  21
BRANCH  19  24
HETATM   24  C20 UNL     1       0.658  19.774  17.307  1.00  0.00     0.276 C 
BRANCH  24  25
HETATM   25  N7  UNL     1      -0.677  19.262  16.993  1.00  0.00    -0.182 N 
HETATM   26  N8  UNL     1      -1.382  18.997  15.921  1.00  0.00    -0.162 N 
HETATM   27  O4  UNL     1      -2.357  18.616  16.664  1.00  0.00    -0.123 OA
ATOM     28  H8  UNL     1      -1.223  19.064  14.916  1.00  0.00     0.220 HD
HETATM   29  N9  UNL     1      -1.683  18.870  17.731  1.00  0.00    -0.162 N 
ATOM     30  H9  UNL     1      -1.860  18.796  18.733  1.00  0.00     0.220 HD
ENDBRANCH  24  25
ENDBRANCH  19  24
ENDBRANCH  17  18
ENDBRANCH  16  17
ENDBRANCH  15  16
ENDBRANCH  13  15
ENDBRANCH   1  13
BRANCH  10  31
HETATM   31  C14 UNL     1      -0.671  14.946  18.406  1.00  0.00     0.088 A 
HETATM   32  N5  UNL     1      -0.794  13.690  18.944  1.00  0.00    -0.305 N 
HETATM   33  C15 UNL     1      -1.641  12.956  18.213  1.00  0.00     0.326 A 
ATOM     34  H5  UNL     1      -0.310  13.363  19.780  1.00  0.00     0.171 HD
HETATM   35  O1  UNL     1      -2.018  11.771  18.369  1.00  0.00    -0.247 OA
HETATM   36  N6  UNL     1      -2.086  13.716  17.186  1.00  0.00    -0.287 N 
HETATM   37  C16 UNL     1      -1.494  14.921  17.307  1.00  0.00     0.171 A 
ATOM     38  H6  UNL     1      -2.743  13.433  16.460  1.00  0.00     0.172 HD
BRANCH  37  39
HETATM   39  O2  UNL     1      -1.713  15.971  16.416  1.00  0.00    -0.344 OA
ATOM     40  H2  UNL     1      -2.304  15.963  15.672  1.00  0.00     0.219 HD
ENDBRANCH  37  39
ENDBRANCH  10  31
TORSDOF 11
ENDMDL
MODEL 4
REMARK VINA RESULT: -7.002970557      3.193      3.851
REMARK  11 active torsions:
REMARK  status: ('A' for Active; 'I' for Inactive)
REMARK    1  A    between atoms: C2_2  and  C3_3 
REMARK    2  A    between atoms: C3_3  and  N1_4 
REMARK    3  A    between atoms: N1_4  and  C4_5 
REMARK       I    between atoms: N1_4  and  C19_32 
REMARK    4  A    between atoms: C4_5  and  C5_6 
REMARK    5  A    between atoms: C5_6  and  C6_7 
REMARK    6  A    between atoms: C6_7  and  N2_8 
REMARK    7  A    between atoms: N2_8  and  C7_10 
REMARK    8  A    between atoms: C13_19  and  C14_20 
REMARK    9  A    between atoms: C16_27  and  O2_28 
REMARK   10  A    between atoms: C19_32  and  C20_34 
REMARK   11  A    between atoms: C20_34  and  N7_35 
ROOT
HETATM    1  C7  UNL     1      -1.472  20.227  18.622  1.00  0.00     0.117 A 
HETATM    2  C8  UNL     1      -2.752  20.733  18.533  1.00  0.00     0.139 A 
HETATM    3  N3  UNL     1      -3.821  19.947  18.318  1.00  0.00    -0.356 N 
HETATM    4  C9  UNL     1      -5.172  20.445  18.220  1.00  0.00     0.156 C 
HETATM    5  C10 UNL     1      -3.664  18.598  18.177  1.00  0.00     0.061 A 
HETATM    6  C11 UNL     1      -2.396  18.081  18.264  1.00  0.00     0.071 A 
HETATM    7  N4  UNL     1      -1.333  18.894  18.481  1.00  0.00    -0.339 N 
ATOM      8  H4  UNL     1      -0.401  18.485  18.540  1.00  0.00     0.167 HD
HETATM    9  C12 UNL     1      -2.526  16.610  18.082  1.00  0.00    -0.005 A 
HETATM   10  C13 UNL     1      -1.487  15.817  18.134  1.00  0.00     0.048 C 
HETATM   11  C17 UNL     1      -3.943  16.371  17.893  1.00  0.00     0.016 A 
HETATM   12  C18 UNL     1      -4.626  17.519  17.944  1.00  0.00     0.033 A 
ENDROOT
BRANCH   1  13
HETATM   13  N2  UNL     1      -0.427  20.991  18.841  1.00  0.00    -0.375 N 
ATOM     14  H2  UNL     1       0.266  21.175  18.116  1.00  0.00     0.161 HD
BRANCH  13  15
HETATM   15  C6  UNL     1      -0.314  21.555  20.163  1.00  0.00     0.123 C 
BRANCH  15  16
HETATM   16  C5  UNL     1       1.124  21.547  20.660  1.00  0.00     0.039 C 
BRANCH  16  17
HETATM   17  C4  UNL     1       1.357  20.481  21.678  1.00  0.00     0.127 C 
BRANCH  17  18
HETATM   18  N1  UNL     1       1.518  19.205  21.040  1.00  0.00    -0.347 N 
HETATM   19  C19 UNL     1       0.631  18.096  21.292  1.00  0.00     0.241 C 
HETATM   20  O3  UNL     1       0.796  16.990  20.758  1.00  0.00    -0.271 OA
BRANCH  18  21
HETATM   21  C3  UNL     1       2.568  18.914  20.070  1.00  0.00     0.152 C 
BRANCH  21  22
HETATM   22  C2  UNL     1       3.931  19.145  20.606  1.00  0.00    -0.017 C 
HETATM   23  C1  UNL     1       4.669  20.182  20.195  1.00  0.00     0.008 C 
ENDBRANCH  21  22
ENDBRANCH  18  21
BRANCH  19  24
HETATM   24  C20 UNL     1      -0.519  18.253  22.209  1.00  0.00     0.276 C 
BRANCH  24  25
HETATM   25  N7  UNL     1      -1.224  16.981  22.379  1.00  0.00    -0.182 N 
HETATM   26  N8  UNL     1      -1.716  16.040  21.612  1.00  0.00    -0.162 N 
HETATM   27  O4  UNL     1      -2.101  15.400  22.655  1.00  0.00    -0.123 OA
ATOM     28  H8  UNL     1      -1.772  15.883  20.605  1.00  0.00     0.220 HD
HETATM   29  N9  UNL     1      -1.625  16.311  23.428  1.00  0.00    -0.162 N 
ATOM     30  H9  UNL     1      -1.579  16.452  24.437  1.00  0.00     0.220 HD
ENDBRANCH  24  25
ENDBRANCH  19  24
ENDBRANCH  17  18
ENDBRANCH  16  17
ENDBRANCH  15  16
ENDBRANCH  13  15
ENDBRANCH   1  13
BRANCH  10  31
HETATM   31  C14 UNL     1      -1.552  14.388  17.961  1.00  0.00     0.088 A 
HETATM   32  N5  UNL     1      -1.593  13.767  16.739  1.00  0.00    -0.305 N 
HETATM   33  C15 UNL     1      -1.687  12.442  16.897  1.00  0.00     0.326 A 
ATOM     34  H5  UNL     1      -1.557  14.247  15.839  1.00  0.00     0.171 HD
HETATM   35  O1  UNL     1      -1.749  11.532  16.037  1.00  0.00    -0.247 OA
HETATM   36  N6  UNL     1      -1.709  12.172  18.223  1.00  0.00    -0.287 N 
HETATM   37  C16 UNL     1      -1.629  13.355  18.863  1.00  0.00     0.171 A 
ATOM     38  H6  UNL     1      -1.774  11.251  18.655  1.00  0.00     0.172 HD
BRANCH  37  39
HETATM   39  O2  UNL     1      -1.627  13.472  20.253  1.00  0.00    -0.344 OA
ATOM     40  H2  UNL     1      -2.335  13.808  20.789  1.00  0.00     0.219 HD
ENDBRANCH  37  39
ENDBRANCH  10  31
TORSDOF 11
ENDMDL
MODEL 5
REMARK VINA RESULT: -6.854870971      1.128      1.373
REMARK  11 active torsions:
REMARK  status: ('A' for Active; 'I' for Inactive)
REMARK    1  A    between atoms: C2_2  and  C3_3 
REMARK    2  A    between atoms: C3_3  and  N1_4 
REMARK    3  A    between atoms: N1_4  and  C4_5 
REMARK       I    between atoms: N1_4  and  C19_32 
REMARK    4  A    between atoms: C4_5  and  C5_6 
REMARK    5  A    between atoms: C5_6  and  C6_7 
REMARK    6  A    between atoms: C6_7  and  N2_8 
REMARK    7  A    between atoms: N2_8  and  C7_10 
REMARK    8  A    between atoms: C13_19  and  C14_20 
REMARK    9  A    between atoms: C16_27  and  O2_28 
REMARK   10  A    between atoms: C19_32  and  C20_34 
REMARK   11  A    between atoms: C20_34  and  N7_35 
ROOT
HETATM    1  C7  UNL     1      -2.234  19.785  14.965  1.00  0.00     0.117 A 
HETATM    2  C8  UNL     1      -3.483  20.287  15.265  1.00  0.00     0.139 A 
HETATM    3  N3  UNL     1      -4.317  19.669  16.119  1.00  0.00    -0.356 N 
HETATM    4  C9  UNL     1      -5.630  20.168  16.454  1.00  0.00     0.156 C 
HETATM    5  C10 UNL     1      -3.943  18.504  16.724  1.00  0.00     0.061 A 
HETATM    6  C11 UNL     1      -2.703  17.994  16.434  1.00  0.00     0.071 A 
HETATM    7  N4  UNL     1      -1.878  18.634  15.569  1.00  0.00    -0.339 N 
ATOM      8  H4  UNL     1      -0.962  18.233  15.369  1.00  0.00     0.167 HD
HETATM    9  C12 UNL     1      -2.565  16.742  17.228  1.00  0.00    -0.005 A 
HETATM   10  C13 UNL     1      -1.473  16.022  17.190  1.00  0.00     0.048 C 
HETATM   11  C17 UNL     1      -3.809  16.615  17.960  1.00  0.00     0.016 A 
HETATM   12  C18 UNL     1      -4.628  17.632  17.680  1.00  0.00     0.033 A 
ENDROOT
BRANCH   1  13
HETATM   13  N2  UNL     1      -1.413  20.389  14.138  1.00  0.00    -0.375 N 
ATOM     14  H2  UNL     1      -1.306  20.088  13.170  1.00  0.00     0.161 HD
BRANCH  13  15
HETATM   15  C6  UNL     1      -0.671  21.503  14.674  1.00  0.00     0.123 C 
BRANCH  15  16
HETATM   16  C5  UNL     1       0.789  21.150  14.911  1.00  0.00     0.039 C 
BRANCH  16  17
HETATM   17  C4  UNL     1       1.082  20.924  16.358  1.00  0.00     0.127 C 
BRANCH  17  18
HETATM   18  N1  UNL     1       1.416  19.548  16.592  1.00  0.00    -0.347 N 
HETATM   19  C19 UNL     1       0.988  18.837  17.772  1.00  0.00     0.241 C 
HETATM   20  O3  UNL     1       1.307  17.658  17.979  1.00  0.00    -0.271 OA
BRANCH  18  21
HETATM   21  C3  UNL     1       2.195  18.736  15.663  1.00  0.00     0.152 C 
BRANCH  21  22
HETATM   22  C2  UNL     1       3.641  19.063  15.681  1.00  0.00    -0.017 C 
HETATM   23  C1  UNL     1       4.279  19.442  14.567  1.00  0.00     0.008 C 
ENDBRANCH  21  22
ENDBRANCH  18  21
BRANCH  19  24
HETATM   24  C20 UNL     1       0.142  19.509  18.782  1.00  0.00     0.276 C 
BRANCH  24  25
HETATM   25  N7  UNL     1      -0.087  18.633  19.932  1.00  0.00    -0.182 N 
HETATM   26  N8  UNL     1       0.584  18.219  20.979  1.00  0.00    -0.162 N 
HETATM   27  O4  UNL     1      -0.433  17.529  21.349  1.00  0.00    -0.123 OA
ATOM     28  H8  UNL     1       1.522  18.378  21.346  1.00  0.00     0.220 HD
HETATM   29  N9  UNL     1      -1.110  17.922  20.329  1.00  0.00    -0.162 N 
ATOM     30  H9  UNL     1      -2.052  17.751  19.977  1.00  0.00     0.220 HD
ENDBRANCH  24  25
ENDBRANCH  19  24
ENDBRANCH  17  18
ENDBRANCH  16  17
ENDBRANCH  15  16
ENDBRANCH  13  15
ENDBRANCH   1  13
BRANCH  10  31
HETATM   31  C14 UNL     1      -1.286  14.802  17.933  1.00  0.00     0.088 A 
HETATM   32  N5  UNL     1      -1.955  13.635  17.666  1.00  0.00    -0.305 N 
HETATM   33  C15 UNL     1      -1.599  12.687  18.541  1.00  0.00     0.326 A 
ATOM     34  H5  UNL     1      -2.627  13.507  16.909  1.00  0.00     0.171 HD
HETATM   35  O1  UNL     1      -1.978  11.497  18.637  1.00  0.00    -0.247 OA
HETATM   36  N6  UNL     1      -0.692  13.217  19.395  1.00  0.00    -0.287 N 
HETATM   37  C16 UNL     1      -0.507  14.499  19.022  1.00  0.00     0.171 A 
ATOM     38  H6  UNL     1      -0.236  12.739  20.171  1.00  0.00     0.172 HD
BRANCH  37  39
HETATM   39  O2  UNL     1       0.365  15.366  19.680  1.00  0.00    -0.344 OA
ATOM     40  H2  UNL     1       0.726  15.247  20.551  1.00  0.00     0.219 HD
ENDBRANCH  37  39
ENDBRANCH  10  31
TORSDOF 11
ENDMDL
