MODEL 1
REMARK VINA RESULT: -6.907561505      0.000      0.000
REMARK  10 active torsions:
REMARK  status: ('A' for Active; 'I' for Inactive)
REMARK    1  A    between atoms: N1_1  and  C1_5 
REMARK    2  A    between atoms: C1_5  and  C2_6 
REMARK    3  A    between atoms: C2_6  and  C3_7 
REMARK    4  A    between atoms: C3_7  and  C4_8 
REMARK       I    between atoms: C4_8  and  N2_10 
REMARK       I    between atoms: N3_14  and  C8_15 
REMARK    5  A    between atoms: C8_15  and  C9_17 
REMARK    6  A    between atoms: C9_17  and  C10_18 
REMARK    7  A    between atoms: C10_18  and  C11_19 
REMARK    8  A    between atoms: C11_19  and  C12_20 
REMARK    9  A    between atoms: C12_20  and  C13_21 
REMARK   10  A    between atoms: C13_21  and  N4_22 
REMARK       I    between atoms: C14_24  and  N6_26 
ROOT
HETATM    1  C4  UNL     1      -1.798  14.401  18.706  1.00  0.00     0.220 C 
HETATM    2  O1  UNL     1      -1.359  13.533  19.537  1.00  0.00    -0.273 OA
HETATM    3  N2  UNL     1      -1.871  15.740  19.165  1.00  0.00    -0.337 N 
HETATM    4  C5  UNL     1      -1.452  15.984  20.517  1.00  0.00     0.128 C 
HETATM    5  C6  UNL     1      -0.250  16.866  20.643  1.00  0.00     0.041 C 
HETATM    6  C7  UNL     1      -0.616  18.338  20.441  1.00  0.00     0.146 C 
HETATM    7  N3  UNL     1      -0.465  18.671  19.047  1.00  0.00    -0.244 N 
HETATM    8  C8  UNL     1       0.176  19.902  18.782  1.00  0.00     0.233 C 
HETATM    9  O2  UNL     1       0.313  20.209  17.566  1.00  0.00    -0.272 OA
HETATM   10  S1  UNL     1      -0.980  17.729  17.708  1.00  0.00     0.251 S 
HETATM   11  O3  UNL     1      -1.347  18.571  16.520  1.00  0.00    -0.204 OA
HETATM   12  O4  UNL     1       0.110  16.782  17.250  1.00  0.00    -0.204 OA
HETATM   13  C16 UNL     1      -2.374  16.692  18.165  1.00  0.00     0.289 C 
ENDROOT
BRANCH   8  14
HETATM   14  C9  UNL     1       0.664  20.798  19.830  1.00  0.00     0.104 C 
BRANCH  14  15
HETATM   15  C10 UNL     1       2.133  20.949  19.953  1.00  0.00     0.009 C 
BRANCH  15  16
HETATM   16  C11 UNL     1       2.915  19.668  20.066  1.00  0.00     0.002 C 
BRANCH  16  17
HETATM   17  C12 UNL     1       4.379  20.063  20.291  1.00  0.00     0.020 C 
BRANCH  17  18
HETATM   18  C13 UNL     1       4.752  21.249  19.405  1.00  0.00     0.122 C 
BRANCH  18  19
HETATM   19  N4  UNL     1       5.643  20.848  18.353  1.00  0.00    -0.364 N 
HETATM   20  C14 UNL     1       5.235  20.812  17.137  1.00  0.00     0.190 C 
HETATM   21  N5  UNL     1       3.895  21.170  16.839  1.00  0.00    -0.063 NA
HETATM   22  N6  UNL     1       6.168  20.406  16.149  1.00  0.00    -0.307 N 
HETATM   23  C15 UNL     1       5.879  19.667  15.145  1.00  0.00     0.203 C 
ATOM     24  H6  UNL     1       7.132  20.725  16.244  1.00  0.00     0.170 HD
HETATM   25  N7  UNL     1       4.566  19.174  14.924  1.00  0.00    -0.066 NA
HETATM   26  N8  UNL     1       6.917  19.326  14.221  1.00  0.00    -0.066 NA
ATOM     27  H4  UNL     1       6.605  20.590  18.573  1.00  0.00     0.162 HD
ENDBRANCH  18  19
ENDBRANCH  17  18
ENDBRANCH  16  17
ENDBRANCH  15  16
ENDBRANCH  14  15
ENDBRANCH   8  14
BRANCH   1  28
HETATM   28  C3  UNL     1      -2.200  13.980  17.344  1.00  0.00     0.105 C 
BRANCH  28  29
HETATM   29  C2  UNL     1      -1.789  12.542  17.117  1.00  0.00     0.036 C 
BRANCH  29  30
HETATM   30  C1  UNL     1      -1.826  12.139  15.671  1.00  0.00     0.230 C 
BRANCH  30  31
HETATM   31  N1  UNL     1      -3.060  12.704  15.118  1.00  0.00    -0.079 N 
ATOM     32  H13 UNL     1      -3.431  13.480  15.665  1.00  0.00     0.274 HD
ATOM     33  H12 UNL     1      -2.915  13.220  14.249  1.00  0.00     0.274 HD
ATOM     34  H11 UNL     1      -3.714  11.927  15.023  1.00  0.00     0.274 HD
ENDBRANCH  30  31
ENDBRANCH  29  30
ENDBRANCH  28  29
ENDBRANCH   1  28
TORSDOF 10
ENDMDL
MODEL 2
REMARK VINA RESULT: -6.834863503      1.969      2.462
REMARK  10 active torsions:
REMARK  status: ('A' for Active; 'I' for Inactive)
REMARK    1  A    between atoms: N1_1  and  C1_5 
REMARK    2  A    between atoms: C1_5  and  C2_6 
REMARK    3  A    between atoms: C2_6  and  C3_7 
REMARK    4  A    between atoms: C3_7  and  C4_8 
REMARK       I    between atoms: C4_8  and  N2_10 
REMARK       I    between atoms: N3_14  and  C8_15 
REMARK    5  A    between atoms: C8_15  and  C9_17 
REMARK    6  A    between atoms: C9_17  and  C10_18 
REMARK    7  A    between atoms: C10_18  and  C11_19 
REMARK    8  A    between atoms: C11_19  and  C12_20 
REMARK    9  A    between atoms: C12_20  and  C13_21 
REMARK   10  A    between atoms: C13_21  and  N4_22 
REMARK       I    between atoms: C14_24  and  N6_26 
ROOT
HETATM    1  C4  UNL     1      -1.416  15.557  17.585  1.00  0.00     0.220 C 
HETATM    2  O1  UNL     1      -1.888  15.896  16.447  1.00  0.00    -0.273 OA
HETATM    3  N2  UNL     1      -0.317  16.311  18.069  1.00  0.00    -0.337 N 
HETATM    4  C5  UNL     1       0.158  17.373  17.227  1.00  0.00     0.128 C 
HETATM    5  C6  UNL     1       0.009  18.742  17.814  1.00  0.00     0.041 C 
HETATM    6  C7  UNL     1       1.092  19.021  18.857  1.00  0.00     0.146 C 
HETATM    7  N3  UNL     1       0.603  18.630  20.155  1.00  0.00    -0.244 N 
HETATM    8  C8  UNL     1       0.864  19.541  21.203  1.00  0.00     0.233 C 
HETATM    9  O2  UNL     1       0.445  19.213  22.346  1.00  0.00    -0.272 OA
HETATM   10  S1  UNL     1      -0.250  17.191  20.537  1.00  0.00     0.251 S 
HETATM   11  O3  UNL     1       0.005  16.727  21.942  1.00  0.00    -0.204 OA
HETATM   12  O4  UNL     1      -1.746  17.388  20.408  1.00  0.00    -0.204 OA
HETATM   13  C16 UNL     1       0.175  15.880  19.384  1.00  0.00     0.289 C 
ENDROOT
BRANCH   8  14
HETATM   14  C9  UNL     1       1.579  20.804  21.013  1.00  0.00     0.104 C 
BRANCH  14  15
HETATM   15  C10 UNL     1       2.953  20.886  21.561  1.00  0.00     0.009 C 
BRANCH  15  16
HETATM   16  C11 UNL     1       3.894  19.792  21.133  1.00  0.00     0.002 C 
BRANCH  16  17
HETATM   17  C12 UNL     1       5.194  20.476  20.695  1.00  0.00     0.020 C 
BRANCH  17  18
HETATM   18  C13 UNL     1       4.943  21.376  19.489  1.00  0.00     0.122 C 
BRANCH  18  19
HETATM   19  N4  UNL     1       5.785  21.009  18.385  1.00  0.00    -0.364 N 
HETATM   20  C14 UNL     1       5.283  20.839  17.217  1.00  0.00     0.190 C 
HETATM   21  N5  UNL     1       3.889  21.014  17.022  1.00  0.00    -0.063 NA
HETATM   22  N6  UNL     1       6.174  20.476  16.172  1.00  0.00    -0.307 N 
HETATM   23  C15 UNL     1       5.895  19.638  15.246  1.00  0.00     0.203 C 
ATOM     24  H6  UNL     1       7.095  20.912  16.159  1.00  0.00     0.170 HD
HETATM   25  N7  UNL     1       4.639  18.979  15.177  1.00  0.00    -0.066 NA
HETATM   26  N8  UNL     1       6.885  19.357  14.253  1.00  0.00    -0.066 NA
ATOM     27  H4  UNL     1       6.786  20.883  18.531  1.00  0.00     0.162 HD
ENDBRANCH  18  19
ENDBRANCH  17  18
ENDBRANCH  16  17
ENDBRANCH  15  16
ENDBRANCH  14  15
ENDBRANCH   8  14
BRANCH   1  28
HETATM   28  C3  UNL     1      -2.020  14.424  18.326  1.00  0.00     0.105 C 
BRANCH  28  29
HETATM   29  C2  UNL     1      -2.149  13.230  17.406  1.00  0.00     0.036 C 
BRANCH  29  30
HETATM   30  C1  UNL     1      -1.027  12.244  17.559  1.00  0.00     0.230 C 
BRANCH  30  31
HETATM   31  N1  UNL     1      -0.967  11.491  16.304  1.00  0.00    -0.079 N 
ATOM     32  H13 UNL     1      -1.764  10.869  16.166  1.00  0.00     0.274 HD
ATOM     33  H12 UNL     1      -1.114  12.070  15.476  1.00  0.00     0.274 HD
ATOM     34  H11 UNL     1      -0.070  11.005  16.304  1.00  0.00     0.274 HD
ENDBRANCH  30  31
ENDBRANCH  29  30
ENDBRANCH  28  29
ENDBRANCH   1  28
TORSDOF 10
ENDMDL
MODEL 3
REMARK VINA RESULT: -6.812039868      2.374      3.181
REMARK  10 active torsions:
REMARK  status: ('A' for Active; 'I' for Inactive)
REMARK    1  A    between atoms: N1_1  and  C1_5 
REMARK    2  A    between atoms: C1_5  and  C2_6 
REMARK    3  A    between atoms: C2_6  and  C3_7 
REMARK    4  A    between atoms: C3_7  and  C4_8 
REMARK       I    between atoms: C4_8  and  N2_10 
REMARK       I    between atoms: N3_14  and  C8_15 
REMARK    5  A    between atoms: C8_15  and  C9_17 
REMARK    6  A    between atoms: C9_17  and  C10_18 
REMARK    7  A    between atoms: C10_18  and  C11_19 
REMARK    8  A    between atoms: C11_19  and  C12_20 
REMARK    9  A    between atoms: C12_20  and  C13_21 
REMARK   10  A    between atoms: C13_21  and  N4_22 
REMARK       I    between atoms: C14_24  and  N6_26 
ROOT
HETATM    1  C4  UNL     1      -0.960  14.890  18.644  1.00  0.00     0.220 C 
HETATM    2  O1  UNL     1      -0.227  13.984  19.170  1.00  0.00    -0.273 OA
HETATM    3  N2  UNL     1      -0.813  16.204  19.157  1.00  0.00    -0.337 N 
HETATM    4  C5  UNL     1       0.138  16.380  20.219  1.00  0.00     0.128 C 
HETATM    5  C6  UNL     1       1.296  17.262  19.873  1.00  0.00     0.041 C 
HETATM    6  C7  UNL     1       0.902  18.740  19.917  1.00  0.00     0.146 C 
HETATM    7  N3  UNL     1       0.460  19.146  18.606  1.00  0.00    -0.244 N 
HETATM    8  C8  UNL     1       0.950  20.393  18.158  1.00  0.00     0.233 C 
HETATM    9  O2  UNL     1       0.570  20.763  17.014  1.00  0.00    -0.272 OA
HETATM   10  S1  UNL     1      -0.584  18.271  17.562  1.00  0.00     0.251 S 
HETATM   11  O3  UNL     1      -1.401  19.170  16.680  1.00  0.00    -0.204 OA
HETATM   12  O4  UNL     1       0.199  17.356  16.643  1.00  0.00    -0.204 OA
HETATM   13  C16 UNL     1      -1.674  17.202  18.509  1.00  0.00     0.289 C 
ENDROOT
BRANCH   8  14
HETATM   14  C9  UNL     1       1.847  21.236  18.948  1.00  0.00     0.104 C 
BRANCH  14  15
HETATM   15  C10 UNL     1       3.230  21.403  18.443  1.00  0.00     0.009 C 
BRANCH  15  16
HETATM   16  C11 UNL     1       3.925  20.139  18.013  1.00  0.00     0.002 C 
BRANCH  16  17
HETATM   17  C12 UNL     1       4.360  20.349  16.557  1.00  0.00     0.020 C 
BRANCH  17  18
HETATM   18  C13 UNL     1       3.929  19.165  15.696  1.00  0.00     0.122 C 
BRANCH  18  19
HETATM   19  N4  UNL     1       2.510  19.174  15.476  1.00  0.00    -0.364 N 
HETATM   20  C14 UNL     1       2.035  19.492  14.328  1.00  0.00     0.190 C 
HETATM   21  N5  UNL     1       2.922  19.836  13.275  1.00  0.00    -0.063 NA
HETATM   22  N6  UNL     1       0.623  19.480  14.181  1.00  0.00    -0.307 N 
HETATM   23  C15 UNL     1      -0.038  20.343  13.505  1.00  0.00     0.203 C 
ATOM     24  H6  UNL     1       0.102  18.737  14.645  1.00  0.00     0.170 HD
HETATM   25  N7  UNL     1       0.596  21.415  12.823  1.00  0.00    -0.066 NA
HETATM   26  N8  UNL     1      -1.461  20.220  13.440  1.00  0.00    -0.066 NA
ATOM     27  H4  UNL     1       1.877  18.927  16.237  1.00  0.00     0.162 HD
ENDBRANCH  18  19
ENDBRANCH  17  18
ENDBRANCH  16  17
ENDBRANCH  15  16
ENDBRANCH  14  15
ENDBRANCH   8  14
BRANCH   1  28
HETATM   28  C3  UNL     1      -1.902  14.537  17.556  1.00  0.00     0.105 C 
BRANCH  28  29
HETATM   29  C2  UNL     1      -1.700  13.091  17.161  1.00  0.00     0.036 C 
BRANCH  29  30
HETATM   30  C1  UNL     1      -2.069  12.814  15.732  1.00  0.00     0.230 C 
BRANCH  30  31
HETATM   31  N1  UNL     1      -2.060  11.357  15.580  1.00  0.00    -0.079 N 
ATOM     32  H13 UNL     1      -2.828  10.895  16.066  1.00  0.00     0.274 HD
ATOM     33  H12 UNL     1      -2.301  11.047  14.638  1.00  0.00     0.274 HD
ATOM     34  H11 UNL     1      -1.139  11.042  15.886  1.00  0.00     0.274 HD
ENDBRANCH  30  31
ENDBRANCH  29  30
ENDBRANCH  28  29
ENDBRANCH   1  28
TORSDOF 10
ENDMDL
MODEL 4
REMARK VINA RESULT: -6.738868907      1.440      1.955
REMARK  10 active torsions:
REMARK  status: ('A' for Active; 'I' for Inactive)
REMARK    1  A    between atoms: N1_1  and  C1_5 
REMARK    2  A    between atoms: C1_5  and  C2_6 
REMARK    3  A    between atoms: C2_6  and  C3_7 
REMARK    4  A    between atoms: C3_7  and  C4_8 
REMARK       I    between atoms: C4_8  and  N2_10 
REMARK       I    between atoms: N3_14  and  C8_15 
REMARK    5  A    between atoms: C8_15  and  C9_17 
REMARK    6  A    between atoms: C9_17  and  C10_18 
REMARK    7  A    between atoms: C10_18  and  C11_19 
REMARK    8  A    between atoms: C11_19  and  C12_20 
REMARK    9  A    between atoms: C12_20  and  C13_21 
REMARK   10  A    between atoms: C13_21  and  N4_22 
REMARK       I    between atoms: C14_24  and  N6_26 
ROOT
HETATM    1  C4  UNL     1      -1.930  15.082  18.930  1.00  0.00     0.220 C 
HETATM    2  O1  UNL     1      -1.680  14.144  19.762  1.00  0.00    -0.273 OA
HETATM    3  N2  UNL     1      -1.572  16.395  19.327  1.00  0.00    -0.337 N 
HETATM    4  C5  UNL     1      -0.975  16.538  20.626  1.00  0.00     0.128 C 
HETATM    5  C6  UNL     1       0.436  17.037  20.606  1.00  0.00     0.041 C 
HETATM    6  C7  UNL     1       0.489  18.547  20.364  1.00  0.00     0.146 C 
HETATM    7  N3  UNL     1       0.596  18.790  18.948  1.00  0.00    -0.244 N 
HETATM    8  C8  UNL     1       1.534  19.777  18.569  1.00  0.00     0.233 C 
HETATM    9  O2  UNL     1       1.638  20.003  17.333  1.00  0.00    -0.272 OA
HETATM   10  S1  UNL     1      -0.292  18.007  17.705  1.00  0.00     0.251 S 
HETATM   11  O3  UNL     1      -0.514  18.892  16.512  1.00  0.00    -0.204 OA
HETATM   12  O4  UNL     1       0.433  16.776  17.204  1.00  0.00    -0.204 OA
HETATM   13  C16 UNL     1      -1.874  17.429  18.328  1.00  0.00     0.289 C 
ENDROOT
BRANCH   8  14
HETATM   14  C9  UNL     1       2.355  20.516  19.528  1.00  0.00     0.104 C 
BRANCH  14  15
HETATM   15  C10 UNL     1       3.645  19.901  19.920  1.00  0.00     0.009 C 
BRANCH  15  16
HETATM   16  C11 UNL     1       4.843  20.812  19.878  1.00  0.00     0.002 C 
BRANCH  16  17
HETATM   17  C12 UNL     1       4.738  21.618  18.577  1.00  0.00     0.020 C 
BRANCH  17  18
HETATM   18  C13 UNL     1       5.470  20.901  17.446  1.00  0.00     0.122 C 
BRANCH  18  19
HETATM   19  N4  UNL     1       4.545  20.233  16.573  1.00  0.00    -0.364 N 
HETATM   20  C14 UNL     1       4.558  20.471  15.313  1.00  0.00     0.190 C 
HETATM   21  N5  UNL     1       5.492  21.399  14.786  1.00  0.00    -0.063 NA
HETATM   22  N6  UNL     1       3.616  19.776  14.510  1.00  0.00    -0.307 N 
HETATM   23  C15 UNL     1       2.994  20.293  13.518  1.00  0.00     0.203 C 
ATOM     24  H6  UNL     1       3.423  18.801  14.738  1.00  0.00     0.170 HD
HETATM   25  N7  UNL     1       3.195  21.642  13.121  1.00  0.00    -0.066 NA
HETATM   26  N8  UNL     1       2.065  19.484  12.792  1.00  0.00    -0.066 NA
ATOM     27  H4  UNL     1       3.875  19.568  16.958  1.00  0.00     0.162 HD
ENDBRANCH  18  19
ENDBRANCH  17  18
ENDBRANCH  16  17
ENDBRANCH  15  16
ENDBRANCH  14  15
ENDBRANCH   8  14
BRANCH   1  28
HETATM   28  C3  UNL     1      -2.562  14.764  17.628  1.00  0.00     0.105 C 
BRANCH  28  29
HETATM   29  C2  UNL     1      -2.197  13.355  17.219  1.00  0.00     0.036 C 
BRANCH  29  30
HETATM   30  C1  UNL     1      -2.486  13.068  15.774  1.00  0.00     0.230 C 
BRANCH  30  31
HETATM   31  N1  UNL     1      -2.230  11.638  15.579  1.00  0.00    -0.079 N 
ATOM     32  H13 UNL     1      -2.139  11.121  16.453  1.00  0.00     0.274 HD
ATOM     33  H12 UNL     1      -3.035  11.129  15.214  1.00  0.00     0.274 HD
ATOM     34  H11 UNL     1      -1.405  11.573  14.982  1.00  0.00     0.274 HD
ENDBRANCH  30  31
ENDBRANCH  29  30
ENDBRANCH  28  29
ENDBRANCH   1  28
TORSDOF 10
ENDMDL
MODEL 5
REMARK VINA RESULT: -6.732159063      1.812      2.375
REMARK  10 active torsions:
REMARK  status: ('A' for Active; 'I' for Inactive)
REMARK    1  A    between atoms: N1_1  and  C1_5 
REMARK    2  A    between atoms: C1_5  and  C2_6 
REMARK    3  A    between atoms: C2_6  and  C3_7 
REMARK    4  A    between atoms: C3_7  and  C4_8 
REMARK       I    between atoms: C4_8  and  N2_10 
REMARK       I    between atoms: N3_14  and  C8_15 
REMARK    5  A    between atoms: C8_15  and  C9_17 
REMARK    6  A    between atoms: C9_17  and  C10_18 
REMARK    7  A    between atoms: C10_18  and  C11_19 
REMARK    8  A    between atoms: C11_19  and  C12_20 
REMARK    9  A    between atoms: C12_20  and  C13_21 
REMARK   10  A    between atoms: C13_21  and  N4_22 
REMARK       I    between atoms: C14_24  and  N6_26 
ROOT
HETATM    1  C4  UNL     1      -1.871  14.255  18.593  1.00  0.00     0.220 C 
HETATM    2  O1  UNL     1      -1.262  13.485  19.414  1.00  0.00    -0.273 OA
HETATM    3  N2  UNL     1      -2.167  15.564  19.051  1.00  0.00    -0.337 N 
HETATM    4  C5  UNL     1      -1.761  15.888  20.390  1.00  0.00     0.128 C 
HETATM    5  C6  UNL     1      -0.731  16.970  20.479  1.00  0.00     0.041 C 
HETATM    6  C7  UNL     1      -1.357  18.353  20.284  1.00  0.00     0.146 C 
HETATM    7  N3  UNL     1      -1.305  18.696  18.886  1.00  0.00    -0.244 N 
HETATM    8  C8  UNL     1      -0.900  20.019  18.599  1.00  0.00     0.233 C 
HETATM    9  O2  UNL     1      -0.852  20.337  17.379  1.00  0.00    -0.272 OA
HETATM   10  S1  UNL     1      -1.682  17.668  17.564  1.00  0.00     0.251 S 
HETATM   11  O3  UNL     1      -2.224  18.423  16.384  1.00  0.00    -0.204 OA
HETATM   12  O4  UNL     1      -0.454  16.926  17.078  1.00  0.00    -0.204 OA
HETATM   13  C16 UNL     1      -2.857  16.404  18.062  1.00  0.00     0.289 C 
ENDROOT
BRANCH   8  14
HETATM   14  C9  UNL     1      -0.549  20.995  19.631  1.00  0.00     0.104 C 
BRANCH  14  15
HETATM   15  C10 UNL     1       0.875  21.395  19.720  1.00  0.00     0.009 C 
BRANCH  15  16
HETATM   16  C11 UNL     1       1.867  20.266  19.792  1.00  0.00     0.002 C 
BRANCH  16  17
HETATM   17  C12 UNL     1       2.618  20.254  18.456  1.00  0.00     0.020 C 
BRANCH  17  18
HETATM   18  C13 UNL     1       2.528  18.876  17.805  1.00  0.00     0.122 C 
BRANCH  18  19
HETATM   19  N4  UNL     1       1.809  18.936  16.564  1.00  0.00    -0.364 N 
HETATM   20  C14 UNL     1       2.443  18.935  15.448  1.00  0.00     0.190 C 
HETATM   21  N5  UNL     1       3.860  18.875  15.449  1.00  0.00    -0.063 NA
HETATM   22  N6  UNL     1       1.669  18.997  14.260  1.00  0.00    -0.307 N 
HETATM   23  C15 UNL     1       1.996  19.669  13.221  1.00  0.00     0.203 C 
ATOM     24  H6  UNL     1       0.796  18.471  14.232  1.00  0.00     0.170 HD
HETATM   25  N7  UNL     1       3.192  20.433  13.162  1.00  0.00    -0.066 NA
HETATM   26  N8  UNL     1       1.124  19.651  12.088  1.00  0.00    -0.066 NA
ATOM     27  H4  UNL     1       0.790  18.981  16.569  1.00  0.00     0.162 HD
ENDBRANCH  18  19
ENDBRANCH  17  18
ENDBRANCH  16  17
ENDBRANCH  15  16
ENDBRANCH  14  15
ENDBRANCH   8  14
BRANCH   1  28
HETATM   28  C3  UNL     1      -2.228  13.760  17.244  1.00  0.00     0.105 C 
BRANCH  28  29
HETATM   29  C2  UNL     1      -1.572  12.417  17.008  1.00  0.00     0.036 C 
BRANCH  29  30
HETATM   30  C1  UNL     1      -1.756  11.910  15.606  1.00  0.00     0.230 C 
BRANCH  30  31
HETATM   31  N1  UNL     1      -2.917  12.617  15.061  1.00  0.00    -0.079 N 
ATOM     32  H13 UNL     1      -3.701  12.002  14.844  1.00  0.00     0.274 HD
ATOM     33  H12 UNL     1      -3.399  13.197  15.749  1.00  0.00     0.274 HD
ATOM     34  H11 UNL     1      -2.580  13.143  14.254  1.00  0.00     0.274 HD
ENDBRANCH  30  31
ENDBRANCH  29  30
ENDBRANCH  28  29
ENDBRANCH   1  28
TORSDOF 10
ENDMDL
