MODEL 1
REMARK VINA RESULT: -7.017476639      0.000      0.000
REMARK  13 active torsions:
REMARK  status: ('A' for Active; 'I' for Inactive)
REMARK    1  A    between atoms: C2_2  and  C3_3 
REMARK    2  A    between atoms: C3_3  and  N1_4 
REMARK    3  A    between atoms: N1_4  and  C4_6 
REMARK    4  A    between atoms: C4_6  and  O1_7 
REMARK    5  A    between atoms: C4_6  and  C5_9 
REMARK    6  A    between atoms: C6_10  and  C7_11 
REMARK    7  A    between atoms: C9_13  and  C10_14 
REMARK    8  A    between atoms: C10_14  and  O2_15 
REMARK    9  A    between atoms: N3_20  and  C13_21 
REMARK   10  A    between atoms: N5_28  and  C17_29 
REMARK   11  A    between atoms: C17_29  and  C18_30 
REMARK   12  A    between atoms: C18_30  and  C19_31 
REMARK   13  A    between atoms: C19_31  and  N6_32 
ROOT
HETATM    1  C10 UNL     1       3.113  19.530  19.318  1.00  0.00     0.119 C 
HETATM    2  N2  UNL     1       1.887  18.994  19.505  1.00  0.00    -0.362 N 
HETATM    3  C11 UNL     1       1.522  18.226  20.674  1.00  0.00     0.155 C 
HETATM    4  C12 UNL     1       0.834  16.916  20.198  1.00  0.00     0.293 C 
HETATM    5  N3  UNL     1      -0.313  17.219  19.401  1.00  0.00     0.107 N 
HETATM    6  C21 UNL     1      -0.449  18.657  19.190  1.00  0.00     0.293 C 
HETATM    7  C22 UNL     1       0.807  19.207  18.540  1.00  0.00     0.155 C 
ENDROOT
BRANCH   5   8
HETATM    8  C13 UNL     1      -0.366  16.518  18.165  1.00  0.00     0.339 C 
HETATM    9  C14 UNL     1      -1.041  17.411  17.097  1.00  0.00     0.277 C 
HETATM   10  N4  UNL     1      -1.944  16.612  16.335  1.00  0.00    -0.071 N 
HETATM   11  C15 UNL     1      -3.330  16.776  16.788  1.00  0.00     0.252 C 
ATOM     12  H42 UNL     1      -1.854  16.799  15.336  1.00  0.00     0.277 HD
ATOM     13  H41 UNL     1      -1.666  15.631  16.339  1.00  0.00     0.277 HD
HETATM   14  C16 UNL     1      -3.575  15.685  17.827  1.00  0.00     0.153 C 
HETATM   15  N5  UNL     1      -2.395  14.819  17.856  1.00  0.00    -0.349 N 
HETATM   16  C20 UNL     1      -1.091  15.238  18.160  1.00  0.00     0.255 C 
HETATM   17  O3  UNL     1      -0.344  14.258  18.536  1.00  0.00    -0.271 OA
BRANCH  15  18
HETATM   18  C17 UNL     1      -2.616  13.422  17.496  1.00  0.00     0.127 C 
BRANCH  18  19
HETATM   19  C18 UNL     1      -2.417  13.292  16.008  1.00  0.00     0.047 C 
BRANCH  19  20
HETATM   20  C19 UNL     1      -1.680  12.025  15.643  1.00  0.00     0.231 C 
BRANCH  20  21
HETATM   21  N6  UNL     1      -0.808  11.568  16.697  1.00  0.00    -0.079 N 
ATOM     22  H63 UNL     1       0.019  11.110  16.315  1.00  0.00     0.274 HD
ATOM     23  H62 UNL     1      -0.360  12.354  17.168  1.00  0.00     0.274 HD
ATOM     24  H61 UNL     1      -1.286  10.963  17.366  1.00  0.00     0.274 HD
ENDBRANCH  20  21
ENDBRANCH  19  20
ENDBRANCH  18  19
ENDBRANCH  15  18
ENDBRANCH   5   8
BRANCH   1  25
HETATM   25  C9  UNL     1       3.786  20.264  18.263  1.00  0.00     0.081 A 
HETATM   26  C5  UNL     1       4.867  21.200  18.365  1.00  0.00     0.081 A 
HETATM   27  C6  UNL     1       3.508  21.803  18.362  1.00  0.00     0.032 A 
BRANCH  26  28
HETATM   28  C4  UNL     1       5.846  21.568  17.341  1.00  0.00     0.120 C 
BRANCH  28  29
HETATM   29  N1  UNL     1       6.119  20.946  16.156  1.00  0.00    -0.350 N 
ATOM     30  H1  UNL     1       7.093  20.646  16.110  1.00  0.00     0.167 HD
BRANCH  29  31
HETATM   31  C3  UNL     1       5.430  20.608  14.987  1.00  0.00     0.089 C 
BRANCH  31  32
HETATM   32  C2  UNL     1       5.414  19.200  14.576  1.00  0.00     0.007 C 
HETATM   33  C1  UNL     1       6.444  18.460  14.288  1.00  0.00     0.012 C 
ENDBRANCH  31  32
ENDBRANCH  29  31
ENDBRANCH  28  29
BRANCH  28  34
HETATM   34  O1  UNL     1       6.590  22.678  17.597  1.00  0.00    -0.349 OA
ATOM     35  H1  UNL     1       6.918  22.749  18.485  1.00  0.00     0.219 HD
ENDBRANCH  28  34
ENDBRANCH  26  28
BRANCH  27  36
HETATM   36  C7  UNL     1       2.802  22.305  17.160  1.00  0.00    -0.031 C 
HETATM   37  C8  UNL     1       2.701  23.596  16.956  1.00  0.00     0.007 C 
ENDBRANCH  27  36
ENDBRANCH   1  25
BRANCH   1  38
HETATM   38  O2  UNL     1       3.963  19.356  20.361  1.00  0.00    -0.349 OA
ATOM     39  H2  UNL     1       3.465  19.159  21.145  1.00  0.00     0.219 HD
ENDBRANCH   1  38
TORSDOF 13
ENDMDL
MODEL 2
REMARK VINA RESULT: -6.640584793      2.376      3.097
REMARK  13 active torsions:
REMARK  status: ('A' for Active; 'I' for Inactive)
REMARK    1  A    between atoms: C2_2  and  C3_3 
REMARK    2  A    between atoms: C3_3  and  N1_4 
REMARK    3  A    between atoms: N1_4  and  C4_6 
REMARK    4  A    between atoms: C4_6  and  O1_7 
REMARK    5  A    between atoms: C4_6  and  C5_9 
REMARK    6  A    between atoms: C6_10  and  C7_11 
REMARK    7  A    between atoms: C9_13  and  C10_14 
REMARK    8  A    between atoms: C10_14  and  O2_15 
REMARK    9  A    between atoms: N3_20  and  C13_21 
REMARK   10  A    between atoms: N5_28  and  C17_29 
REMARK   11  A    between atoms: C17_29  and  C18_30 
REMARK   12  A    between atoms: C18_30  and  C19_31 
REMARK   13  A    between atoms: C19_31  and  N6_32 
ROOT
HETATM    1  C10 UNL     1       3.707  20.284  17.664  1.00  0.00     0.119 C 
HETATM    2  N2  UNL     1       2.668  19.764  18.353  1.00  0.00    -0.362 N 
HETATM    3  C11 UNL     1       2.741  19.395  19.748  1.00  0.00     0.155 C 
HETATM    4  C12 UNL     1       2.160  17.962  19.902  1.00  0.00     0.293 C 
HETATM    5  N3  UNL     1       0.813  17.919  19.427  1.00  0.00     0.107 N 
HETATM    6  C21 UNL     1       0.410  19.199  18.854  1.00  0.00     0.293 C 
HETATM    7  C22 UNL     1       1.355  19.586  17.732  1.00  0.00     0.155 C 
ENDROOT
BRANCH   5   8
HETATM    8  C13 UNL     1       0.546  16.854  18.524  1.00  0.00     0.339 C 
HETATM    9  C14 UNL     1      -0.189  17.407  17.279  1.00  0.00     0.277 C 
HETATM   10  N4  UNL     1      -1.242  16.510  16.932  1.00  0.00    -0.071 N 
HETATM   11  C15 UNL     1      -2.541  16.980  17.427  1.00  0.00     0.252 C 
ATOM     12  H42 UNL     1      -1.267  16.338  15.927  1.00  0.00     0.277 HD
ATOM     13  H41 UNL     1      -1.044  15.563  17.251  1.00  0.00     0.277 HD
HETATM   14  C16 UNL     1      -2.735  16.340  18.800  1.00  0.00     0.153 C 
HETATM   15  N5  UNL     1      -1.633  15.401  19.018  1.00  0.00    -0.349 N 
HETATM   16  C20 UNL     1      -0.271  15.742  19.033  1.00  0.00     0.255 C 
HETATM   17  O3  UNL     1       0.438  14.865  19.655  1.00  0.00    -0.271 OA
BRANCH  15  18
HETATM   18  C17 UNL     1      -2.007  14.001  19.190  1.00  0.00     0.127 C 
BRANCH  18  19
HETATM   19  C18 UNL     1      -2.043  13.362  17.825  1.00  0.00     0.047 C 
BRANCH  19  20
HETATM   20  C19 UNL     1      -0.974  12.306  17.666  1.00  0.00     0.231 C 
BRANCH  20  21
HETATM   21  N6  UNL     1      -1.060  11.617  16.402  1.00  0.00    -0.079 N 
ATOM     22  H63 UNL     1      -1.721  12.078  15.778  1.00  0.00     0.274 HD
ATOM     23  H62 UNL     1      -0.205  11.741  15.859  1.00  0.00     0.274 HD
ATOM     24  H61 UNL     1      -1.286  10.628  16.510  1.00  0.00     0.274 HD
ENDBRANCH  20  21
ENDBRANCH  19  20
ENDBRANCH  18  19
ENDBRANCH  15  18
ENDBRANCH   5   8
BRANCH   1  25
HETATM   25  C9  UNL     1       3.963  20.678  16.291  1.00  0.00     0.081 A 
HETATM   26  C5  UNL     1       3.220  20.357  15.109  1.00  0.00     0.081 A 
HETATM   27  C6  UNL     1       4.360  19.449  15.403  1.00  0.00     0.032 A 
BRANCH  26  28
HETATM   28  C4  UNL     1       3.163  21.095  13.846  1.00  0.00     0.120 C 
BRANCH  28  29
HETATM   29  N1  UNL     1       2.740  20.662  12.621  1.00  0.00    -0.350 N 
ATOM     30  H1  UNL     1       3.454  20.812  11.908  1.00  0.00     0.167 HD
BRANCH  29  31
HETATM   31  C3  UNL     1       1.596  20.070  12.076  1.00  0.00     0.089 C 
BRANCH  31  32
HETATM   32  C2  UNL     1       1.761  18.850  11.278  1.00  0.00     0.007 C 
HETATM   33  C1  UNL     1       2.133  18.777  10.034  1.00  0.00     0.012 C 
ENDBRANCH  31  32
ENDBRANCH  29  31
ENDBRANCH  28  29
BRANCH  28  34
HETATM   34  O1  UNL     1       3.588  22.386  13.888  1.00  0.00    -0.349 OA
ATOM     35  H1  UNL     1       4.259  22.612  13.256  1.00  0.00     0.219 HD
ENDBRANCH  28  34
ENDBRANCH  26  28
BRANCH  27  36
HETATM   36  C7  UNL     1       5.728  19.595  14.854  1.00  0.00    -0.031 C 
HETATM   37  C8  UNL     1       6.312  18.572  14.279  1.00  0.00     0.007 C 
ENDBRANCH  27  36
ENDBRANCH   1  25
BRANCH   1  38
HETATM   38  O2  UNL     1       4.816  20.511  18.413  1.00  0.00    -0.349 OA
ATOM     39  H2  UNL     1       4.885  21.438  18.603  1.00  0.00     0.219 HD
ENDBRANCH   1  38
TORSDOF 13
ENDMDL
MODEL 3
REMARK VINA RESULT: -6.524283169      2.501      3.603
REMARK  13 active torsions:
REMARK  status: ('A' for Active; 'I' for Inactive)
REMARK    1  A    between atoms: C2_2  and  C3_3 
REMARK    2  A    between atoms: C3_3  and  N1_4 
REMARK    3  A    between atoms: N1_4  and  C4_6 
REMARK    4  A    between atoms: C4_6  and  O1_7 
REMARK    5  A    between atoms: C4_6  and  C5_9 
REMARK    6  A    between atoms: C6_10  and  C7_11 
REMARK    7  A    between atoms: C9_13  and  C10_14 
REMARK    8  A    between atoms: C10_14  and  O2_15 
REMARK    9  A    between atoms: N3_20  and  C13_21 
REMARK   10  A    between atoms: N5_28  and  C17_29 
REMARK   11  A    between atoms: C17_29  and  C18_30 
REMARK   12  A    between atoms: C18_30  and  C19_31 
REMARK   13  A    between atoms: C19_31  and  N6_32 
ROOT
HETATM    1  C10 UNL     1       4.432  20.649  17.544  1.00  0.00     0.119 C 
HETATM    2  N2  UNL     1       3.518  20.219  18.440  1.00  0.00    -0.362 N 
HETATM    3  C11 UNL     1       3.818  19.978  19.833  1.00  0.00     0.155 C 
HETATM    4  C12 UNL     1       3.258  18.579  20.215  1.00  0.00     0.293 C 
HETATM    5  N3  UNL     1       1.851  18.525  19.975  1.00  0.00     0.107 N 
HETATM    6  C21 UNL     1       1.369  19.757  19.358  1.00  0.00     0.293 C 
HETATM    7  C22 UNL     1       2.118  20.017  18.063  1.00  0.00     0.155 C 
ENDROOT
BRANCH   5   8
HETATM    8  C13 UNL     1       1.429  17.388  19.232  1.00  0.00     0.339 C 
HETATM    9  C14 UNL     1       1.096  17.816  17.782  1.00  0.00     0.277 C 
HETATM   10  N4  UNL     1      -0.105  17.164  17.377  1.00  0.00    -0.071 N 
HETATM   11  C15 UNL     1      -1.270  18.048  17.492  1.00  0.00     0.252 C 
ATOM     12  H42 UNL     1      -0.021  16.781  16.435  1.00  0.00     0.277 HD
ATOM     13  H41 UNL     1      -0.248  16.294  17.889  1.00  0.00     0.277 HD
HETATM   14  C16 UNL     1      -1.858  17.806  18.881  1.00  0.00     0.153 C 
HETATM   15  N5  UNL     1      -1.130  16.691  19.489  1.00  0.00    -0.349 N 
HETATM   16  C20 UNL     1       0.251  16.667  19.737  1.00  0.00     0.255 C 
HETATM   17  O3  UNL     1       0.564  15.801  20.638  1.00  0.00    -0.271 OA
BRANCH  15  18
HETATM   18  C17 UNL     1      -1.922  15.509  19.814  1.00  0.00     0.127 C 
BRANCH  18  19
HETATM   19  C18 UNL     1      -2.037  14.672  18.565  1.00  0.00     0.047 C 
BRANCH  19  20
HETATM   20  C19 UNL     1      -1.513  13.271  18.772  1.00  0.00     0.231 C 
BRANCH  20  21
HETATM   21  N6  UNL     1      -0.209  13.251  19.387  1.00  0.00    -0.079 N 
ATOM     22  H63 UNL     1       0.460  12.738  18.812  1.00  0.00     0.274 HD
ATOM     23  H62 UNL     1       0.223  14.175  19.358  1.00  0.00     0.274 HD
ATOM     24  H61 UNL     1      -0.229  12.886  20.339  1.00  0.00     0.274 HD
ENDBRANCH  20  21
ENDBRANCH  19  20
ENDBRANCH  18  19
ENDBRANCH  15  18
ENDBRANCH   5   8
BRANCH   1  25
HETATM   25  C9  UNL     1       4.459  20.909  16.116  1.00  0.00     0.081 A 
HETATM   26  C5  UNL     1       3.512  20.525  15.112  1.00  0.00     0.081 A 
HETATM   27  C6  UNL     1       4.653  19.589  15.293  1.00  0.00     0.032 A 
BRANCH  26  28
HETATM   28  C4  UNL     1       3.263  21.153  13.813  1.00  0.00     0.120 C 
BRANCH  28  29
HETATM   29  N1  UNL     1       2.820  20.577  12.656  1.00  0.00    -0.350 N 
ATOM     30  H1  UNL     1       3.554  20.559  11.947  1.00  0.00     0.167 HD
BRANCH  29  31
HETATM   31  C3  UNL     1       1.638  20.004  12.176  1.00  0.00     0.089 C 
BRANCH  31  32
HETATM   32  C2  UNL     1       1.742  18.828  11.307  1.00  0.00     0.007 C 
HETATM   33  C1  UNL     1       2.121  18.809  10.063  1.00  0.00     0.012 C 
ENDBRANCH  31  32
ENDBRANCH  29  31
ENDBRANCH  28  29
BRANCH  28  34
HETATM   34  O1  UNL     1       3.502  22.490  13.740  1.00  0.00    -0.349 OA
ATOM     35  H1  UNL     1       3.780  22.805  12.889  1.00  0.00     0.219 HD
ENDBRANCH  28  34
ENDBRANCH  26  28
BRANCH  27  36
HETATM   36  C7  UNL     1       5.909  19.618  14.509  1.00  0.00    -0.031 C 
HETATM   37  C8  UNL     1       6.488  18.493  14.165  1.00  0.00     0.007 C 
ENDBRANCH  27  36
ENDBRANCH   1  25
BRANCH   1  38
HETATM   38  O2  UNL     1       5.652  20.917  18.075  1.00  0.00    -0.349 OA
ATOM     39  H2  UNL     1       5.581  21.647  18.678  1.00  0.00     0.219 HD
ENDBRANCH   1  38
TORSDOF 13
ENDMDL
MODEL 4
REMARK VINA RESULT: -6.428747897      5.614      9.471
REMARK  13 active torsions:
REMARK  status: ('A' for Active; 'I' for Inactive)
REMARK    1  A    between atoms: C2_2  and  C3_3 
REMARK    2  A    between atoms: C3_3  and  N1_4 
REMARK    3  A    between atoms: N1_4  and  C4_6 
REMARK    4  A    between atoms: C4_6  and  O1_7 
REMARK    5  A    between atoms: C4_6  and  C5_9 
REMARK    6  A    between atoms: C6_10  and  C7_11 
REMARK    7  A    between atoms: C9_13  and  C10_14 
REMARK    8  A    between atoms: C10_14  and  O2_15 
REMARK    9  A    between atoms: N3_20  and  C13_21 
REMARK   10  A    between atoms: N5_28  and  C17_29 
REMARK   11  A    between atoms: C17_29  and  C18_30 
REMARK   12  A    between atoms: C18_30  and  C19_31 
REMARK   13  A    between atoms: C19_31  and  N6_32 
ROOT
HETATM    1  C10 UNL     1      -5.762  19.618  16.310  1.00  0.00     0.119 C 
HETATM    2  N2  UNL     1      -4.760  19.620  17.216  1.00  0.00    -0.362 N 
HETATM    3  C11 UNL     1      -3.384  19.909  16.882  1.00  0.00     0.155 C 
HETATM    4  C12 UNL     1      -2.492  18.799  17.506  1.00  0.00     0.293 C 
HETATM    5  N3  UNL     1      -2.679  18.750  18.922  1.00  0.00     0.107 N 
HETATM    6  C21 UNL     1      -3.715  19.683  19.355  1.00  0.00     0.293 C 
HETATM    7  C22 UNL     1      -5.018  19.381  18.637  1.00  0.00     0.155 C 
ENDROOT
BRANCH   5   8
HETATM    8  C13 UNL     1      -2.927  17.446  19.432  1.00  0.00     0.339 C 
HETATM    9  C14 UNL     1      -1.782  17.043  20.392  1.00  0.00     0.277 C 
HETATM   10  N4  UNL     1      -1.424  15.687  20.136  1.00  0.00    -0.071 N 
HETATM   11  C15 UNL     1      -0.228  15.590  19.291  1.00  0.00     0.252 C 
ATOM     12  H42 UNL     1      -1.310  15.162  21.003  1.00  0.00     0.277 HD
ATOM     13  H41 UNL     1      -2.204  15.166  19.736  1.00  0.00     0.277 HD
HETATM   14  C16 UNL     1      -0.725  15.509  17.850  1.00  0.00     0.153 C 
HETATM   15  N5  UNL     1      -2.185  15.409  17.882  1.00  0.00    -0.349 N 
HETATM   16  C20 UNL     1      -3.049  16.361  18.446  1.00  0.00     0.255 C 
HETATM   17  O3  UNL     1      -4.245  16.264  17.978  1.00  0.00    -0.271 OA
BRANCH  15  18
HETATM   18  C17 UNL     1      -2.758  14.193  17.313  1.00  0.00     0.127 C 
BRANCH  18  19
HETATM   19  C18 UNL     1      -1.633  13.217  17.082  1.00  0.00     0.047 C 
BRANCH  19  20
HETATM   20  C19 UNL     1      -1.866  12.361  15.860  1.00  0.00     0.231 C 
BRANCH  20  21
HETATM   21  N6  UNL     1      -3.053  12.742  15.135  1.00  0.00    -0.079 N 
ATOM     22  H63 UNL     1      -3.220  12.114  14.349  1.00  0.00     0.274 HD
ATOM     23  H62 UNL     1      -3.893  12.549  15.681  1.00  0.00     0.274 HD
ATOM     24  H61 UNL     1      -3.031  13.715  14.829  1.00  0.00     0.274 HD
ENDBRANCH  20  21
ENDBRANCH  19  20
ENDBRANCH  18  19
ENDBRANCH  15  18
ENDBRANCH   5   8
BRANCH   1  25
HETATM   25  C9  UNL     1      -7.180  19.313  16.316  1.00  0.00     0.081 A 
HETATM   26  C5  UNL     1      -7.832  18.063  16.578  1.00  0.00     0.081 A 
HETATM   27  C6  UNL     1      -7.569  18.348  15.143  1.00  0.00     0.032 A 
BRANCH  26  28
HETATM   28  C4  UNL     1      -9.198  17.836  17.053  1.00  0.00     0.120 C 
BRANCH  28  29
HETATM   29  N1  UNL     1      -9.946  18.601  17.902  1.00  0.00    -0.350 N 
ATOM     30  H1  UNL     1     -10.928  18.611  17.623  1.00  0.00     0.167 HD
BRANCH  29  31
HETATM   31  C3  UNL     1      -9.737  19.375  19.048  1.00  0.00     0.089 C 
BRANCH  31  32
HETATM   32  C2  UNL     1      -8.871  18.833  20.100  1.00  0.00     0.007 C 
HETATM   33  C1  UNL     1      -8.125  19.510  20.922  1.00  0.00     0.012 C 
ENDBRANCH  31  32
ENDBRANCH  29  31
ENDBRANCH  28  29
BRANCH  28  34
HETATM   34  O1  UNL     1      -9.812  16.713  16.591  1.00  0.00    -0.349 OA
ATOM     35  H1  UNL     1      -9.821  15.980  17.195  1.00  0.00     0.219 HD
ENDBRANCH  28  34
ENDBRANCH  26  28
BRANCH  27  36
HETATM   36  C7  UNL     1      -8.529  18.986  14.212  1.00  0.00    -0.031 C 
HETATM   37  C8  UNL     1      -8.540  18.636  12.948  1.00  0.00     0.007 C 
ENDBRANCH  27  36
ENDBRANCH   1  25
BRANCH   1  38
HETATM   38  O2  UNL     1      -5.385  19.987  15.059  1.00  0.00    -0.349 OA
ATOM     39  H2  UNL     1      -5.079  20.886  15.074  1.00  0.00     0.219 HD
ENDBRANCH   1  38
TORSDOF 13
ENDMDL
MODEL 5
REMARK VINA RESULT: -6.337177644      2.382      8.193
REMARK  13 active torsions:
REMARK  status: ('A' for Active; 'I' for Inactive)
REMARK    1  A    between atoms: C2_2  and  C3_3 
REMARK    2  A    between atoms: C3_3  and  N1_4 
REMARK    3  A    between atoms: N1_4  and  C4_6 
REMARK    4  A    between atoms: C4_6  and  O1_7 
REMARK    5  A    between atoms: C4_6  and  C5_9 
REMARK    6  A    between atoms: C6_10  and  C7_11 
REMARK    7  A    between atoms: C9_13  and  C10_14 
REMARK    8  A    between atoms: C10_14  and  O2_15 
REMARK    9  A    between atoms: N3_20  and  C13_21 
REMARK   10  A    between atoms: N5_28  and  C17_29 
REMARK   11  A    between atoms: C17_29  and  C18_30 
REMARK   12  A    between atoms: C18_30  and  C19_31 
REMARK   13  A    between atoms: C19_31  and  N6_32 
ROOT
HETATM    1  C10 UNL     1      -1.334  17.481  17.526  1.00  0.00     0.119 C 
HETATM    2  N2  UNL     1      -1.093  18.808  17.468  1.00  0.00    -0.362 N 
HETATM    3  C11 UNL     1      -1.435  19.631  16.330  1.00  0.00     0.155 C 
HETATM    4  C12 UNL     1      -0.191  20.487  15.959  1.00  0.00     0.293 C 
HETATM    5  N3  UNL     1       0.211  21.287  17.073  1.00  0.00     0.107 N 
HETATM    6  C21 UNL     1      -0.598  21.001  18.253  1.00  0.00     0.293 C 
HETATM    7  C22 UNL     1      -0.507  19.527  18.600  1.00  0.00     0.155 C 
ENDROOT
BRANCH   5   8
HETATM    8  C13 UNL     1       1.597  21.207  17.377  1.00  0.00     0.339 C 
HETATM    9  C14 UNL     1       2.276  22.557  17.041  1.00  0.00     0.277 C 
HETATM   10  N4  UNL     1       3.520  22.296  16.395  1.00  0.00    -0.071 N 
HETATM   11  C15 UNL     1       3.415  22.429  14.938  1.00  0.00     0.252 C 
ATOM     12  H42 UNL     1       4.264  22.886  16.769  1.00  0.00     0.277 HD
ATOM     13  H41 UNL     1       3.892  21.385  16.659  1.00  0.00     0.277 HD
HETATM   14  C16 UNL     1       3.087  21.037  14.402  1.00  0.00     0.153 C 
HETATM   15  N5  UNL     1       3.154  20.097  15.522  1.00  0.00    -0.349 N 
HETATM   16  C20 UNL     1       2.370  20.166  16.683  1.00  0.00     0.255 C 
HETATM   17  O3  UNL     1       2.304  19.030  17.289  1.00  0.00    -0.271 OA
BRANCH  15  18
HETATM   18  C17 UNL     1       4.154  19.039  15.412  1.00  0.00     0.127 C 
BRANCH  18  19
HETATM   19  C18 UNL     1       5.036  19.358  14.232  1.00  0.00     0.047 C 
BRANCH  19  20
HETATM   20  C19 UNL     1       6.502  19.219  14.567  1.00  0.00     0.231 C 
BRANCH  20  21
HETATM   21  N6  UNL     1       7.162  18.219  13.765  1.00  0.00    -0.079 N 
ATOM     22  H63 UNL     1       7.993  18.601  13.313  1.00  0.00     0.274 HD
ATOM     23  H62 UNL     1       7.604  17.511  14.352  1.00  0.00     0.274 HD
ATOM     24  H61 UNL     1       6.537  17.790  13.081  1.00  0.00     0.274 HD
ENDBRANCH  20  21
ENDBRANCH  19  20
ENDBRANCH  18  19
ENDBRANCH  15  18
ENDBRANCH   5   8
BRANCH   1  25
HETATM   25  C9  UNL     1      -1.058  16.405  18.460  1.00  0.00     0.081 A 
HETATM   26  C5  UNL     1      -1.902  15.317  18.857  1.00  0.00     0.081 A 
HETATM   27  C6  UNL     1      -1.953  16.510  19.742  1.00  0.00     0.032 A 
BRANCH  26  28
HETATM   28  C4  UNL     1      -1.509  14.011  19.388  1.00  0.00     0.120 C 
BRANCH  28  29
HETATM   29  N1  UNL     1      -0.705  13.063  18.820  1.00  0.00    -0.350 N 
ATOM     30  H1  UNL     1       0.139  12.914  19.372  1.00  0.00     0.167 HD
BRANCH  29  31
HETATM   31  C3  UNL     1      -0.723  12.242  17.688  1.00  0.00     0.089 C 
BRANCH  31  32
HETATM   32  C2  UNL     1      -1.760  12.476  16.679  1.00  0.00     0.007 C 
HETATM   33  C1  UNL     1      -1.797  11.994  15.472  1.00  0.00     0.012 C 
ENDBRANCH  31  32
ENDBRANCH  29  31
ENDBRANCH  28  29
BRANCH  28  34
HETATM   34  O1  UNL     1      -2.005  13.690  20.613  1.00  0.00    -0.349 OA
ATOM     35  H1  UNL     1      -2.304  14.426  21.134  1.00  0.00     0.219 HD
ENDBRANCH  28  34
ENDBRANCH  26  28
BRANCH  27  36
HETATM   36  C7  UNL     1      -1.134  16.699  20.962  1.00  0.00    -0.031 C 
HETATM   37  C8  UNL     1      -1.721  16.925  22.112  1.00  0.00     0.007 C 
ENDBRANCH  27  36
ENDBRANCH   1  25
BRANCH   1  38
HETATM   38  O2  UNL     1      -2.001  16.986  16.453  1.00  0.00    -0.349 OA
ATOM     39  H2  UNL     1      -1.446  17.040  15.684  1.00  0.00     0.219 HD
ENDBRANCH   1  38
TORSDOF 13
ENDMDL
