MODEL 1
REMARK VINA RESULT: -6.331331542      0.000      0.000
REMARK  9 active torsions:
REMARK  status: ('A' for Active; 'I' for Inactive)
REMARK       I    between atoms: N1_3  and  C3_4 
REMARK    1  A    between atoms: C4_9  and  C5_10 
REMARK       I    between atoms: C5_10  and  N4_12 
REMARK    2  A    between atoms: N4_12  and  C6_14 
REMARK    3  A    between atoms: C6_14  and  C7_15 
REMARK    4  A    between atoms: C7_15  and  N5_16 
REMARK    5  A    between atoms: N5_16  and  C8_19 
REMARK    6  A    between atoms: C8_19  and  C9_20 
REMARK    7  A    between atoms: C9_20  and  N6_21 
REMARK    8  A    between atoms: N6_21  and  C12_24 
REMARK    9  A    between atoms: C12_24  and  C13_25 
ROOT
HETATM    1  C5  UNL     1       0.750  19.976  15.813  1.00  0.00     0.244 C 
HETATM    2  O1  UNL     1       0.717  21.181  16.160  1.00  0.00    -0.271 OA
HETATM    3  N4  UNL     1      -0.445  19.332  15.434  1.00  0.00    -0.337 N 
ATOM      4  H4  UNL     1      -0.327  18.353  15.171  1.00  0.00     0.167 HD
ENDROOT
BRANCH   3   5
HETATM    5  C6  UNL     1      -1.767  19.795  15.353  1.00  0.00     0.091 C 
BRANCH   5   6
HETATM    6  C7  UNL     1      -2.921  18.990  15.824  1.00  0.00     0.277 C 
BRANCH   6   7
HETATM    7  N5  UNL     1      -2.597  17.694  16.296  1.00  0.00    -0.069 N 
ATOM      8  H52 UNL     1      -3.144  16.970  15.829  1.00  0.00     0.277 HD
ATOM      9  H51 UNL     1      -1.668  17.399  15.994  1.00  0.00     0.277 HD
BRANCH   7  10
HETATM   10  C8  UNL     1      -2.745  17.632  17.790  1.00  0.00     0.260 C 
BRANCH  10  11
HETATM   11  C9  UNL     1      -1.431  17.613  18.474  1.00  0.00     0.264 C 
BRANCH  11  12
HETATM   12  N6  UNL     1      -1.167  16.430  19.267  1.00  0.00    -0.071 N 
HETATM   13  C10 UNL     1      -1.616  16.644  20.663  1.00  0.00     0.272 C 
HETATM   14  C11 UNL     1       0.262  16.266  19.364  1.00  0.00     0.272 C 
BRANCH  12  15
HETATM   15  C12 UNL     1      -1.908  15.312  18.811  1.00  0.00     0.268 C 
BRANCH  15  16
HETATM   16  C13 UNL     1      -1.249  14.334  17.917  1.00  0.00     0.147 C 
HETATM   17  C14 UNL     1      -1.623  12.915  18.270  1.00  0.00     0.036 C 
HETATM   18  C15 UNL     1      -1.677  12.238  16.912  1.00  0.00     0.029 C 
HETATM   19  C16 UNL     1      -2.130  13.392  16.061  1.00  0.00     0.168 C 
HETATM   20  O2  UNL     1      -1.749  14.565  16.633  1.00  0.00    -0.384 OA
ENDBRANCH  15  16
ENDBRANCH  12  15
ENDBRANCH  11  12
ENDBRANCH  10  11
ENDBRANCH   7  10
ENDBRANCH   6   7
ENDBRANCH   5   6
ENDBRANCH   3   5
BRANCH   1  21
HETATM   21  C4  UNL     1       2.067  19.328  15.832  1.00  0.00     0.181 C 
HETATM   22  N1  UNL     1       3.179  20.039  15.297  1.00  0.00    -0.325 N 
HETATM   23  C2  UNL     1       4.394  20.144  16.072  1.00  0.00     0.206 C 
HETATM   24  C3  UNL     1       3.161  20.597  13.995  1.00  0.00     0.185 C 
HETATM   25  C1  UNL     1       5.522  20.858  15.406  1.00  0.00     0.049 C 
HETATM   26  S1  UNL     1       4.007  20.765  17.680  1.00  0.00     0.165 S 
HETATM   27  C18 UNL     1       2.599  19.826  18.250  1.00  0.00     0.145 C 
HETATM   28  O3  UNL     1       3.639  22.202  17.635  1.00  0.00    -0.226 OA
HETATM   29  O4  UNL     1       5.175  20.609  18.622  1.00  0.00    -0.226 OA
HETATM   30  C17 UNL     1       2.325  18.777  17.221  1.00  0.00     0.050 C 
HETATM   31  N2  UNL     1       2.886  19.731  13.037  1.00  0.00    -0.374 N 
HETATM   32  N3  UNL     1       3.394  21.928  13.627  1.00  0.00    -0.064 NA
ATOM     33  H22 UNL     1       2.717  18.761  13.304  1.00  0.00     0.158 HD
ATOM     34  H21 UNL     1       2.873  20.133  12.099  1.00  0.00     0.158 HD
ENDBRANCH   1  21
TORSDOF 9
ENDMDL
MODEL 2
REMARK VINA RESULT: -6.230602433      3.018      7.375
REMARK  9 active torsions:
REMARK  status: ('A' for Active; 'I' for Inactive)
REMARK       I    between atoms: N1_3  and  C3_4 
REMARK    1  A    between atoms: C4_9  and  C5_10 
REMARK       I    between atoms: C5_10  and  N4_12 
REMARK    2  A    between atoms: N4_12  and  C6_14 
REMARK    3  A    between atoms: C6_14  and  C7_15 
REMARK    4  A    between atoms: C7_15  and  N5_16 
REMARK    5  A    between atoms: N5_16  and  C8_19 
REMARK    6  A    between atoms: C8_19  and  C9_20 
REMARK    7  A    between atoms: C9_20  and  N6_21 
REMARK    8  A    between atoms: N6_21  and  C12_24 
REMARK    9  A    between atoms: C12_24  and  C13_25 
ROOT
HETATM    1  C5  UNL     1       0.750  17.382  19.608  1.00  0.00     0.244 C 
HETATM    2  O1  UNL     1       1.869  17.134  20.118  1.00  0.00    -0.271 OA
HETATM    3  N4  UNL     1      -0.101  18.318  20.228  1.00  0.00    -0.337 N 
ATOM      4  H4  UNL     1      -0.991  18.455  19.749  1.00  0.00     0.167 HD
ENDROOT
BRANCH   3   5
HETATM    5  C6  UNL     1       0.056  19.095  21.386  1.00  0.00     0.091 C 
BRANCH   5   6
HETATM    6  C7  UNL     1       1.084  20.158  21.497  1.00  0.00     0.277 C 
BRANCH   6   7
HETATM    7  N5  UNL     1       2.361  19.717  21.926  1.00  0.00    -0.069 N 
ATOM      8  H52 UNL     1       2.436  19.700  22.943  1.00  0.00     0.277 HD
ATOM      9  H51 UNL     1       2.500  18.722  21.748  1.00  0.00     0.277 HD
BRANCH   7  10
HETATM   10  C8  UNL     1       3.439  20.554  21.298  1.00  0.00     0.260 C 
BRANCH  10  11
HETATM   11  C9  UNL     1       4.021  19.899  20.103  1.00  0.00     0.264 C 
BRANCH  11  12
HETATM   12  N6  UNL     1       3.892  20.644  18.868  1.00  0.00    -0.071 N 
HETATM   13  C10 UNL     1       5.230  20.870  18.271  1.00  0.00     0.272 C 
HETATM   14  C11 UNL     1       3.409  21.964  19.189  1.00  0.00     0.272 C 
BRANCH  12  15
HETATM   15  C12 UNL     1       3.170  19.921  17.887  1.00  0.00     0.268 C 
BRANCH  15  16
HETATM   16  C13 UNL     1       3.356  20.270  16.461  1.00  0.00     0.147 C 
HETATM   17  C14 UNL     1       3.515  19.039  15.602  1.00  0.00     0.036 C 
HETATM   18  C15 UNL     1       2.812  19.439  14.317  1.00  0.00     0.029 C 
HETATM   19  C16 UNL     1       1.754  20.353  14.869  1.00  0.00     0.168 C 
HETATM   20  O2  UNL     1       2.178  20.892  16.044  1.00  0.00    -0.384 OA
ENDBRANCH  15  16
ENDBRANCH  12  15
ENDBRANCH  11  12
ENDBRANCH  10  11
ENDBRANCH   7  10
ENDBRANCH   6   7
ENDBRANCH   5   6
ENDBRANCH   3   5
BRANCH   1  21
HETATM   21  C4  UNL     1       0.421  16.656  18.375  1.00  0.00     0.181 C 
HETATM   22  N1  UNL     1      -0.737  15.828  18.365  1.00  0.00    -0.325 N 
HETATM   23  C2  UNL     1      -1.692  15.958  17.288  1.00  0.00     0.206 C 
HETATM   24  C3  UNL     1      -0.958  14.829  19.345  1.00  0.00     0.185 C 
HETATM   25  C1  UNL     1      -2.844  15.010  17.333  1.00  0.00     0.049 C 
HETATM   26  S1  UNL     1      -2.169  17.652  17.133  1.00  0.00     0.165 S 
HETATM   27  C18 UNL     1      -0.655  18.599  17.175  1.00  0.00     0.145 C 
HETATM   28  O3  UNL     1      -3.033  18.080  18.261  1.00  0.00    -0.226 OA
HETATM   29  O4  UNL     1      -2.920  17.893  15.847  1.00  0.00    -0.226 OA
HETATM   30  C17 UNL     1       0.474  17.621  17.207  1.00  0.00     0.050 C 
HETATM   31  N2  UNL     1       0.021  13.950  19.454  1.00  0.00    -0.374 N 
HETATM   32  N3  UNL     1      -2.069  14.679  20.185  1.00  0.00    -0.064 NA
ATOM     33  H22 UNL     1       0.831  14.058  18.842  1.00  0.00     0.158 HD
ATOM     34  H21 UNL     1      -0.137  13.231  20.159  1.00  0.00     0.158 HD
ENDBRANCH   1  21
TORSDOF 9
ENDMDL
MODEL 3
REMARK VINA RESULT: -6.137776347      2.385      3.770
REMARK  9 active torsions:
REMARK  status: ('A' for Active; 'I' for Inactive)
REMARK       I    between atoms: N1_3  and  C3_4 
REMARK    1  A    between atoms: C4_9  and  C5_10 
REMARK       I    between atoms: C5_10  and  N4_12 
REMARK    2  A    between atoms: N4_12  and  C6_14 
REMARK    3  A    between atoms: C6_14  and  C7_15 
REMARK    4  A    between atoms: C7_15  and  N5_16 
REMARK    5  A    between atoms: N5_16  and  C8_19 
REMARK    6  A    between atoms: C8_19  and  C9_20 
REMARK    7  A    between atoms: C9_20  and  N6_21 
REMARK    8  A    between atoms: N6_21  and  C12_24 
REMARK    9  A    between atoms: C12_24  and  C13_25 
ROOT
HETATM    1  C5  UNL     1       0.967  17.559  20.251  1.00  0.00     0.244 C 
HETATM    2  O1  UNL     1       0.665  16.401  20.625  1.00  0.00    -0.271 OA
HETATM    3  N4  UNL     1       0.283  18.663  20.797  1.00  0.00    -0.337 N 
ATOM      4  H4  UNL     1       0.589  19.567  20.434  1.00  0.00     0.167 HD
ENDROOT
BRANCH   3   5
HETATM    5  C6  UNL     1      -0.743  18.744  21.751  1.00  0.00     0.091 C 
BRANCH   5   6
HETATM    6  C7  UNL     1      -2.108  19.217  21.411  1.00  0.00     0.277 C 
BRANCH   6   7
HETATM    7  N5  UNL     1      -2.280  19.643  20.071  1.00  0.00    -0.069 N 
ATOM      8  H52 UNL     1      -2.519  20.633  20.013  1.00  0.00     0.277 HD
ATOM      9  H51 UNL     1      -1.396  19.671  19.563  1.00  0.00     0.277 HD
BRANCH   7  10
HETATM   10  C8  UNL     1      -3.297  18.781  19.378  1.00  0.00     0.260 C 
BRANCH  10  11
HETATM   11  C9  UNL     1      -2.688  17.550  18.821  1.00  0.00     0.264 C 
BRANCH  11  12
HETATM   12  N6  UNL     1      -3.449  16.910  17.767  1.00  0.00    -0.071 N 
HETATM   13  C10 UNL     1      -2.957  17.359  16.443  1.00  0.00     0.272 C 
HETATM   14  C11 UNL     1      -4.805  17.393  17.836  1.00  0.00     0.272 C 
BRANCH  12  15
HETATM   15  C12 UNL     1      -3.271  15.504  17.766  1.00  0.00     0.268 C 
BRANCH  15  16
HETATM   16  C13 UNL     1      -1.896  14.958  17.798  1.00  0.00     0.147 C 
HETATM   17  C14 UNL     1      -1.643  14.155  19.051  1.00  0.00     0.036 C 
HETATM   18  C15 UNL     1      -0.735  13.044  18.556  1.00  0.00     0.029 C 
HETATM   19  C16 UNL     1      -1.247  12.892  17.151  1.00  0.00     0.168 C 
HETATM   20  O2  UNL     1      -1.796  14.063  16.730  1.00  0.00    -0.384 OA
ENDBRANCH  15  16
ENDBRANCH  12  15
ENDBRANCH  11  12
ENDBRANCH  10  11
ENDBRANCH   7  10
ENDBRANCH   6   7
ENDBRANCH   5   6
ENDBRANCH   3   5
BRANCH   1  21
HETATM   21  C4  UNL     1       2.038  17.663  19.251  1.00  0.00     0.181 C 
HETATM   22  N1  UNL     1       1.901  18.625  18.210  1.00  0.00    -0.325 N 
HETATM   23  C2  UNL     1       2.997  19.524  17.928  1.00  0.00     0.206 C 
HETATM   24  C3  UNL     1       0.747  18.690  17.391  1.00  0.00     0.185 C 
HETATM   25  C1  UNL     1       2.783  20.458  16.783  1.00  0.00     0.049 C 
HETATM   26  S1  UNL     1       3.490  20.328  19.422  1.00  0.00     0.165 S 
HETATM   27  C18 UNL     1       3.613  19.046  20.659  1.00  0.00     0.145 C 
HETATM   28  O3  UNL     1       2.482  21.324  19.862  1.00  0.00    -0.226 OA
HETATM   29  O4  UNL     1       4.809  21.039  19.249  1.00  0.00    -0.226 OA
HETATM   30  C17 UNL     1       3.372  17.743  19.966  1.00  0.00     0.050 C 
HETATM   31  N2  UNL     1       0.452  17.560  16.776  1.00  0.00    -0.374 N 
HETATM   32  N3  UNL     1      -0.089  19.792  17.171  1.00  0.00    -0.064 NA
ATOM     33  H22 UNL     1       1.061  16.757  16.936  1.00  0.00     0.158 HD
ATOM     34  H21 UNL     1      -0.378  17.607  16.187  1.00  0.00     0.158 HD
ENDBRANCH   1  21
TORSDOF 9
ENDMDL
MODEL 4
REMARK VINA RESULT: -6.111678773      2.665      7.670
REMARK  9 active torsions:
REMARK  status: ('A' for Active; 'I' for Inactive)
REMARK       I    between atoms: N1_3  and  C3_4 
REMARK    1  A    between atoms: C4_9  and  C5_10 
REMARK       I    between atoms: C5_10  and  N4_12 
REMARK    2  A    between atoms: N4_12  and  C6_14 
REMARK    3  A    between atoms: C6_14  and  C7_15 
REMARK    4  A    between atoms: C7_15  and  N5_16 
REMARK    5  A    between atoms: N5_16  and  C8_19 
REMARK    6  A    between atoms: C8_19  and  C9_20 
REMARK    7  A    between atoms: C9_20  and  N6_21 
REMARK    8  A    between atoms: N6_21  and  C12_24 
REMARK    9  A    between atoms: C12_24  and  C13_25 
ROOT
HETATM    1  C5  UNL     1      -0.313  16.831  20.640  1.00  0.00     0.244 C 
HETATM    2  O1  UNL     1       0.057  16.784  21.838  1.00  0.00    -0.271 OA
HETATM    3  N4  UNL     1       0.625  17.154  19.639  1.00  0.00    -0.337 N 
ATOM      4  H4  UNL     1       0.239  17.174  18.694  1.00  0.00     0.167 HD
ENDROOT
BRANCH   3   5
HETATM    5  C6  UNL     1       1.995  17.454  19.707  1.00  0.00     0.091 C 
BRANCH   5   6
HETATM    6  C7  UNL     1       2.498  18.760  20.197  1.00  0.00     0.277 C 
BRANCH   6   7
HETATM    7  N5  UNL     1       1.710  19.882  19.838  1.00  0.00    -0.069 N 
ATOM      8  H52 UNL     1       0.737  19.626  19.672  1.00  0.00     0.277 HD
ATOM      9  H51 UNL     1       1.567  20.515  20.624  1.00  0.00     0.277 HD
BRANCH   7  10
HETATM   10  C8  UNL     1       2.314  20.585  18.655  1.00  0.00     0.260 C 
BRANCH  10  11
HETATM   11  C9  UNL     1       1.325  20.790  17.571  1.00  0.00     0.264 C 
BRANCH  11  12
HETATM   12  N6  UNL     1       1.669  20.183  16.302  1.00  0.00    -0.071 N 
HETATM   13  C10 UNL     1       0.753  20.672  15.243  1.00  0.00     0.272 C 
HETATM   14  C11 UNL     1       1.399  18.770  16.393  1.00  0.00     0.272 C 
BRANCH  12  15
HETATM   15  C12 UNL     1       2.964  20.560  15.869  1.00  0.00     0.268 C 
BRANCH  15  16
HETATM   16  C13 UNL     1       4.000  19.513  15.719  1.00  0.00     0.147 C 
HETATM   17  C14 UNL     1       4.352  19.281  14.270  1.00  0.00     0.036 C 
HETATM   18  C15 UNL     1       5.840  18.985  14.333  1.00  0.00     0.029 C 
HETATM   19  C16 UNL     1       6.227  19.837  15.510  1.00  0.00     0.168 C 
HETATM   20  O2  UNL     1       5.155  20.004  16.331  1.00  0.00    -0.384 OA
ENDBRANCH  15  16
ENDBRANCH  12  15
ENDBRANCH  11  12
ENDBRANCH  10  11
ENDBRANCH   7  10
ENDBRANCH   6   7
ENDBRANCH   5   6
ENDBRANCH   3   5
BRANCH   1  21
HETATM   21  C4  UNL     1      -1.727  16.533  20.381  1.00  0.00     0.181 C 
HETATM   22  N1  UNL     1      -2.367  17.184  19.289  1.00  0.00    -0.325 N 
HETATM   23  C2  UNL     1      -3.123  16.398  18.340  1.00  0.00     0.206 C 
HETATM   24  C3  UNL     1      -2.344  18.592  19.131  1.00  0.00     0.185 C 
HETATM   25  C1  UNL     1      -3.805  17.174  17.262  1.00  0.00     0.049 C 
HETATM   26  S1  UNL     1      -2.113  15.079  17.740  1.00  0.00     0.165 S 
HETATM   27  C18 UNL     1      -1.347  14.347  19.178  1.00  0.00     0.145 C 
HETATM   28  O3  UNL     1      -1.050  15.577  16.831  1.00  0.00    -0.226 OA
HETATM   29  O4  UNL     1      -2.934  14.060  16.990  1.00  0.00    -0.226 OA
HETATM   30  C17 UNL     1      -1.921  15.030  20.377  1.00  0.00     0.050 C 
HETATM   31  N2  UNL     1      -2.803  19.262  20.172  1.00  0.00    -0.374 N 
HETATM   32  N3  UNL     1      -1.899  19.326  18.024  1.00  0.00    -0.064 NA
ATOM     33  H22 UNL     1      -3.128  18.728  20.979  1.00  0.00     0.158 HD
ATOM     34  H21 UNL     1      -2.787  20.275  20.059  1.00  0.00     0.158 HD
ENDBRANCH   1  21
TORSDOF 9
ENDMDL
MODEL 5
REMARK VINA RESULT: -6.101881775      3.203      8.098
REMARK  9 active torsions:
REMARK  status: ('A' for Active; 'I' for Inactive)
REMARK       I    between atoms: N1_3  and  C3_4 
REMARK    1  A    between atoms: C4_9  and  C5_10 
REMARK       I    between atoms: C5_10  and  N4_12 
REMARK    2  A    between atoms: N4_12  and  C6_14 
REMARK    3  A    between atoms: C6_14  and  C7_15 
REMARK    4  A    between atoms: C7_15  and  N5_16 
REMARK    5  A    between atoms: N5_16  and  C8_19 
REMARK    6  A    between atoms: C8_19  and  C9_20 
REMARK    7  A    between atoms: C9_20  and  N6_21 
REMARK    8  A    between atoms: N6_21  and  C12_24 
REMARK    9  A    between atoms: C12_24  and  C13_25 
ROOT
HETATM    1  C5  UNL     1      -0.307  16.821  20.559  1.00  0.00     0.244 C 
HETATM    2  O1  UNL     1       0.078  16.816  21.753  1.00  0.00    -0.271 OA
HETATM    3  N4  UNL     1       0.615  17.117  19.536  1.00  0.00    -0.337 N 
ATOM      4  H4  UNL     1       0.216  17.103  18.596  1.00  0.00     0.167 HD
ENDROOT
BRANCH   3   5
HETATM    5  C6  UNL     1       1.983  17.428  19.575  1.00  0.00     0.091 C 
BRANCH   5   6
HETATM    6  C7  UNL     1       2.482  18.764  19.982  1.00  0.00     0.277 C 
BRANCH   6   7
HETATM    7  N5  UNL     1       3.805  18.782  20.490  1.00  0.00    -0.069 N 
ATOM      8  H52 UNL     1       3.915  18.158  21.290  1.00  0.00     0.277 HD
ATOM      9  H51 UNL     1       4.464  18.331  19.855  1.00  0.00     0.277 HD
BRANCH   7  10
HETATM   10  C8  UNL     1       4.218  20.190  20.817  1.00  0.00     0.260 C 
BRANCH  10  11
HETATM   11  C9  UNL     1       4.999  20.805  19.719  1.00  0.00     0.264 C 
BRANCH  11  12
HETATM   12  N6  UNL     1       4.363  21.930  19.065  1.00  0.00    -0.071 N 
HETATM   13  C10 UNL     1       5.312  23.065  18.974  1.00  0.00     0.272 C 
HETATM   14  C11 UNL     1       3.307  22.406  19.921  1.00  0.00     0.272 C 
BRANCH  12  15
HETATM   15  C12 UNL     1       4.015  21.634  17.724  1.00  0.00     0.268 C 
BRANCH  15  16
HETATM   16  C13 UNL     1       4.641  20.468  17.064  1.00  0.00     0.147 C 
HETATM   17  C14 UNL     1       3.630  19.654  16.292  1.00  0.00     0.036 C 
HETATM   18  C15 UNL     1       4.429  19.187  15.089  1.00  0.00     0.029 C 
HETATM   19  C16 UNL     1       5.364  20.353  14.925  1.00  0.00     0.168 C 
HETATM   20  O2  UNL     1       5.539  20.975  16.122  1.00  0.00    -0.384 OA
ENDBRANCH  15  16
ENDBRANCH  12  15
ENDBRANCH  11  12
ENDBRANCH  10  11
ENDBRANCH   7  10
ENDBRANCH   6   7
ENDBRANCH   5   6
ENDBRANCH   3   5
BRANCH   1  21
HETATM   21  C4  UNL     1      -1.723  16.506  20.330  1.00  0.00     0.181 C 
HETATM   22  N1  UNL     1      -2.395  17.152  19.253  1.00  0.00    -0.325 N 
HETATM   23  C2  UNL     1      -3.161  16.360  18.318  1.00  0.00     0.206 C 
HETATM   24  C3  UNL     1      -2.393  18.561  19.100  1.00  0.00     0.185 C 
HETATM   25  C1  UNL     1      -3.875  17.129  17.258  1.00  0.00     0.049 C 
HETATM   26  S1  UNL     1      -2.147  15.055  17.692  1.00  0.00     0.165 S 
HETATM   27  C18 UNL     1      -1.340  14.329  19.111  1.00  0.00     0.145 C 
HETATM   28  O3  UNL     1      -1.110  15.570  16.763  1.00  0.00    -0.226 OA
HETATM   29  O4  UNL     1      -2.970  14.029  16.956  1.00  0.00    -0.226 OA
HETATM   30  C17 UNL     1      -1.897  15.000  20.324  1.00  0.00     0.050 C 
HETATM   31  N2  UNL     1      -2.839  19.221  20.153  1.00  0.00    -0.374 N 
HETATM   32  N3  UNL     1      -1.981  19.304  17.987  1.00  0.00    -0.064 NA
ATOM     33  H22 UNL     1      -3.139  18.680  20.964  1.00  0.00     0.158 HD
ATOM     34  H21 UNL     1      -2.837  20.235  20.043  1.00  0.00     0.158 HD
ENDBRANCH   1  21
TORSDOF 9
ENDMDL
