MODEL 1
REMARK VINA RESULT: -7.076527265      0.000      0.000
REMARK  10 active torsions:
REMARK  status: ('A' for Active; 'I' for Inactive)
REMARK    1  A    between atoms: C7_14  and  N4_15 
REMARK       I    between atoms: N4_15  and  C8_17 
REMARK    2  A    between atoms: C8_17  and  C9_19 
REMARK    3  A    between atoms: C9_19  and  C10_21 
REMARK    4  A    between atoms: C10_21  and  C11_22 
REMARK    5  A    between atoms: C11_22  and  C12_23 
REMARK    6  A    between atoms: C12_23  and  C13_24 
REMARK    7  A    between atoms: C13_24  and  N5_25 
REMARK    8  A    between atoms: N6_28  and  C16_29 
REMARK    9  A    between atoms: C16_29  and  C17_30 
REMARK   10  A    between atoms: C17_30  and  O3_31 
ROOT
HETATM    1  N4  UNL     1      -2.115  16.804  20.235  1.00  0.00    -0.346 N 
ATOM      2  H4  UNL     1      -3.075  16.742  20.574  1.00  0.00     0.163 HD
HETATM    3  C8  UNL     1      -1.058  16.771  21.180  1.00  0.00     0.287 C 
HETATM    4  O1  UNL     1       0.138  16.843  20.823  1.00  0.00    -0.264 OA
ENDROOT
BRANCH   3   5
HETATM    5  C9  UNL     1      -1.386  16.651  22.588  1.00  0.00     0.216 C 
HETATM    6  O2  UNL     1      -2.104  15.685  23.013  1.00  0.00    -0.287 OA
BRANCH   5   7
HETATM    7  C10 UNL     1      -0.871  17.675  23.533  1.00  0.00     0.089 C 
BRANCH   7   8
HETATM    8  C11 UNL     1      -1.394  19.026  23.074  1.00  0.00     0.010 C 
BRANCH   8   9
HETATM    9  C12 UNL     1      -0.296  19.991  22.805  1.00  0.00     0.028 C 
BRANCH   9  10
HETATM   10  C13 UNL     1      -0.031  20.345  21.396  1.00  0.00     0.237 C 
BRANCH  10  11
HETATM   11  N5  UNL     1       1.326  20.471  20.974  1.00  0.00    -0.062 N 
HETATM   12  C14 UNL     1       1.354  19.919  19.588  1.00  0.00     0.265 C 
HETATM   13  C15 UNL     1       2.590  20.430  18.883  1.00  0.00     0.265 C 
HETATM   14  N6  UNL     1       3.609  20.627  19.890  1.00  0.00    -0.060 N 
HETATM   15  C18 UNL     1       3.476  19.460  20.769  1.00  0.00     0.265 C 
HETATM   16  C20 UNL     1       3.298  21.769  20.730  1.00  0.00     0.265 C 
HETATM   17  C19 UNL     1       2.258  19.614  21.682  1.00  0.00     0.265 C 
HETATM   18  C21 UNL     1       1.787  21.830  20.818  1.00  0.00     0.265 C 
BRANCH  14  19
HETATM   19  C16 UNL     1       4.940  20.613  19.408  1.00  0.00     0.263 C 
BRANCH  19  20
HETATM   20  C17 UNL     1       5.135  20.979  17.979  1.00  0.00     0.192 C 
BRANCH  20  21
HETATM   21  O3  UNL     1       6.422  21.002  17.538  1.00  0.00    -0.399 OA
ATOM     22  H3  UNL     1       6.972  20.282  17.822  1.00  0.00     0.209 HD
ENDBRANCH  20  21
ENDBRANCH  19  20
ENDBRANCH  14  19
ENDBRANCH  10  11
ENDBRANCH   9  10
ENDBRANCH   8   9
ENDBRANCH   7   8
ENDBRANCH   5   7
ENDBRANCH   3   5
BRANCH   1  23
HETATM   23  C7  UNL     1      -1.894  16.919  18.825  1.00  0.00     0.124 C 
HETATM   24  C3  UNL     1      -1.949  15.556  18.228  1.00  0.00     0.025 A 
HETATM   25  C2  UNL     1      -1.739  14.491  18.980  1.00  0.00     0.119 A 
HETATM   26  C4  UNL     1      -2.218  15.427  16.816  1.00  0.00     0.126 A 
HETATM   27  N2  UNL     1      -1.773  13.196  18.413  1.00  0.00    -0.201 N 
HETATM   28  C1  UNL     1      -2.030  12.993  17.032  1.00  0.00     0.677 A 
ATOM     29  H2  UNL     1      -1.609  12.388  19.012  1.00  0.00     0.183 HD
HETATM   30  N1  UNL     1      -2.057  11.786  16.518  1.00  0.00    -0.234 N 
HETATM   31  N7  UNL     1      -2.258  14.130  16.213  1.00  0.00    -0.177 N 
ATOM     32  H12 UNL     1      -1.894  10.969  17.106  1.00  0.00     0.174 HD
ATOM     33  H11 UNL     1      -2.242  11.639  15.525  1.00  0.00     0.174 HD
ATOM     34  H7  UNL     1      -2.447  14.025  15.215  1.00  0.00     0.186 HD
HETATM   35  N3  UNL     1      -2.443  16.490  16.074  1.00  0.00    -0.375 N 
HETATM   36  C5  UNL     1      -2.434  17.832  16.630  1.00  0.00     0.123 C 
ATOM     37  H3  UNL     1      -2.630  16.369  15.079  1.00  0.00     0.161 HD
HETATM   38  C6  UNL     1      -2.838  17.806  18.096  1.00  0.00     0.050 C 
ENDBRANCH   1  23
TORSDOF 10
ENDMDL
MODEL 2
REMARK VINA RESULT: -7.041791257      1.572      2.125
REMARK  10 active torsions:
REMARK  status: ('A' for Active; 'I' for Inactive)
REMARK    1  A    between atoms: C7_14  and  N4_15 
REMARK       I    between atoms: N4_15  and  C8_17 
REMARK    2  A    between atoms: C8_17  and  C9_19 
REMARK    3  A    between atoms: C9_19  and  C10_21 
REMARK    4  A    between atoms: C10_21  and  C11_22 
REMARK    5  A    between atoms: C11_22  and  C12_23 
REMARK    6  A    between atoms: C12_23  and  C13_24 
REMARK    7  A    between atoms: C13_24  and  N5_25 
REMARK    8  A    between atoms: N6_28  and  C16_29 
REMARK    9  A    between atoms: C16_29  and  C17_30 
REMARK   10  A    between atoms: C17_30  and  O3_31 
ROOT
HETATM    1  N4  UNL     1      -1.743  16.197  20.100  1.00  0.00    -0.346 N 
ATOM      2  H4  UNL     1      -1.711  15.234  20.435  1.00  0.00     0.163 HD
HETATM    3  C8  UNL     1      -1.779  17.246  21.055  1.00  0.00     0.287 C 
HETATM    4  O1  UNL     1      -1.819  18.445  20.705  1.00  0.00    -0.264 OA
ENDROOT
BRANCH   3   5
HETATM    5  C9  UNL     1      -1.769  16.904  22.466  1.00  0.00     0.216 C 
HETATM    6  O2  UNL     1      -1.954  15.701  22.849  1.00  0.00    -0.287 OA
BRANCH   5   7
HETATM    7  C10 UNL     1      -1.538  17.982  23.462  1.00  0.00     0.089 C 
BRANCH   7   8
HETATM    8  C11 UNL     1      -0.038  18.196  23.565  1.00  0.00     0.010 C 
BRANCH   8   9
HETATM    9  C12 UNL     1       0.370  19.547  23.098  1.00  0.00     0.028 C 
BRANCH   9  10
HETATM   10  C13 UNL     1       1.702  19.678  22.474  1.00  0.00     0.237 C 
BRANCH  10  11
HETATM   11  N5  UNL     1       1.786  19.656  21.050  1.00  0.00    -0.062 N 
HETATM   12  C14 UNL     1       3.153  20.165  20.734  1.00  0.00     0.265 C 
HETATM   13  C15 UNL     1       3.521  19.741  19.330  1.00  0.00     0.265 C 
HETATM   14  N6  UNL     1       2.294  19.662  18.569  1.00  0.00    -0.060 N 
HETATM   15  C18 UNL     1       1.531  20.841  18.996  1.00  0.00     0.265 C 
HETATM   16  C20 UNL     1       1.495  18.525  18.984  1.00  0.00     0.265 C 
HETATM   17  C19 UNL     1       0.923  20.611  20.381  1.00  0.00     0.265 C 
HETATM   18  C21 UNL     1       1.761  18.337  20.463  1.00  0.00     0.265 C 
BRANCH  14  19
HETATM   19  C16 UNL     1       2.450  19.776  17.166  1.00  0.00     0.263 C 
BRANCH  19  20
HETATM   20  C17 UNL     1       1.349  19.231  16.327  1.00  0.00     0.192 C 
BRANCH  20  21
HETATM   21  O3  UNL     1       1.702  18.273  15.427  1.00  0.00    -0.399 OA
ATOM     22  H3  UNL     1       1.006  17.695  15.140  1.00  0.00     0.209 HD
ENDBRANCH  20  21
ENDBRANCH  19  20
ENDBRANCH  14  19
ENDBRANCH  10  11
ENDBRANCH   9  10
ENDBRANCH   8   9
ENDBRANCH   7   8
ENDBRANCH   5   7
ENDBRANCH   3   5
BRANCH   1  23
HETATM   23  C7  UNL     1      -1.750  16.432  18.688  1.00  0.00     0.124 C 
HETATM   24  C3  UNL     1      -1.788  15.114  17.995  1.00  0.00     0.025 A 
HETATM   25  C2  UNL     1      -1.383  14.022  18.616  1.00  0.00     0.119 A 
HETATM   26  C4  UNL     1      -2.259  15.062  16.631  1.00  0.00     0.126 A 
HETATM   27  N2  UNL     1      -1.402  12.773  17.954  1.00  0.00    -0.201 N 
HETATM   28  C1  UNL     1      -1.850  12.646  16.614  1.00  0.00     0.677 A 
ATOM     29  H2  UNL     1      -1.086  11.942  18.453  1.00  0.00     0.183 HD
HETATM   30  N1  UNL     1      -1.861  11.480  16.010  1.00  0.00    -0.234 N 
HETATM   31  N7  UNL     1      -2.289  13.813  15.934  1.00  0.00    -0.177 N 
ATOM     32  H12 UNL     1      -1.546  10.642  16.497  1.00  0.00     0.174 HD
ATOM     33  H11 UNL     1      -2.183  11.389  15.046  1.00  0.00     0.174 HD
ATOM     34  H7  UNL     1      -2.619  13.762  14.970  1.00  0.00     0.186 HD
HETATM   35  N3  UNL     1      -2.677  16.151  16.021  1.00  0.00    -0.375 N 
HETATM   36  C5  UNL     1      -2.688  17.446  16.680  1.00  0.00     0.123 C 
ATOM     37  H3  UNL     1      -3.004  16.084  15.057  1.00  0.00     0.161 HD
HETATM   38  C6  UNL     1      -2.860  17.279  18.182  1.00  0.00     0.050 C 
ENDBRANCH   1  23
TORSDOF 10
ENDMDL
MODEL 3
REMARK VINA RESULT: -7.026673618      1.648      2.291
REMARK  10 active torsions:
REMARK  status: ('A' for Active; 'I' for Inactive)
REMARK    1  A    between atoms: C7_14  and  N4_15 
REMARK       I    between atoms: N4_15  and  C8_17 
REMARK    2  A    between atoms: C8_17  and  C9_19 
REMARK    3  A    between atoms: C9_19  and  C10_21 
REMARK    4  A    between atoms: C10_21  and  C11_22 
REMARK    5  A    between atoms: C11_22  and  C12_23 
REMARK    6  A    between atoms: C12_23  and  C13_24 
REMARK    7  A    between atoms: C13_24  and  N5_25 
REMARK    8  A    between atoms: N6_28  and  C16_29 
REMARK    9  A    between atoms: C16_29  and  C17_30 
REMARK   10  A    between atoms: C17_30  and  O3_31 
ROOT
HETATM    1  N4  UNL     1      -2.052  16.267  20.236  1.00  0.00    -0.346 N 
ATOM      2  H4  UNL     1      -2.546  15.429  20.543  1.00  0.00     0.163 HD
HETATM    3  C8  UNL     1      -1.523  17.141  21.221  1.00  0.00     0.287 C 
HETATM    4  O1  UNL     1      -0.907  18.181  20.905  1.00  0.00    -0.264 OA
ENDROOT
BRANCH   3   5
HETATM    5  C9  UNL     1      -1.709  16.807  22.621  1.00  0.00     0.216 C 
HETATM    6  O2  UNL     1      -2.026  15.622  22.974  1.00  0.00    -0.287 OA
BRANCH   5   7
HETATM    7  C10 UNL     1      -1.524  17.870  23.641  1.00  0.00     0.089 C 
BRANCH   7   8
HETATM    8  C11 UNL     1      -0.363  17.455  24.530  1.00  0.00     0.010 C 
BRANCH   8   9
HETATM    9  C12 UNL     1       0.460  18.617  24.958  1.00  0.00     0.028 C 
BRANCH   9  10
HETATM   10  C13 UNL     1       0.252  19.895  24.249  1.00  0.00     0.237 C 
BRANCH  10  11
HETATM   11  N5  UNL     1       1.355  20.467  23.548  1.00  0.00    -0.062 N 
HETATM   12  C14 UNL     1       2.474  20.487  24.534  1.00  0.00     0.265 C 
HETATM   13  C15 UNL     1       3.783  20.613  23.788  1.00  0.00     0.265 C 
HETATM   14  N6  UNL     1       3.518  21.359  22.578  1.00  0.00    -0.060 N 
HETATM   15  C18 UNL     1       2.605  22.425  23.006  1.00  0.00     0.265 C 
HETATM   16  C20 UNL     1       2.755  20.565  21.633  1.00  0.00     0.265 C 
HETATM   17  C19 UNL     1       1.194  21.869  23.213  1.00  0.00     0.265 C 
HETATM   18  C21 UNL     1       1.863  19.663  22.461  1.00  0.00     0.265 C 
BRANCH  14  19
HETATM   19  C16 UNL     1       4.644  22.003  22.011  1.00  0.00     0.263 C 
BRANCH  19  20
HETATM   20  C17 UNL     1       5.517  21.173  21.138  1.00  0.00     0.192 C 
BRANCH  20  21
HETATM   21  O3  UNL     1       6.632  20.658  21.724  1.00  0.00    -0.399 OA
ATOM     22  H3  UNL     1       6.646  20.668  22.673  1.00  0.00     0.209 HD
ENDBRANCH  20  21
ENDBRANCH  19  20
ENDBRANCH  14  19
ENDBRANCH  10  11
ENDBRANCH   9  10
ENDBRANCH   8   9
ENDBRANCH   7   8
ENDBRANCH   5   7
ENDBRANCH   3   5
BRANCH   1  23
HETATM   23  C7  UNL     1      -1.920  16.509  18.831  1.00  0.00     0.124 C 
HETATM   24  C3  UNL     1      -1.940  15.197  18.126  1.00  0.00     0.025 A 
HETATM   25  C2  UNL     1      -1.631  14.088  18.773  1.00  0.00     0.119 A 
HETATM   26  C4  UNL     1      -2.285  15.168  16.725  1.00  0.00     0.126 A 
HETATM   27  N2  UNL     1      -1.632  12.844  18.102  1.00  0.00    -0.201 N 
HETATM   28  C1  UNL     1      -1.959  12.739  16.725  1.00  0.00     0.677 A 
ATOM     29  H2  UNL     1      -1.391  12.000  18.620  1.00  0.00     0.183 HD
HETATM   30  N1  UNL     1      -1.954  11.578  16.113  1.00  0.00    -0.234 N 
HETATM   31  N7  UNL     1      -2.294  13.924  16.017  1.00  0.00    -0.177 N 
ATOM     32  H12 UNL     1      -1.714  10.727  16.620  1.00  0.00     0.174 HD
ATOM     33  H11 UNL     1      -2.189  11.502  15.123  1.00  0.00     0.174 HD
ATOM     34  H7  UNL     1      -2.535  13.889  15.027  1.00  0.00     0.186 HD
HETATM   35  N3  UNL     1      -2.608  16.274  16.089  1.00  0.00    -0.375 N 
HETATM   36  C5  UNL     1      -2.635  17.565  16.754  1.00  0.00     0.123 C 
ATOM     37  H3  UNL     1      -2.847  16.223  15.098  1.00  0.00     0.161 HD
HETATM   38  C6  UNL     1      -2.951  17.396  18.233  1.00  0.00     0.050 C 
ENDBRANCH   1  23
TORSDOF 10
ENDMDL
MODEL 4
REMARK VINA RESULT: -7.001958543      3.199      5.289
REMARK  10 active torsions:
REMARK  status: ('A' for Active; 'I' for Inactive)
REMARK    1  A    between atoms: C7_14  and  N4_15 
REMARK       I    between atoms: N4_15  and  C8_17 
REMARK    2  A    between atoms: C8_17  and  C9_19 
REMARK    3  A    between atoms: C9_19  and  C10_21 
REMARK    4  A    between atoms: C10_21  and  C11_22 
REMARK    5  A    between atoms: C11_22  and  C12_23 
REMARK    6  A    between atoms: C12_23  and  C13_24 
REMARK    7  A    between atoms: C13_24  and  N5_25 
REMARK    8  A    between atoms: N6_28  and  C16_29 
REMARK    9  A    between atoms: C16_29  and  C17_30 
REMARK   10  A    between atoms: C17_30  and  O3_31 
ROOT
HETATM    1  N4  UNL     1      -0.737  18.041  16.661  1.00  0.00    -0.346 N 
ATOM      2  H4  UNL     1      -0.432  17.552  15.820  1.00  0.00     0.163 HD
HETATM    3  C8  UNL     1      -1.328  19.324  16.524  1.00  0.00     0.287 C 
HETATM    4  O1  UNL     1      -1.721  19.970  17.519  1.00  0.00    -0.264 OA
ENDROOT
BRANCH   3   5
HETATM    5  C9  UNL     1      -1.473  19.885  15.193  1.00  0.00     0.216 C 
HETATM    6  O2  UNL     1      -2.451  19.550  14.445  1.00  0.00    -0.287 OA
BRANCH   5   7
HETATM    7  C10 UNL     1      -0.461  20.861  14.714  1.00  0.00     0.089 C 
BRANCH   7   8
HETATM    8  C11 UNL     1       0.067  20.356  13.382  1.00  0.00     0.010 C 
BRANCH   8   9
HETATM    9  C12 UNL     1       1.550  20.255  13.367  1.00  0.00     0.028 C 
BRANCH   9  10
HETATM   10  C13 UNL     1       2.178  19.341  14.342  1.00  0.00     0.237 C 
BRANCH  10  11
HETATM   11  N5  UNL     1       3.131  19.881  15.258  1.00  0.00    -0.062 N 
HETATM   12  C14 UNL     1       3.426  21.251  14.748  1.00  0.00     0.265 C 
HETATM   13  C15 UNL     1       4.027  22.071  15.867  1.00  0.00     0.265 C 
HETATM   14  N6  UNL     1       4.747  21.160  16.729  1.00  0.00    -0.060 N 
HETATM   15  C18 UNL     1       5.424  20.247  15.801  1.00  0.00     0.265 C 
HETATM   16  C20 UNL     1       3.832  20.322  17.482  1.00  0.00     0.265 C 
HETATM   17  C19 UNL     1       4.430  19.236  15.225  1.00  0.00     0.265 C 
HETATM   18  C21 UNL     1       2.626  20.106  16.591  1.00  0.00     0.265 C 
BRANCH  14  19
HETATM   19  C16 UNL     1       5.763  21.754  17.515  1.00  0.00     0.263 C 
BRANCH  19  20
HETATM   20  C17 UNL     1       6.020  23.202  17.288  1.00  0.00     0.192 C 
BRANCH  20  21
HETATM   21  O3  UNL     1       6.929  23.784  18.116  1.00  0.00    -0.399 OA
ATOM     22  H3  UNL     1       7.807  23.884  17.767  1.00  0.00     0.209 HD
ENDBRANCH  20  21
ENDBRANCH  19  20
ENDBRANCH  14  19
ENDBRANCH  10  11
ENDBRANCH   9  10
ENDBRANCH   8   9
ENDBRANCH   7   8
ENDBRANCH   5   7
ENDBRANCH   3   5
BRANCH   1  23
HETATM   23  C7  UNL     1      -0.551  17.403  17.929  1.00  0.00     0.124 C 
HETATM   24  C3  UNL     1      -0.924  15.968  17.791  1.00  0.00     0.025 A 
HETATM   25  C2  UNL     1      -1.725  15.579  16.817  1.00  0.00     0.119 A 
HETATM   26  C4  UNL     1      -0.406  15.021  18.750  1.00  0.00     0.126 A 
HETATM   27  N2  UNL     1      -2.095  14.220  16.693  1.00  0.00    -0.201 N 
HETATM   28  C1  UNL     1      -1.627  13.234  17.600  1.00  0.00     0.677 A 
ATOM     29  H2  UNL     1      -2.715  13.941  15.933  1.00  0.00     0.183 HD
HETATM   30  N1  UNL     1      -1.979  11.975  17.476  1.00  0.00    -0.234 N 
HETATM   31  N7  UNL     1      -0.763  13.639  18.652  1.00  0.00    -0.177 N 
ATOM     32  H12 UNL     1      -2.599  11.684  16.721  1.00  0.00     0.174 HD
ATOM     33  H11 UNL     1      -1.642  11.267  18.128  1.00  0.00     0.174 HD
ATOM     34  H7  UNL     1      -0.405  12.960  19.324  1.00  0.00     0.186 HD
HETATM   35  N3  UNL     1       0.406  15.411  19.709  1.00  0.00    -0.375 N 
HETATM   36  C5  UNL     1       0.820  16.796  19.852  1.00  0.00     0.123 C 
ATOM     37  H3  UNL     1       0.755  14.721  20.374  1.00  0.00     0.161 HD
HETATM   38  C6  UNL     1       0.817  17.496  18.500  1.00  0.00     0.050 C 
ENDBRANCH   1  23
TORSDOF 10
ENDMDL
MODEL 5
REMARK VINA RESULT: -6.995885205      3.403      5.302
REMARK  10 active torsions:
REMARK  status: ('A' for Active; 'I' for Inactive)
REMARK    1  A    between atoms: C7_14  and  N4_15 
REMARK       I    between atoms: N4_15  and  C8_17 
REMARK    2  A    between atoms: C8_17  and  C9_19 
REMARK    3  A    between atoms: C9_19  and  C10_21 
REMARK    4  A    between atoms: C10_21  and  C11_22 
REMARK    5  A    between atoms: C11_22  and  C12_23 
REMARK    6  A    between atoms: C12_23  and  C13_24 
REMARK    7  A    between atoms: C13_24  and  N5_25 
REMARK    8  A    between atoms: N6_28  and  C16_29 
REMARK    9  A    between atoms: C16_29  and  C17_30 
REMARK   10  A    between atoms: C17_30  and  O3_31 
ROOT
HETATM    1  N4  UNL     1      -1.432  17.797  16.888  1.00  0.00    -0.346 N 
ATOM      2  H4  UNL     1      -1.109  17.493  15.970  1.00  0.00     0.163 HD
HETATM    3  C8  UNL     1      -2.086  19.051  16.995  1.00  0.00     0.287 C 
HETATM    4  O1  UNL     1      -2.504  19.476  18.094  1.00  0.00    -0.264 OA
ENDROOT
BRANCH   3   5
HETATM    5  C9  UNL     1      -2.267  19.847  15.795  1.00  0.00     0.216 C 
HETATM    6  O2  UNL     1      -2.816  19.350  14.756  1.00  0.00    -0.287 OA
BRANCH   5   7
HETATM    7  C10 UNL     1      -1.801  21.258  15.795  1.00  0.00     0.089 C 
BRANCH   7   8
HETATM    8  C11 UNL     1      -1.424  21.615  14.367  1.00  0.00     0.010 C 
BRANCH   8   9
HETATM    9  C12 UNL     1       0.022  21.397  14.098  1.00  0.00     0.028 C 
BRANCH   9  10
HETATM   10  C13 UNL     1       0.969  21.695  15.191  1.00  0.00     0.237 C 
BRANCH  10  11
HETATM   11  N5  UNL     1       2.287  21.154  15.109  1.00  0.00    -0.062 N 
HETATM   12  C14 UNL     1       2.723  20.975  16.525  1.00  0.00     0.265 C 
HETATM   13  C15 UNL     1       3.868  19.989  16.564  1.00  0.00     0.265 C 
HETATM   14  N6  UNL     1       4.587  20.115  15.316  1.00  0.00    -0.060 N 
HETATM   15  C18 UNL     1       4.637  21.561  15.075  1.00  0.00     0.265 C 
HETATM   16  C20 UNL     1       3.816  19.574  14.213  1.00  0.00     0.265 C 
HETATM   17  C19 UNL     1       3.281  22.067  14.577  1.00  0.00     0.265 C 
HETATM   18  C21 UNL     1       2.361  19.824  14.552  1.00  0.00     0.265 C 
BRANCH  14  19
HETATM   19  C16 UNL     1       5.931  19.671  15.352  1.00  0.00     0.263 C 
BRANCH  19  20
HETATM   20  C17 UNL     1       6.282  18.537  14.455  1.00  0.00     0.192 C 
BRANCH  20  21
HETATM   21  O3  UNL     1       7.391  18.705  13.685  1.00  0.00    -0.399 OA
ATOM     22  H3  UNL     1       8.200  18.354  14.037  1.00  0.00     0.209 HD
ENDBRANCH  20  21
ENDBRANCH  19  20
ENDBRANCH  14  19
ENDBRANCH  10  11
ENDBRANCH   9  10
ENDBRANCH   8   9
ENDBRANCH   7   8
ENDBRANCH   5   7
ENDBRANCH   3   5
BRANCH   1  23
HETATM   23  C7  UNL     1      -1.206  16.940  18.012  1.00  0.00     0.124 C 
HETATM   24  C3  UNL     1      -1.402  15.530  17.573  1.00  0.00     0.025 A 
HETATM   25  C2  UNL     1      -2.125  15.261  16.501  1.00  0.00     0.119 A 
HETATM   26  C4  UNL     1      -0.803  14.472  18.350  1.00  0.00     0.126 A 
HETATM   27  N2  UNL     1      -2.327  13.922  16.092  1.00  0.00    -0.201 N 
HETATM   28  C1  UNL     1      -1.770  12.831  16.808  1.00  0.00     0.677 A 
ATOM     29  H2  UNL     1      -2.888  13.736  15.261  1.00  0.00     0.183 HD
HETATM   30  N1  UNL     1      -1.967  11.593  16.419  1.00  0.00    -0.234 N 
HETATM   31  N7  UNL     1      -0.990  13.107  17.962  1.00  0.00    -0.177 N 
ATOM     32  H12 UNL     1      -2.527  11.394  15.591  1.00  0.00     0.174 HD
ATOM     33  H11 UNL     1      -1.566  10.808  16.934  1.00  0.00     0.174 HD
ATOM     34  H7  UNL     1      -0.572  12.350  18.503  1.00  0.00     0.186 HD
HETATM   35  N3  UNL     1      -0.069  14.747  19.408  1.00  0.00    -0.375 N 
HETATM   36  C5  UNL     1       0.173  16.111  19.843  1.00  0.00     0.123 C 
ATOM     37  H3  UNL     1       0.341  13.978  19.939  1.00  0.00     0.161 HD
HETATM   38  C6  UNL     1       0.125  17.065  18.659  1.00  0.00     0.050 C 
ENDBRANCH   1  23
TORSDOF 10
ENDMDL
