MODEL 1
REMARK VINA RESULT: -4.059662314      0.000      0.000
REMARK  1 active torsions:
REMARK  status: ('A' for Active; 'I' for Inactive)
REMARK    1  A    between atoms: C2_2  and  N1_3 
ROOT
HETATM    1  N1  UNL     1      52.831  68.975 -29.950  1.00  0.00     0.028 N 
HETATM    2  C3  UNL     1      53.780  68.841 -28.879  1.00  0.00     0.299 C 
HETATM    3  C4  UNL     1      51.872  69.986 -29.570  1.00  0.00     0.285 C 
HETATM    4  C5  UNL     1      51.343  70.422 -30.937  1.00  0.00     0.196 C 
HETATM    5  N2  UNL     1      52.562  70.410 -31.713  1.00  0.00    -0.217 N 
HETATM    6  N3  UNL     1      52.771  71.039 -32.772  1.00  0.00    -0.330 N 
ATOM      7  H31 UNL     1      53.632  71.030 -33.320  1.00  0.00     0.178 HD
ATOM      8  H32 UNL     1      52.117  71.656 -33.254  1.00  0.00     0.178 HD
HETATM    9  N4  UNL     1      53.455  69.567 -31.055  1.00  0.00     0.090 NA
ENDROOT
BRANCH   1  10
HETATM   10  C2  UNL     1      52.226  67.757 -30.362  1.00  0.00     0.257 C 
HETATM   11  C1  UNL     1      52.935  66.523 -29.869  1.00  0.00     0.036 C 
ENDBRANCH   1  10
TORSDOF 1
ENDMDL
MODEL 2
REMARK VINA RESULT: -4.025740272      1.780      3.464
REMARK  1 active torsions:
REMARK  status: ('A' for Active; 'I' for Inactive)
REMARK    1  A    between atoms: C2_2  and  N1_3 
ROOT
HETATM    1  N1  UNL     1      53.007  69.191 -29.603  1.00  0.00     0.028 N 
HETATM    2  C3  UNL     1      54.220  69.906 -29.317  1.00  0.00     0.299 C 
HETATM    3  C4  UNL     1      53.076  68.726 -30.968  1.00  0.00     0.285 C 
HETATM    4  C5  UNL     1      52.087  67.560 -30.935  1.00  0.00     0.196 C 
HETATM    5  N2  UNL     1      52.391  66.987 -29.643  1.00  0.00    -0.217 N 
HETATM    6  N3  UNL     1      52.155  65.815 -29.280  1.00  0.00    -0.330 N 
ATOM      7  H31 UNL     1      52.369  65.411 -28.368  1.00  0.00     0.178 HD
ATOM      8  H32 UNL     1      51.713  65.082 -29.835  1.00  0.00     0.178 HD
HETATM    9  N4  UNL     1      52.994  67.988 -28.886  1.00  0.00     0.090 NA
ENDROOT
BRANCH   1  10
HETATM   10  C2  UNL     1      51.814  69.909 -29.316  1.00  0.00     0.257 C 
HETATM   11  C1  UNL     1      51.650  71.170 -30.122  1.00  0.00     0.036 C 
ENDBRANCH   1  10
TORSDOF 1
ENDMDL
MODEL 3
REMARK VINA RESULT: -3.977139748      1.613      3.483
REMARK  1 active torsions:
REMARK  status: ('A' for Active; 'I' for Inactive)
REMARK    1  A    between atoms: C2_2  and  N1_3 
ROOT
HETATM    1  N1  UNL     1      52.163  69.646 -30.655  1.00  0.00     0.028 N 
HETATM    2  C3  UNL     1      50.917  70.363 -30.654  1.00  0.00     0.299 C 
HETATM    3  C4  UNL     1      52.640  69.582 -29.294  1.00  0.00     0.285 C 
HETATM    4  C5  UNL     1      53.566  68.366 -29.360  1.00  0.00     0.196 C 
HETATM    5  N2  UNL     1      52.797  67.491 -30.216  1.00  0.00    -0.217 N 
HETATM    6  N3  UNL     1      52.901  66.248 -30.287  1.00  0.00    -0.330 N 
ATOM      7  H31 UNL     1      52.358  65.630 -30.891  1.00  0.00     0.178 HD
ATOM      8  H32 UNL     1      53.541  65.658 -29.754  1.00  0.00     0.178 HD
HETATM    9  N4  UNL     1      51.924  68.296 -30.943  1.00  0.00     0.090 NA
ENDROOT
BRANCH   1  10
HETATM   10  C2  UNL     1      53.133  70.145 -31.566  1.00  0.00     0.257 C 
HETATM   11  C1  UNL     1      52.727  71.420 -32.256  1.00  0.00     0.036 C 
ENDBRANCH   1  10
TORSDOF 1
ENDMDL
MODEL 4
REMARK VINA RESULT: -3.912001353      1.585      3.577
REMARK  1 active torsions:
REMARK  status: ('A' for Active; 'I' for Inactive)
REMARK    1  A    between atoms: C2_2  and  N1_3 
ROOT
HETATM    1  N1  UNL     1      52.693  69.068 -30.523  1.00  0.00     0.028 N 
HETATM    2  C3  UNL     1      53.215  69.865 -31.599  1.00  0.00     0.299 C 
HETATM    3  C4  UNL     1      52.499  67.725 -31.018  1.00  0.00     0.285 C 
HETATM    4  C5  UNL     1      52.530  66.922 -29.717  1.00  0.00     0.196 C 
HETATM    5  N2  UNL     1      53.584  67.606 -29.003  1.00  0.00    -0.217 N 
HETATM    6  N3  UNL     1      54.270  67.138 -28.069  1.00  0.00    -0.330 N 
ATOM      7  H31 UNL     1      55.014  67.621 -27.566  1.00  0.00     0.178 HD
ATOM      8  H32 UNL     1      54.193  66.205 -27.665  1.00  0.00     0.178 HD
HETATM    9  N4  UNL     1      53.689  68.880 -29.556  1.00  0.00     0.090 NA
ENDROOT
BRANCH   1  10
HETATM   10  C2  UNL     1      51.537  69.605 -29.894  1.00  0.00     0.257 C 
HETATM   11  C1  UNL     1      51.804  70.841 -29.077  1.00  0.00     0.036 C 
ENDBRANCH   1  10
TORSDOF 1
ENDMDL
MODEL 5
REMARK VINA RESULT: -3.876267383      1.609      3.316
REMARK  1 active torsions:
REMARK  status: ('A' for Active; 'I' for Inactive)
REMARK    1  A    between atoms: C2_2  and  N1_3 
ROOT
HETATM    1  N1  UNL     1      51.891  70.583 -30.486  1.00  0.00     0.028 N 
HETATM    2  C3  UNL     1      50.632  71.198 -30.167  1.00  0.00     0.299 C 
HETATM    3  C4  UNL     1      52.378  69.924 -29.297  1.00  0.00     0.285 C 
HETATM    4  C5  UNL     1      53.326  68.886 -29.900  1.00  0.00     0.196 C 
HETATM    5  N2  UNL     1      52.571  68.474 -31.061  1.00  0.00    -0.217 N 
HETATM    6  N3  UNL     1      52.698  67.398 -31.683  1.00  0.00    -0.330 N 
ATOM      7  H31 UNL     1      52.164  67.108 -32.502  1.00  0.00     0.178 HD
ATOM      8  H32 UNL     1      53.353  66.645 -31.470  1.00  0.00     0.178 HD
HETATM    9  N4  UNL     1      51.677  69.503 -31.351  1.00  0.00     0.090 NA
ENDROOT
BRANCH   1  10
HETATM   10  C2  UNL     1      52.847  71.458 -31.071  1.00  0.00     0.257 C 
HETATM   11  C1  UNL     1      52.643  71.689 -32.545  1.00  0.00     0.036 C 
ENDBRANCH   1  10
TORSDOF 1
ENDMDL
