MODEL 1
REMARK VINA RESULT: -4.490078136      0.000      0.000
REMARK  3 active torsions:
REMARK  status: ('A' for Active; 'I' for Inactive)
REMARK    1  A    between atoms: C3_3  and  C4_4 
REMARK    2  A    between atoms: C5_5  and  C6_6 
REMARK    3  A    between atoms: C6_6  and  C7_7 
ROOT
HETATM    1  C1  UNL     1      52.721  72.751 -32.183  1.00  0.00     0.113 C 
HETATM    2  C2  UNL     1      52.753  71.346 -31.713  1.00  0.00    -0.097 C 
HETATM    3  C3  UNL     1      52.780  70.198 -31.346  1.00  0.00    -0.015 C 
ENDROOT
BRANCH   3   4
HETATM    4  C4  UNL     1      52.817  68.842 -30.933  1.00  0.00    -0.015 C 
HETATM    5  C5  UNL     1      52.867  67.683 -30.590  1.00  0.00    -0.090 C 
BRANCH   5   6
HETATM    6  C6  UNL     1      52.942  66.265 -30.187  1.00  0.00     0.129 C 
BRANCH   6   7
HETATM    7  C7  UNL     1      52.711  66.222 -28.702  1.00  0.00     0.222 A 
HETATM    8  C8  UNL     1      53.720  66.714 -27.821  1.00  0.00     0.266 A 
HETATM    9  N1  UNL     1      53.445  65.268 -27.898  1.00  0.00    -0.066 N 
ATOM     10  H12 UNL     1      53.205  64.531 -27.234  1.00  0.00     0.277 HD
ATOM     11  H11 UNL     1      53.993  64.427 -28.078  1.00  0.00     0.277 HD
ENDBRANCH   6   7
ENDBRANCH   5   6
ENDBRANCH   3   4
TORSDOF 3
ENDMDL
MODEL 2
REMARK VINA RESULT: -4.485137028      1.259      1.259
REMARK  3 active torsions:
REMARK  status: ('A' for Active; 'I' for Inactive)
REMARK    1  A    between atoms: C3_3  and  C4_4 
REMARK    2  A    between atoms: C5_5  and  C6_6 
REMARK    3  A    between atoms: C6_6  and  C7_7 
ROOT
HETATM    1  C1  UNL     1      50.187  72.428 -31.634  1.00  0.00     0.113 C 
HETATM    2  C2  UNL     1      50.825  71.143 -31.262  1.00  0.00    -0.097 C 
HETATM    3  C3  UNL     1      51.337  70.090 -30.973  1.00  0.00    -0.015 C 
ENDROOT
BRANCH   3   4
HETATM    4  C4  UNL     1      51.937  68.846 -30.653  1.00  0.00    -0.015 C 
HETATM    5  C5  UNL     1      52.443  67.777 -30.397  1.00  0.00    -0.090 C 
BRANCH   5   6
HETATM    6  C6  UNL     1      53.048  66.465 -30.101  1.00  0.00     0.129 C 
BRANCH   6   7
HETATM    7  C7  UNL     1      52.721  66.148 -28.668  1.00  0.00     0.222 A 
HETATM    8  C8  UNL     1      53.621  66.552 -27.637  1.00  0.00     0.266 A 
HETATM    9  N1  UNL     1      53.478  65.125 -27.978  1.00  0.00    -0.066 N 
ATOM     10  H12 UNL     1      53.258  64.269 -27.469  1.00  0.00     0.277 HD
ATOM     11  H11 UNL     1      54.108  64.371 -28.250  1.00  0.00     0.277 HD
ENDBRANCH   6   7
ENDBRANCH   5   6
ENDBRANCH   3   4
TORSDOF 3
ENDMDL
MODEL 3
REMARK VINA RESULT: -4.091183492      1.156      1.577
REMARK  3 active torsions:
REMARK  status: ('A' for Active; 'I' for Inactive)
REMARK    1  A    between atoms: C3_3  and  C4_4 
REMARK    2  A    between atoms: C5_5  and  C6_6 
REMARK    3  A    between atoms: C6_6  and  C7_7 
ROOT
HETATM    1  C1  UNL     1      52.196  72.400 -33.743  1.00  0.00     0.113 C 
HETATM    2  C2  UNL     1      52.495  71.453 -32.643  1.00  0.00    -0.097 C 
HETATM    3  C3  UNL     1      52.728  70.672 -31.754  1.00  0.00    -0.015 C 
ENDROOT
BRANCH   3   4
HETATM    4  C4  UNL     1      52.994  69.738 -30.721  1.00  0.00    -0.015 C 
HETATM    5  C5  UNL     1      53.202  68.943 -29.833  1.00  0.00    -0.090 C 
BRANCH   5   6
HETATM    6  C6  UNL     1      53.438  67.980 -28.740  1.00  0.00     0.129 C 
BRANCH   6   7
HETATM    7  C7  UNL     1      53.294  66.606 -29.333  1.00  0.00     0.222 A 
HETATM    8  C8  UNL     1      52.042  66.210 -29.892  1.00  0.00     0.266 A 
HETATM    9  N1  UNL     1      52.514  65.609 -28.631  1.00  0.00    -0.066 N 
ATOM     10  H12 UNL     1      52.674  64.663 -28.285  1.00  0.00     0.277 HD
ATOM     11  H11 UNL     1      52.142  65.501 -27.687  1.00  0.00     0.277 HD
ENDBRANCH   6   7
ENDBRANCH   5   6
ENDBRANCH   3   4
TORSDOF 3
ENDMDL
MODEL 4
REMARK VINA RESULT: -4.006045010      1.424      1.800
REMARK  3 active torsions:
REMARK  status: ('A' for Active; 'I' for Inactive)
REMARK    1  A    between atoms: C3_3  and  C4_4 
REMARK    2  A    between atoms: C5_5  and  C6_6 
REMARK    3  A    between atoms: C6_6  and  C7_7 
ROOT
HETATM    1  C1  UNL     1      52.524  72.062 -34.140  1.00  0.00     0.113 C 
HETATM    2  C2  UNL     1      52.703  71.342 -32.857  1.00  0.00    -0.097 C 
HETATM    3  C3  UNL     1      52.864  70.754 -31.817  1.00  0.00    -0.015 C 
ENDROOT
BRANCH   3   4
HETATM    4  C4  UNL     1      53.074  70.066 -30.596  1.00  0.00    -0.015 C 
HETATM    5  C5  UNL     1      53.240  69.491 -29.544  1.00  0.00    -0.090 C 
BRANCH   5   6
HETATM    6  C6  UNL     1      53.433  68.806 -28.252  1.00  0.00     0.129 C 
BRANCH   6   7
HETATM    7  C7  UNL     1      53.908  67.414 -28.564  1.00  0.00     0.222 A 
HETATM    8  C8  UNL     1      53.126  66.295 -28.147  1.00  0.00     0.266 A 
HETATM    9  N1  UNL     1      54.416  66.581 -27.493  1.00  0.00    -0.066 N 
ATOM     10  H12 UNL     1      55.276  66.064 -27.313  1.00  0.00     0.277 HD
ATOM     11  H11 UNL     1      54.734  66.732 -26.536  1.00  0.00     0.277 HD
ENDBRANCH   6   7
ENDBRANCH   5   6
ENDBRANCH   3   4
TORSDOF 3
ENDMDL
MODEL 5
REMARK VINA RESULT: -3.972814998      2.509      2.526
REMARK  3 active torsions:
REMARK  status: ('A' for Active; 'I' for Inactive)
REMARK    1  A    between atoms: C3_3  and  C4_4 
REMARK    2  A    between atoms: C5_5  and  C6_6 
REMARK    3  A    between atoms: C6_6  and  C7_7 
ROOT
HETATM    1  C1  UNL     1      54.698  73.226 -27.802  1.00  0.00     0.113 C 
HETATM    2  C2  UNL     1      54.403  71.835 -28.220  1.00  0.00    -0.097 C 
HETATM    3  C3  UNL     1      54.147  70.705 -28.556  1.00  0.00    -0.015 C 
ENDROOT
BRANCH   3   4
HETATM    4  C4  UNL     1      53.827  69.383 -28.952  1.00  0.00    -0.015 C 
HETATM    5  C5  UNL     1      53.559  68.257 -29.308  1.00  0.00    -0.090 C 
BRANCH   5   6
HETATM    6  C6  UNL     1      53.233  66.892 -29.763  1.00  0.00     0.129 C 
BRANCH   6   7
HETATM    7  C7  UNL     1      52.718  66.145 -28.564  1.00  0.00     0.222 A 
HETATM    8  C8  UNL     1      53.415  66.246 -27.322  1.00  0.00     0.266 A 
HETATM    9  N1  UNL     1      53.442  64.986 -28.087  1.00  0.00    -0.066 N 
ATOM     10  H12 UNL     1      53.218  64.009 -27.897  1.00  0.00     0.277 HD
ATOM     11  H11 UNL     1      54.165  64.370 -28.458  1.00  0.00     0.277 HD
ENDBRANCH   6   7
ENDBRANCH   5   6
ENDBRANCH   3   4
TORSDOF 3
ENDMDL
