MODEL 1
REMARK VINA RESULT: -4.563858617      0.000      0.000
REMARK  3 active torsions:
REMARK  status: ('A' for Active; 'I' for Inactive)
REMARK    1  A    between atoms: N1_2  and  C4_5 
REMARK    2  A    between atoms: C4_5  and  C5_6 
REMARK    3  A    between atoms: C6_7  and  N2_8 
ROOT
HETATM    1  C5  UNL     1      52.625  67.409 -30.207  1.00  0.00    -0.054 C 
HETATM    2  C6  UNL     1      52.541  66.451 -29.477  1.00  0.00     0.027 C 
ENDROOT
BRANCH   1   3
HETATM    3  C4  UNL     1      52.704  68.569 -31.091  1.00  0.00     0.331 C 
BRANCH   3   4
HETATM    4  N1  UNL     1      52.884  69.802 -30.388  1.00  0.00    -0.069 N 
HETATM    5  C1  UNL     1      52.994  70.864 -31.397  1.00  0.00     0.272 C 
HETATM    6  C2  UNL     1      51.694  70.086 -29.626  1.00  0.00     0.272 C 
HETATM    7  C3  UNL     1      54.044  69.781 -29.525  1.00  0.00     0.272 C 
ENDBRANCH   3   4
ENDBRANCH   1   3
BRANCH   2   8
HETATM    8  N2  UNL     1      52.421  65.337 -28.640  1.00  0.00    -0.265 N 
HETATM    9  N3  UNL     1      53.367  65.104 -27.833  1.00  0.00    -0.338 N 
ATOM     10  H32 UNL     1      54.182  65.716 -27.806  1.00  0.00     0.177 HD
ATOM     11  H31 UNL     1      53.280  64.292 -27.222  1.00  0.00     0.177 HD
ATOM     12  H2  UNL     1      51.599  64.734 -28.679  1.00  0.00     0.197 HD
ENDBRANCH   2   8
TORSDOF 3
ENDMDL
MODEL 2
REMARK VINA RESULT: -4.555293403      1.010      1.950
REMARK  3 active torsions:
REMARK  status: ('A' for Active; 'I' for Inactive)
REMARK    1  A    between atoms: N1_2  and  C4_5 
REMARK    2  A    between atoms: C4_5  and  C5_6 
REMARK    3  A    between atoms: C6_7  and  N2_8 
ROOT
HETATM    1  C5  UNL     1      53.810  68.243 -28.843  1.00  0.00    -0.054 C 
HETATM    2  C6  UNL     1      53.785  67.240 -28.171  1.00  0.00     0.027 C 
ENDROOT
BRANCH   1   3
HETATM    3  C4  UNL     1      53.864  69.451 -29.662  1.00  0.00     0.331 C 
BRANCH   3   4
HETATM    4  N1  UNL     1      52.629  69.739 -30.323  1.00  0.00    -0.069 N 
HETATM    5  C1  UNL     1      51.771  70.437 -29.355  1.00  0.00     0.272 C 
HETATM    6  C2  UNL     1      52.876  70.671 -31.395  1.00  0.00     0.272 C 
HETATM    7  C3  UNL     1      51.982  68.548 -30.828  1.00  0.00     0.272 C 
ENDBRANCH   3   4
ENDBRANCH   1   3
BRANCH   2   8
HETATM    8  N2  UNL     1      53.780  66.081 -27.389  1.00  0.00    -0.265 N 
HETATM    9  N3  UNL     1      53.285  65.032 -27.896  1.00  0.00    -0.338 N 
ATOM     10  H32 UNL     1      52.909  65.049 -28.843  1.00  0.00     0.177 HD
ATOM     11  H31 UNL     1      53.281  64.187 -27.326  1.00  0.00     0.177 HD
ATOM     12  H2  UNL     1      54.161  66.081 -26.443  1.00  0.00     0.197 HD
ENDBRANCH   2   8
TORSDOF 3
ENDMDL
MODEL 3
REMARK VINA RESULT: -4.527714532      1.013      1.680
REMARK  3 active torsions:
REMARK  status: ('A' for Active; 'I' for Inactive)
REMARK    1  A    between atoms: N1_2  and  C4_5 
REMARK    2  A    between atoms: C4_5  and  C5_6 
REMARK    3  A    between atoms: C6_7  and  N2_8 
ROOT
HETATM    1  C5  UNL     1      53.828  68.265 -28.886  1.00  0.00    -0.054 C 
HETATM    2  C6  UNL     1      53.808  67.267 -28.207  1.00  0.00     0.027 C 
ENDROOT
BRANCH   1   3
HETATM    3  C4  UNL     1      53.877  69.474 -29.705  1.00  0.00     0.331 C 
BRANCH   3   4
HETATM    4  N1  UNL     1      52.608  69.832 -30.258  1.00  0.00    -0.069 N 
HETATM    5  C1  UNL     1      52.868  70.707 -31.409  1.00  0.00     0.272 C 
HETATM    6  C2  UNL     1      51.973  68.648 -30.781  1.00  0.00     0.272 C 
HETATM    7  C3  UNL     1      51.749  70.482 -29.293  1.00  0.00     0.272 C 
ENDBRANCH   3   4
ENDBRANCH   1   3
BRANCH   2   8
HETATM    8  N2  UNL     1      53.803  66.119 -27.409  1.00  0.00    -0.265 N 
HETATM    9  N3  UNL     1      53.311  65.062 -27.902  1.00  0.00    -0.338 N 
ATOM     10  H32 UNL     1      52.936  65.064 -28.849  1.00  0.00     0.177 HD
ATOM     11  H31 UNL     1      53.308  64.224 -27.320  1.00  0.00     0.177 HD
ATOM     12  H2  UNL     1      54.183  66.133 -26.462  1.00  0.00     0.197 HD
ENDBRANCH   2   8
TORSDOF 3
ENDMDL
MODEL 4
REMARK VINA RESULT: -4.488281203      0.061      1.368
REMARK  3 active torsions:
REMARK  status: ('A' for Active; 'I' for Inactive)
REMARK    1  A    between atoms: N1_2  and  C4_5 
REMARK    2  A    between atoms: C4_5  and  C5_6 
REMARK    3  A    between atoms: C6_7  and  N2_8 
ROOT
HETATM    1  C5  UNL     1      52.651  67.442 -30.209  1.00  0.00    -0.054 C 
HETATM    2  C6  UNL     1      52.556  66.481 -29.484  1.00  0.00     0.027 C 
ENDROOT
BRANCH   1   3
HETATM    3  C4  UNL     1      52.744  68.610 -31.081  1.00  0.00     0.331 C 
BRANCH   3   4
HETATM    4  N1  UNL     1      52.835  69.843 -30.363  1.00  0.00    -0.069 N 
HETATM    5  C1  UNL     1      54.047  69.776 -29.536  1.00  0.00     0.272 C 
HETATM    6  C2  UNL     1      53.041  70.918 -31.301  1.00  0.00     0.272 C 
HETATM    7  C3  UNL     1      51.665  70.097 -29.552  1.00  0.00     0.272 C 
ENDBRANCH   3   4
ENDBRANCH   1   3
BRANCH   2   8
HETATM    8  N2  UNL     1      52.421  65.368 -28.648  1.00  0.00    -0.265 N 
HETATM    9  N3  UNL     1      53.369  65.116 -27.847  1.00  0.00    -0.338 N 
ATOM     10  H32 UNL     1      54.194  65.714 -27.825  1.00  0.00     0.177 HD
ATOM     11  H31 UNL     1      53.271  64.304 -27.238  1.00  0.00     0.177 HD
ATOM     12  H2  UNL     1      51.589  64.780 -28.683  1.00  0.00     0.197 HD
ENDBRANCH   2   8
TORSDOF 3
ENDMDL
MODEL 5
REMARK VINA RESULT: -4.475126392      1.000      1.789
REMARK  3 active torsions:
REMARK  status: ('A' for Active; 'I' for Inactive)
REMARK    1  A    between atoms: N1_2  and  C4_5 
REMARK    2  A    between atoms: C4_5  and  C5_6 
REMARK    3  A    between atoms: C6_7  and  N2_8 
ROOT
HETATM    1  C5  UNL     1      53.828  68.260 -28.874  1.00  0.00    -0.054 C 
HETATM    2  C6  UNL     1      53.780  67.266 -28.191  1.00  0.00     0.027 C 
ENDROOT
BRANCH   1   3
HETATM    3  C4  UNL     1      53.909  69.460 -29.703  1.00  0.00     0.331 C 
BRANCH   3   4
HETATM    4  N1  UNL     1      52.667  69.801 -30.325  1.00  0.00    -0.069 N 
HETATM    5  C1  UNL     1      52.040  68.544 -30.757  1.00  0.00     0.272 C 
HETATM    6  C2  UNL     1      51.789  70.376 -29.337  1.00  0.00     0.272 C 
HETATM    7  C3  UNL     1      52.837  70.708 -31.439  1.00  0.00     0.272 C 
ENDBRANCH   3   4
ENDBRANCH   1   3
BRANCH   2   8
HETATM    8  N2  UNL     1      53.748  66.117 -27.395  1.00  0.00    -0.265 N 
HETATM    9  N3  UNL     1      53.295  65.055 -27.914  1.00  0.00    -0.338 N 
ATOM     10  H32 UNL     1      52.969  65.054 -28.879  1.00  0.00     0.177 HD
ATOM     11  H31 UNL     1      53.271  64.216 -27.333  1.00  0.00     0.177 HD
ATOM     12  H2  UNL     1      54.078  66.134 -26.430  1.00  0.00     0.197 HD
ENDBRANCH   2   8
TORSDOF 3
ENDMDL
