MODEL 1
REMARK VINA RESULT: -6.590922853      0.000      0.000
REMARK  11 active torsions:
REMARK  status: ('A' for Active; 'I' for Inactive)
REMARK    1  A    between atoms: N3_4  and  C2_6 
REMARK    2  A    between atoms: C2_6  and  C3_7 
REMARK    3  A    between atoms: C3_7  and  C4_8 
REMARK    4  A    between atoms: C4_8  and  C5_9 
REMARK    5  A    between atoms: C5_9  and  N4_10 
REMARK       I    between atoms: N4_10  and  C6_12 
REMARK    6  A    between atoms: C6_12  and  C7_14 
REMARK    7  A    between atoms: N6_20  and  C10_21 
REMARK    8  A    between atoms: C10_21  and  O2_22 
REMARK    9  A    between atoms: C10_21  and  C11_24 
REMARK   10  A    between atoms: C11_24  and  N7_25 
REMARK   11  A    between atoms: C14_28  and  N8_29 
ROOT
HETATM    1  C7  UNL     1       1.552  17.530  19.407  1.00  0.00     0.381 C 
HETATM    2  N5  UNL     1       2.094  18.431  20.440  1.00  0.00    -0.044 N 
ATOM      3  H51 UNL     1       3.094  18.601  20.339  1.00  0.00     0.280 HD
ATOM      4  H52 UNL     1       2.127  18.005  21.366  1.00  0.00     0.280 HD
HETATM    5  C8  UNL     1       1.312  19.630  20.401  1.00  0.00     0.255 C 
HETATM    6  C9  UNL     1       0.158  19.314  19.487  1.00  0.00     0.155 C 
HETATM    7  N6  UNL     1       0.888  18.431  18.498  1.00  0.00    -0.324 N 
ENDROOT
BRANCH   7   8
HETATM    8  C10 UNL     1       0.881  18.565  17.142  1.00  0.00     0.156 C 
BRANCH   8   9
HETATM    9  O2  UNL     1       0.511  17.459  16.502  1.00  0.00    -0.345 OA
ATOM     10  H2  UNL     1      -0.229  17.589  15.919  1.00  0.00     0.219 HD
ENDBRANCH   8   9
BRANCH   8  11
HETATM   11  C11 UNL     1       1.182  19.635  16.217  1.00  0.00     0.149 C 
BRANCH  11  12
HETATM   12  N7  UNL     1       2.490  20.118  16.022  1.00  0.00    -0.322 N 
HETATM   13  C12 UNL     1       3.661  20.076  16.913  1.00  0.00     0.134 C 
HETATM   14  C13 UNL     1       4.865  20.153  16.039  1.00  0.00     0.066 C 
HETATM   15  C14 UNL     1       4.420  20.604  14.672  1.00  0.00     0.316 C 
HETATM   16  C20 UNL     1       2.962  20.758  14.809  1.00  0.00     0.257 C 
HETATM   17  O3  UNL     1       2.161  21.348  14.026  1.00  0.00    -0.271 OA
BRANCH  15  18
HETATM   18  N8  UNL     1       4.781  19.644  13.661  1.00  0.00     0.102 N 
HETATM   19  C15 UNL     1       5.795  18.753  14.141  1.00  0.00     0.273 C 
HETATM   20  C16 UNL     1       7.163  19.096  13.578  1.00  0.00     0.030 C 
HETATM   21  C17 UNL     1       7.137  18.914  12.074  1.00  0.00     0.003 C 
HETATM   22  C18 UNL     1       5.762  19.195  11.504  1.00  0.00     0.030 C 
HETATM   23  C19 UNL     1       5.144  20.260  12.420  1.00  0.00     0.273 C 
ENDBRANCH  15  18
ENDBRANCH  11  12
ENDBRANCH   8  11
ENDBRANCH   7   8
BRANCH   1  24
HETATM   24  C6  UNL     1       0.486  16.708  20.069  1.00  0.00     0.268 C 
HETATM   25  N4  UNL     1      -0.557  16.167  19.301  1.00  0.00    -0.358 N 
ATOM     26  H4  UNL     1      -0.555  16.350  18.298  1.00  0.00     0.162 HD
HETATM   27  O1  UNL     1       0.542  16.518  21.293  1.00  0.00    -0.269 OA
BRANCH  25  28
HETATM   28  C5  UNL     1      -1.629  15.371  19.837  1.00  0.00     0.122 C 
BRANCH  28  29
HETATM   29  C4  UNL     1      -1.680  14.044  19.128  1.00  0.00     0.021 C 
BRANCH  29  30
HETATM   30  C3  UNL     1      -1.308  14.196  17.658  1.00  0.00     0.021 C 
BRANCH  30  31
HETATM   31  C2  UNL     1      -2.558  14.614  16.879  1.00  0.00     0.122 C 
BRANCH  31  32
HETATM   32  N3  UNL     1      -2.240  15.833  16.173  1.00  0.00    -0.367 N 
HETATM   33  C1  UNL     1      -2.888  16.906  16.423  1.00  0.00     0.196 C 
HETATM   34  N1  UNL     1      -2.573  18.122  15.722  1.00  0.00    -0.067 NA
HETATM   35  N2  UNL     1      -3.916  16.911  17.390  1.00  0.00    -0.067 NA
ATOM     36  H3  UNL     1      -1.497  15.838  15.475  1.00  0.00     0.161 HD
ENDBRANCH  31  32
ENDBRANCH  30  31
ENDBRANCH  29  30
ENDBRANCH  28  29
ENDBRANCH  25  28
ENDBRANCH   1  24
TORSDOF 11
ENDMDL
MODEL 2
REMARK VINA RESULT: -6.567225461      1.477      2.014
REMARK  11 active torsions:
REMARK  status: ('A' for Active; 'I' for Inactive)
REMARK    1  A    between atoms: N3_4  and  C2_6 
REMARK    2  A    between atoms: C2_6  and  C3_7 
REMARK    3  A    between atoms: C3_7  and  C4_8 
REMARK    4  A    between atoms: C4_8  and  C5_9 
REMARK    5  A    between atoms: C5_9  and  N4_10 
REMARK       I    between atoms: N4_10  and  C6_12 
REMARK    6  A    between atoms: C6_12  and  C7_14 
REMARK    7  A    between atoms: N6_20  and  C10_21 
REMARK    8  A    between atoms: C10_21  and  O2_22 
REMARK    9  A    between atoms: C10_21  and  C11_24 
REMARK   10  A    between atoms: C11_24  and  N7_25 
REMARK   11  A    between atoms: C14_28  and  N8_29 
ROOT
HETATM    1  C7  UNL     1       1.978  17.458  19.151  1.00  0.00     0.381 C 
HETATM    2  N5  UNL     1       2.759  18.091  20.229  1.00  0.00    -0.044 N 
ATOM      3  H51 UNL     1       3.766  18.049  20.072  1.00  0.00     0.280 HD
ATOM      4  H52 UNL     1       2.741  17.563  21.101  1.00  0.00     0.280 HD
HETATM    5  C8  UNL     1       2.267  19.428  20.371  1.00  0.00     0.255 C 
HETATM    6  C9  UNL     1       1.029  19.481  19.517  1.00  0.00     0.155 C 
HETATM    7  N6  UNL     1       1.491  18.582  18.391  1.00  0.00    -0.324 N 
ENDROOT
BRANCH   7   8
HETATM    8  C10 UNL     1       1.448  18.872  17.060  1.00  0.00     0.156 C 
BRANCH   8   9
HETATM    9  O2  UNL     1       1.023  17.859  16.310  1.00  0.00    -0.345 OA
ATOM     10  H2  UNL     1       1.218  17.964  15.386  1.00  0.00     0.219 HD
ENDBRANCH   8   9
BRANCH   8  11
HETATM   11  C11 UNL     1       1.756  20.033  16.255  1.00  0.00     0.149 C 
BRANCH  11  12
HETATM   12  N7  UNL     1       3.076  20.403  15.938  1.00  0.00    -0.322 N 
HETATM   13  C12 UNL     1       4.312  20.287  16.731  1.00  0.00     0.134 C 
HETATM   14  C13 UNL     1       5.440  20.244  15.759  1.00  0.00     0.066 C 
HETATM   15  C14 UNL     1       4.918  20.696  14.419  1.00  0.00     0.316 C 
HETATM   16  C20 UNL     1       3.494  20.971  14.671  1.00  0.00     0.257 C 
HETATM   17  O3  UNL     1       2.679  21.606  13.938  1.00  0.00    -0.271 OA
BRANCH  15  18
HETATM   18  N8  UNL     1       5.116  19.685  13.413  1.00  0.00     0.102 N 
HETATM   19  C15 UNL     1       6.110  18.740  13.825  1.00  0.00     0.273 C 
HETATM   20  C16 UNL     1       7.437  18.971  13.124  1.00  0.00     0.030 C 
HETATM   21  C17 UNL     1       7.253  18.749  11.636  1.00  0.00     0.003 C 
HETATM   22  C18 UNL     1       5.851  19.108  11.190  1.00  0.00     0.030 C 
HETATM   23  C19 UNL     1       5.396  20.239  12.122  1.00  0.00     0.273 C 
ENDBRANCH  15  18
ENDBRANCH  11  12
ENDBRANCH   8  11
ENDBRANCH   7   8
BRANCH   1  24
HETATM   24  C6  UNL     1       0.788  16.817  19.801  1.00  0.00     0.268 C 
HETATM   25  N4  UNL     1      -0.420  16.710  19.096  1.00  0.00    -0.358 N 
ATOM     26  H4  UNL     1      -0.451  17.074  18.143  1.00  0.00     0.162 HD
HETATM   27  O1  UNL     1       0.889  16.390  20.961  1.00  0.00    -0.269 OA
BRANCH  25  28
HETATM   28  C5  UNL     1      -1.620  16.120  19.628  1.00  0.00     0.122 C 
BRANCH  28  29
HETATM   29  C4  UNL     1      -2.008  14.924  18.800  1.00  0.00     0.021 C 
BRANCH  29  30
HETATM   30  C3  UNL     1      -1.351  13.656  19.331  1.00  0.00     0.021 C 
BRANCH  30  31
HETATM   31  C2  UNL     1      -0.815  12.849  18.145  1.00  0.00     0.122 C 
BRANCH  31  32
HETATM   32  N3  UNL     1      -1.636  13.168  17.000  1.00  0.00    -0.367 N 
HETATM   33  C1  UNL     1      -1.708  12.355  16.016  1.00  0.00     0.196 C 
HETATM   34  N1  UNL     1      -2.524  12.669  14.875  1.00  0.00    -0.067 NA
HETATM   35  N2  UNL     1      -0.989  11.140  16.040  1.00  0.00    -0.067 NA
ATOM     36  H3  UNL     1      -2.160  14.042  16.977  1.00  0.00     0.161 HD
ENDBRANCH  31  32
ENDBRANCH  30  31
ENDBRANCH  29  30
ENDBRANCH  28  29
ENDBRANCH  25  28
ENDBRANCH   1  24
TORSDOF 11
ENDMDL
MODEL 3
REMARK VINA RESULT: -6.334413830      2.041      8.347
REMARK  11 active torsions:
REMARK  status: ('A' for Active; 'I' for Inactive)
REMARK    1  A    between atoms: N3_4  and  C2_6 
REMARK    2  A    between atoms: C2_6  and  C3_7 
REMARK    3  A    between atoms: C3_7  and  C4_8 
REMARK    4  A    between atoms: C4_8  and  C5_9 
REMARK    5  A    between atoms: C5_9  and  N4_10 
REMARK       I    between atoms: N4_10  and  C6_12 
REMARK    6  A    between atoms: C6_12  and  C7_14 
REMARK    7  A    between atoms: N6_20  and  C10_21 
REMARK    8  A    between atoms: C10_21  and  O2_22 
REMARK    9  A    between atoms: C10_21  and  C11_24 
REMARK   10  A    between atoms: C11_24  and  N7_25 
REMARK   11  A    between atoms: C14_28  and  N8_29 
ROOT
HETATM    1  C7  UNL     1       2.098  18.807  16.002  1.00  0.00     0.381 C 
HETATM    2  N5  UNL     1       0.855  19.351  15.426  1.00  0.00    -0.044 N 
ATOM      3  H51 UNL     1       0.041  18.761  15.599  1.00  0.00     0.280 HD
ATOM      4  H52 UNL     1       0.832  19.308  14.407  1.00  0.00     0.280 HD
HETATM    5  C8  UNL     1       0.705  20.680  15.936  1.00  0.00     0.255 C 
HETATM    6  C9  UNL     1       2.006  20.980  16.631  1.00  0.00     0.155 C 
HETATM    7  N6  UNL     1       2.288  19.603  17.189  1.00  0.00    -0.324 N 
ENDROOT
BRANCH   7   8
HETATM    8  C10 UNL     1       2.591  19.305  18.484  1.00  0.00     0.156 C 
BRANCH   8   9
HETATM    9  O2  UNL     1       3.671  19.937  18.934  1.00  0.00    -0.345 OA
ATOM     10  H2  UNL     1       3.585  20.244  19.830  1.00  0.00     0.219 HD
ENDBRANCH   8   9
BRANCH   8  11
HETATM   11  C11 UNL     1       2.013  18.456  19.502  1.00  0.00     0.149 C 
BRANCH  11  12
HETATM   12  N7  UNL     1       0.684  17.997  19.437  1.00  0.00    -0.322 N 
HETATM   13  C12 UNL     1      -0.507  18.617  18.832  1.00  0.00     0.134 C 
HETATM   14  C13 UNL     1      -1.448  17.508  18.512  1.00  0.00     0.066 C 
HETATM   15  C14 UNL     1      -0.986  16.277  19.248  1.00  0.00     0.316 C 
HETATM   16  C20 UNL     1       0.223  16.725  19.959  1.00  0.00     0.257 C 
HETATM   17  O3  UNL     1       0.836  16.143  20.902  1.00  0.00    -0.271 OA
BRANCH  15  18
HETATM   18  N8  UNL     1      -0.722  15.192  18.338  1.00  0.00     0.102 N 
HETATM   19  C15 UNL     1      -1.539  15.296  17.167  1.00  0.00     0.273 C 
HETATM   20  C16 UNL     1      -2.697  14.314  17.194  1.00  0.00     0.030 C 
HETATM   21  C17 UNL     1      -2.145  12.902  17.184  1.00  0.00     0.003 C 
HETATM   22  C18 UNL     1      -0.800  12.827  17.875  1.00  0.00     0.030 C 
HETATM   23  C19 UNL     1      -0.831  13.909  18.963  1.00  0.00     0.273 C 
ENDBRANCH  15  18
ENDBRANCH  11  12
ENDBRANCH   8  11
ENDBRANCH   7   8
BRANCH   1  24
HETATM   24  C6  UNL     1       3.203  19.161  15.052  1.00  0.00     0.268 C 
HETATM   25  N4  UNL     1       4.514  19.309  15.530  1.00  0.00    -0.358 N 
ATOM     26  H4  UNL     1       4.678  19.164  16.527  1.00  0.00     0.162 HD
HETATM   27  O1  UNL     1       2.941  19.320  13.851  1.00  0.00    -0.269 OA
BRANCH  25  28
HETATM   28  C5  UNL     1       5.643  19.652  14.707  1.00  0.00     0.122 C 
BRANCH  28  29
HETATM   29  C4  UNL     1       6.473  18.423  14.444  1.00  0.00     0.021 C 
BRANCH  29  30
HETATM   30  C3  UNL     1       7.070  18.457  13.043  1.00  0.00     0.021 C 
BRANCH  30  31
HETATM   31  C2  UNL     1       6.116  19.225  12.124  1.00  0.00     0.122 C 
BRANCH  31  32
HETATM   32  N3  UNL     1       6.482  18.911  10.763  1.00  0.00    -0.367 N 
HETATM   33  C1  UNL     1       5.595  18.914   9.843  1.00  0.00     0.196 C 
HETATM   34  N1  UNL     1       5.956  18.602   8.486  1.00  0.00    -0.067 NA
HETATM   35  N2  UNL     1       4.252  19.227  10.147  1.00  0.00    -0.067 NA
ATOM     36  H3  UNL     1       7.450  18.686  10.535  1.00  0.00     0.161 HD
ENDBRANCH  31  32
ENDBRANCH  30  31
ENDBRANCH  29  30
ENDBRANCH  28  29
ENDBRANCH  25  28
ENDBRANCH   1  24
TORSDOF 11
ENDMDL
MODEL 4
REMARK VINA RESULT: -6.086559905      1.944      8.401
REMARK  11 active torsions:
REMARK  status: ('A' for Active; 'I' for Inactive)
REMARK    1  A    between atoms: N3_4  and  C2_6 
REMARK    2  A    between atoms: C2_6  and  C3_7 
REMARK    3  A    between atoms: C3_7  and  C4_8 
REMARK    4  A    between atoms: C4_8  and  C5_9 
REMARK    5  A    between atoms: C5_9  and  N4_10 
REMARK       I    between atoms: N4_10  and  C6_12 
REMARK    6  A    between atoms: C6_12  and  C7_14 
REMARK    7  A    between atoms: N6_20  and  C10_21 
REMARK    8  A    between atoms: C10_21  and  O2_22 
REMARK    9  A    between atoms: C10_21  and  C11_24 
REMARK   10  A    between atoms: C11_24  and  N7_25 
REMARK   11  A    between atoms: C14_28  and  N8_29 
ROOT
HETATM    1  C7  UNL     1       1.804  20.091  19.242  1.00  0.00     0.381 C 
HETATM    2  N5  UNL     1       2.952  20.740  19.899  1.00  0.00    -0.044 N 
ATOM      3  H51 UNL     1       2.677  21.450  20.578  1.00  0.00     0.280 HD
ATOM      4  H52 UNL     1       3.477  21.354  19.276  1.00  0.00     0.280 HD
HETATM    5  C8  UNL     1       3.752  19.698  20.468  1.00  0.00     0.255 C 
HETATM    6  C9  UNL     1       3.172  18.420  19.925  1.00  0.00     0.155 C 
HETATM    7  N6  UNL     1       1.713  18.820  19.917  1.00  0.00    -0.324 N 
ENDROOT
BRANCH   7   8
HETATM    8  C10 UNL     1       0.682  18.114  20.461  1.00  0.00     0.156 C 
BRANCH   8   9
HETATM    9  O2  UNL     1       1.048  16.934  20.954  1.00  0.00    -0.345 OA
ATOM     10  H2  UNL     1       1.261  16.960  21.880  1.00  0.00     0.219 HD
ENDBRANCH   8   9
BRANCH   8  11
HETATM   11  C11 UNL     1      -0.736  18.342  20.635  1.00  0.00     0.149 C 
BRANCH  11  12
HETATM   12  N7  UNL     1      -1.710  17.593  19.949  1.00  0.00    -0.322 N 
HETATM   13  C12 UNL     1      -2.646  17.998  18.886  1.00  0.00     0.134 C 
HETATM   14  C13 UNL     1      -2.991  16.762  18.130  1.00  0.00     0.066 C 
HETATM   15  C14 UNL     1      -2.558  15.576  18.952  1.00  0.00     0.316 C 
HETATM   16  C20 UNL     1      -1.961  16.180  20.155  1.00  0.00     0.257 C 
HETATM   17  O3  UNL     1      -1.677  15.617  21.253  1.00  0.00    -0.271 OA
BRANCH  15  18
HETATM   18  N8  UNL     1      -1.625  14.751  18.228  1.00  0.00     0.102 N 
HETATM   19  C15 UNL     1      -1.914  14.762  16.825  1.00  0.00     0.273 C 
HETATM   20  C16 UNL     1      -2.604  13.484  16.378  1.00  0.00     0.030 C 
HETATM   21  C17 UNL     1      -1.663  12.316  16.593  1.00  0.00     0.003 C 
HETATM   22  C18 UNL     1      -0.742  12.553  17.772  1.00  0.00     0.030 C 
HETATM   23  C19 UNL     1      -1.542  13.421  18.754  1.00  0.00     0.273 C 
ENDBRANCH  15  18
ENDBRANCH  11  12
ENDBRANCH   8  11
ENDBRANCH   7   8
BRANCH   1  24
HETATM   24  C6  UNL     1       2.219  19.810  17.829  1.00  0.00     0.268 C 
HETATM   25  N4  UNL     1       3.068  20.705  17.159  1.00  0.00    -0.358 N 
ATOM     26  H4  UNL     1       3.384  21.532  17.666  1.00  0.00     0.162 HD
HETATM   27  O1  UNL     1       1.804  18.785  17.268  1.00  0.00    -0.269 OA
BRANCH  25  28
HETATM   28  C5  UNL     1       3.521  20.533  15.804  1.00  0.00     0.122 C 
BRANCH  28  29
HETATM   29  C4  UNL     1       4.885  19.896  15.802  1.00  0.00     0.021 C 
BRANCH  29  30
HETATM   30  C3  UNL     1       5.045  18.953  14.615  1.00  0.00     0.021 C 
BRANCH  30  31
HETATM   31  C2  UNL     1       6.487  18.440  14.589  1.00  0.00     0.122 C 
BRANCH  31  32
HETATM   32  N3  UNL     1       7.318  19.515  14.098  1.00  0.00    -0.367 N 
HETATM   33  C1  UNL     1       7.956  19.382  12.999  1.00  0.00     0.196 C 
HETATM   34  N1  UNL     1       8.785  20.450  12.508  1.00  0.00    -0.067 NA
HETATM   35  N2  UNL     1       7.854  18.186  12.254  1.00  0.00    -0.067 NA
ATOM     36  H3  UNL     1       7.396  20.382  14.630  1.00  0.00     0.161 HD
ENDBRANCH  31  32
ENDBRANCH  30  31
ENDBRANCH  29  30
ENDBRANCH  28  29
ENDBRANCH  25  28
ENDBRANCH   1  24
TORSDOF 11
ENDMDL
MODEL 5
REMARK VINA RESULT: -6.083758350      1.759      2.386
REMARK  11 active torsions:
REMARK  status: ('A' for Active; 'I' for Inactive)
REMARK    1  A    between atoms: N3_4  and  C2_6 
REMARK    2  A    between atoms: C2_6  and  C3_7 
REMARK    3  A    between atoms: C3_7  and  C4_8 
REMARK    4  A    between atoms: C4_8  and  C5_9 
REMARK    5  A    between atoms: C5_9  and  N4_10 
REMARK       I    between atoms: N4_10  and  C6_12 
REMARK    6  A    between atoms: C6_12  and  C7_14 
REMARK    7  A    between atoms: N6_20  and  C10_21 
REMARK    8  A    between atoms: C10_21  and  O2_22 
REMARK    9  A    between atoms: C10_21  and  C11_24 
REMARK   10  A    between atoms: C11_24  and  N7_25 
REMARK   11  A    between atoms: C14_28  and  N8_29 
ROOT
HETATM    1  C7  UNL     1       2.025  17.491  19.145  1.00  0.00     0.381 C 
HETATM    2  N5  UNL     1       2.760  18.150  20.241  1.00  0.00    -0.044 N 
ATOM      3  H51 UNL     1       3.772  18.103  20.129  1.00  0.00     0.280 HD
ATOM      4  H52 UNL     1       2.703  17.642  21.124  1.00  0.00     0.280 HD
HETATM    5  C8  UNL     1       2.264  19.490  20.329  1.00  0.00     0.255 C 
HETATM    6  C9  UNL     1       1.063  19.523  19.421  1.00  0.00     0.155 C 
HETATM    7  N6  UNL     1       1.573  18.597  18.339  1.00  0.00    -0.324 N 
ENDROOT
BRANCH   7   8
HETATM    8  C10 UNL     1       1.588  18.855  17.001  1.00  0.00     0.156 C 
BRANCH   8   9
HETATM    9  O2  UNL     1       0.615  19.672  16.607  1.00  0.00    -0.345 OA
ATOM     10  H2  UNL     1      -0.212  19.517  17.048  1.00  0.00     0.219 HD
ENDBRANCH   8   9
BRANCH   8  11
HETATM   11  C11 UNL     1       2.420  18.450  15.889  1.00  0.00     0.149 C 
BRANCH  11  12
HETATM   12  N7  UNL     1       3.269  19.347  15.215  1.00  0.00    -0.322 N 
HETATM   13  C12 UNL     1       4.594  19.866  15.591  1.00  0.00     0.134 C 
HETATM   14  C13 UNL     1       5.275  20.254  14.324  1.00  0.00     0.066 C 
HETATM   15  C14 UNL     1       4.236  20.310  13.234  1.00  0.00     0.316 C 
HETATM   16  C20 UNL     1       2.988  19.935  13.919  1.00  0.00     0.257 C 
HETATM   17  O3  UNL     1       1.799  20.071  13.506  1.00  0.00    -0.271 OA
BRANCH  15  18
HETATM   18  N8  UNL     1       4.564  19.417  12.154  1.00  0.00     0.102 N 
HETATM   19  C15 UNL     1       5.974  19.173  12.101  1.00  0.00     0.273 C 
HETATM   20  C16 UNL     1       6.643  19.951  10.981  1.00  0.00     0.030 C 
HETATM   21  C17 UNL     1       6.095  19.470   9.652  1.00  0.00     0.003 C 
HETATM   22  C18 UNL     1       4.660  19.005   9.780  1.00  0.00     0.030 C 
HETATM   23  C19 UNL     1       4.043  19.860  10.895  1.00  0.00     0.273 C 
ENDBRANCH  15  18
ENDBRANCH  11  12
ENDBRANCH   8  11
ENDBRANCH   7   8
BRANCH   1  24
HETATM   24  C6  UNL     1       0.807  16.867  19.758  1.00  0.00     0.268 C 
HETATM   25  N4  UNL     1      -0.345  16.672  18.981  1.00  0.00    -0.358 N 
ATOM     26  H4  UNL     1      -0.315  16.963  18.004  1.00  0.00     0.162 HD
HETATM   27  O1  UNL     1       0.835  16.530  20.951  1.00  0.00    -0.269 OA
BRANCH  25  28
HETATM   28  C5  UNL     1      -1.565  16.088  19.472  1.00  0.00     0.122 C 
BRANCH  28  29
HETATM   29  C4  UNL     1      -1.944  14.908  18.617  1.00  0.00     0.021 C 
BRANCH  29  30
HETATM   30  C3  UNL     1      -1.075  13.699  18.941  1.00  0.00     0.021 C 
BRANCH  30  31
HETATM   31  C2  UNL     1      -1.732  12.451  18.346  1.00  0.00     0.122 C 
BRANCH  31  32
HETATM   32  N3  UNL     1      -2.238  12.810  17.042  1.00  0.00    -0.367 N 
HETATM   33  C1  UNL     1      -1.833  12.187  16.002  1.00  0.00     0.196 C 
HETATM   34  N1  UNL     1      -2.335  12.542  14.702  1.00  0.00    -0.067 NA
HETATM   35  N2  UNL     1      -0.891  11.142  16.118  1.00  0.00    -0.067 NA
ATOM     36  H3  UNL     1      -2.921  13.563  16.950  1.00  0.00     0.161 HD
ENDBRANCH  31  32
ENDBRANCH  30  31
ENDBRANCH  29  30
ENDBRANCH  28  29
ENDBRANCH  25  28
ENDBRANCH   1  24
TORSDOF 11
ENDMDL
