MODEL 1
REMARK VINA RESULT: -6.904434584      0.000      0.000
REMARK  8 active torsions:
REMARK  status: ('A' for Active; 'I' for Inactive)
REMARK    1  A    between atoms: C3_3  and  C4_4 
REMARK    2  A    between atoms: C5_5  and  C6_6 
REMARK    3  A    between atoms: C8_11  and  C9_12 
REMARK    4  A    between atoms: C9_12  and  C10_13 
REMARK    5  A    between atoms: C10_13  and  C11_14 
REMARK    6  A    between atoms: C11_14  and  N2_15 
REMARK    7  A    between atoms: N6_26  and  C17_27 
REMARK    8  A    between atoms: C17_27  and  C18_28 
ROOT
HETATM    1  C1  UNL     1       2.202  19.331  19.173  1.00  0.00     0.012 C 
HETATM    2  C2  UNL     1       1.522  19.438  20.162  1.00  0.00    -0.114 C 
HETATM    3  C3  UNL     1       0.680  19.595  21.364  1.00  0.00     0.120 C 
ENDROOT
BRANCH   3   4
HETATM    4  C4  UNL     1      -0.734  19.908  21.083  1.00  0.00    -0.014 C 
HETATM    5  C5  UNL     1      -1.854  19.062  21.395  1.00  0.00     0.016 C 
BRANCH   5   6
HETATM    6  C6  UNL     1      -2.059  17.692  20.807  1.00  0.00     0.064 C 
HETATM    7  C7  UNL     1      -0.979  16.819  21.180  1.00  0.00     0.254 C 
HETATM    8  O1  UNL     1      -0.971  16.514  22.427  1.00  0.00    -0.268 OA
HETATM    9  N1  UNL     1       0.085  16.206  20.505  1.00  0.00    -0.344 N 
HETATM   10  C8  UNL     1       0.180  15.828  19.161  1.00  0.00     0.177 C 
ATOM     11  H1  UNL     1       0.907  16.006  21.075  1.00  0.00     0.163 HD
HETATM   12  C13 UNL     1      -0.411  16.805  18.210  1.00  0.00     0.247 C 
HETATM   13  O2  UNL     1       0.300  17.106  17.249  1.00  0.00    -0.271 OA
HETATM   14  N5  UNL     1      -1.674  17.369  18.353  1.00  0.00    -0.310 N 
HETATM   15  C14 UNL     1      -1.978  17.727  16.952  1.00  0.00     0.134 C 
HETATM   16  C20 UNL     1      -2.588  17.610  19.438  1.00  0.00     0.121 C 
HETATM   17  C15 UNL     1      -3.147  16.909  16.441  1.00  0.00     0.040 C 
HETATM   18  C16 UNL     1      -4.489  17.530  16.739  1.00  0.00     0.128 C 
HETATM   19  N6  UNL     1      -4.471  18.456  17.855  1.00  0.00    -0.337 N 
HETATM   20  C19 UNL     1      -3.534  18.614  18.952  1.00  0.00     0.272 C 
HETATM   21  O5  UNL     1      -3.664  19.757  19.415  1.00  0.00    -0.266 OA
BRANCH  10  22
HETATM   22  C9  UNL     1      -0.327  14.444  18.916  1.00  0.00     0.036 C 
BRANCH  22  23
HETATM   23  C10 UNL     1      -1.736  14.229  18.576  1.00  0.00     0.022 C 
BRANCH  23  24
HETATM   24  C11 UNL     1      -2.126  13.138  17.652  1.00  0.00     0.122 C 
BRANCH  24  25
HETATM   25  N2  UNL     1      -1.089  12.110  17.570  1.00  0.00    -0.367 N 
HETATM   26  C12 UNL     1      -0.892  11.385  16.521  1.00  0.00     0.196 C 
HETATM   27  N3  UNL     1      -1.675  11.528  15.339  1.00  0.00    -0.067 NA
HETATM   28  N4  UNL     1       0.126  10.398  16.484  1.00  0.00    -0.067 NA
ATOM     29  H2  UNL     1      -0.492  11.957  18.383  1.00  0.00     0.161 HD
ENDBRANCH  24  25
ENDBRANCH  23  24
ENDBRANCH  22  23
ENDBRANCH  10  22
BRANCH  19  30
HETATM   30  C17 UNL     1      -5.564  19.394  17.891  1.00  0.00     0.239 C 
BRANCH  30  31
HETATM   31  C18 UNL     1      -6.874  18.817  17.647  1.00  0.00     0.191 C 
HETATM   32  O3  UNL     1      -7.415  18.036  18.454  1.00  0.00    -0.647 OA
HETATM   33  O4  UNL     1      -7.562  19.126  16.495  1.00  0.00    -0.647 OA
ENDBRANCH  30  31
ENDBRANCH  19  30
ENDBRANCH   5   6
ENDBRANCH   3   4
TORSDOF 8
ENDMDL
MODEL 2
REMARK VINA RESULT: -6.888115296      2.575      6.322
REMARK  8 active torsions:
REMARK  status: ('A' for Active; 'I' for Inactive)
REMARK    1  A    between atoms: C3_3  and  C4_4 
REMARK    2  A    between atoms: C5_5  and  C6_6 
REMARK    3  A    between atoms: C8_11  and  C9_12 
REMARK    4  A    between atoms: C9_12  and  C10_13 
REMARK    5  A    between atoms: C10_13  and  C11_14 
REMARK    6  A    between atoms: C11_14  and  N2_15 
REMARK    7  A    between atoms: N6_26  and  C17_27 
REMARK    8  A    between atoms: C17_27  and  C18_28 
ROOT
HETATM    1  C1  UNL     1      -8.760  18.624  19.367  1.00  0.00     0.012 C 
HETATM    2  C2  UNL     1      -7.748  18.328  18.785  1.00  0.00    -0.114 C 
HETATM    3  C3  UNL     1      -6.513  17.987  18.051  1.00  0.00     0.120 C 
ENDROOT
BRANCH   3   4
HETATM    4  C4  UNL     1      -5.616  19.131  17.799  1.00  0.00    -0.014 C 
HETATM    5  C5  UNL     1      -4.180  19.093  17.854  1.00  0.00     0.016 C 
BRANCH   5   6
HETATM    6  C6  UNL     1      -3.397  18.778  19.100  1.00  0.00     0.064 C 
HETATM    7  C7  UNL     1      -3.040  19.989  19.788  1.00  0.00     0.254 C 
HETATM    8  O1  UNL     1      -4.040  20.595  20.315  1.00  0.00    -0.268 OA
HETATM    9  N1  UNL     1      -1.846  20.682  20.031  1.00  0.00    -0.344 N 
HETATM   10  C8  UNL     1      -0.539  20.189  20.120  1.00  0.00     0.177 C 
ATOM     11  H1  UNL     1      -1.944  21.688  20.162  1.00  0.00     0.163 HD
HETATM   12  C13 UNL     1      -0.216  19.137  19.122  1.00  0.00     0.247 C 
HETATM   13  O2  UNL     1       0.840  19.297  18.505  1.00  0.00    -0.271 OA
HETATM   14  N5  UNL     1      -1.017  18.030  18.866  1.00  0.00    -0.310 N 
HETATM   15  C14 UNL     1      -0.020  17.086  18.319  1.00  0.00     0.134 C 
HETATM   16  C20 UNL     1      -2.408  17.693  19.028  1.00  0.00     0.121 C 
HETATM   17  C15 UNL     1       0.147  15.899  19.247  1.00  0.00     0.040 C 
HETATM   18  C16 UNL     1      -0.837  14.788  18.982  1.00  0.00     0.128 C 
HETATM   19  N6  UNL     1      -2.042  15.222  18.301  1.00  0.00    -0.337 N 
HETATM   20  C19 UNL     1      -2.644  16.535  18.165  1.00  0.00     0.272 C 
HETATM   21  O5  UNL     1      -3.400  16.519  17.182  1.00  0.00    -0.266 OA
BRANCH  10  22
HETATM   22  C9  UNL     1      -0.178  19.766  21.506  1.00  0.00     0.036 C 
BRANCH  22  23
HETATM   23  C10 UNL     1      -0.988  20.211  22.643  1.00  0.00     0.022 C 
BRANCH  23  24
HETATM   24  C11 UNL     1      -1.523  19.226  23.612  1.00  0.00     0.122 C 
BRANCH  24  25
HETATM   25  N2  UNL     1      -2.042  18.037  22.937  1.00  0.00    -0.367 N 
HETATM   26  C12 UNL     1      -1.453  16.890  22.971  1.00  0.00     0.196 C 
HETATM   27  N3  UNL     1      -0.233  16.681  23.677  1.00  0.00    -0.067 NA
HETATM   28  N4  UNL     1      -1.991  15.761  22.301  1.00  0.00    -0.067 NA
ATOM     29  H2  UNL     1      -2.913  18.119  22.414  1.00  0.00     0.161 HD
ENDBRANCH  24  25
ENDBRANCH  23  24
ENDBRANCH  22  23
ENDBRANCH  10  22
BRANCH  19  30
HETATM   30  C17 UNL     1      -2.777  14.180  17.631  1.00  0.00     0.239 C 
BRANCH  30  31
HETATM   31  C18 UNL     1      -2.000  12.999  17.298  1.00  0.00     0.191 C 
HETATM   32  O3  UNL     1      -1.318  12.925  16.257  1.00  0.00    -0.647 OA
HETATM   33  O4  UNL     1      -2.001  11.911  18.142  1.00  0.00    -0.647 OA
ENDBRANCH  30  31
ENDBRANCH  19  30
ENDBRANCH   5   6
ENDBRANCH   3   4
TORSDOF 8
ENDMDL
MODEL 3
REMARK VINA RESULT: -6.624487037      3.381      6.047
REMARK  8 active torsions:
REMARK  status: ('A' for Active; 'I' for Inactive)
REMARK    1  A    between atoms: C3_3  and  C4_4 
REMARK    2  A    between atoms: C5_5  and  C6_6 
REMARK    3  A    between atoms: C8_11  and  C9_12 
REMARK    4  A    between atoms: C9_12  and  C10_13 
REMARK    5  A    between atoms: C10_13  and  C11_14 
REMARK    6  A    between atoms: C11_14  and  N2_15 
REMARK    7  A    between atoms: N6_26  and  C17_27 
REMARK    8  A    between atoms: C17_27  and  C18_28 
ROOT
HETATM    1  C1  UNL     1       4.325  20.143  20.317  1.00  0.00     0.012 C 
HETATM    2  C2  UNL     1       3.178  19.810  20.473  1.00  0.00    -0.114 C 
HETATM    3  C3  UNL     1       1.773  19.388  20.638  1.00  0.00     0.120 C 
ENDROOT
BRANCH   3   4
HETATM    4  C4  UNL     1       1.553  17.935  20.507  1.00  0.00    -0.014 C 
HETATM    5  C5  UNL     1       1.757  17.164  19.310  1.00  0.00     0.016 C 
BRANCH   5   6
HETATM    6  C6  UNL     1       0.986  17.377  18.036  1.00  0.00     0.064 C 
HETATM    7  C7  UNL     1       1.171  18.719  17.554  1.00  0.00     0.254 C 
HETATM    8  O1  UNL     1       2.358  18.952  17.125  1.00  0.00    -0.268 OA
HETATM    9  N1  UNL     1       0.361  19.856  17.435  1.00  0.00    -0.344 N 
HETATM   10  C8  UNL     1      -1.028  19.940  17.278  1.00  0.00     0.177 C 
ATOM     11  H1  UNL     1       0.852  20.749  17.467  1.00  0.00     0.163 HD
HETATM   12  C13 UNL     1      -1.794  18.964  18.095  1.00  0.00     0.247 C 
HETATM   13  O2  UNL     1      -2.736  19.433  18.737  1.00  0.00    -0.271 OA
HETATM   14  N5  UNL     1      -1.506  17.605  18.163  1.00  0.00    -0.310 N 
HETATM   15  C14 UNL     1      -2.822  17.063  18.558  1.00  0.00     0.134 C 
HETATM   16  C20 UNL     1      -0.352  16.774  17.939  1.00  0.00     0.121 C 
HETATM   17  C15 UNL     1      -3.387  16.193  17.452  1.00  0.00     0.040 C 
HETATM   18  C16 UNL     1      -2.934  14.757  17.527  1.00  0.00     0.128 C 
HETATM   19  N6  UNL     1      -1.697  14.571  18.261  1.00  0.00    -0.337 N 
HETATM   20  C19 UNL     1      -0.637  15.502  18.602  1.00  0.00     0.272 C 
HETATM   21  O5  UNL     1      -0.006  15.040  19.564  1.00  0.00    -0.266 OA
BRANCH  10  22
HETATM   22  C9  UNL     1      -1.446  19.909  15.843  1.00  0.00     0.036 C 
BRANCH  22  23
HETATM   23  C10 UNL     1      -0.885  20.875  14.895  1.00  0.00     0.022 C 
BRANCH  23  24
HETATM   24  C11 UNL     1      -0.034  20.415  13.773  1.00  0.00     0.122 C 
BRANCH  24  25
HETATM   25  N2  UNL     1       1.333  20.142  14.215  1.00  0.00    -0.367 N 
HETATM   26  C12 UNL     1       2.236  19.627  13.450  1.00  0.00     0.196 C 
HETATM   27  N3  UNL     1       1.973  19.277  12.093  1.00  0.00    -0.067 NA
HETATM   28  N4  UNL     1       3.551  19.378  13.919  1.00  0.00    -0.067 NA
ATOM     29  H2  UNL     1       1.587  20.370  15.176  1.00  0.00     0.161 HD
ENDBRANCH  24  25
ENDBRANCH  23  24
ENDBRANCH  22  23
ENDBRANCH  10  22
BRANCH  19  30
HETATM   30  C17 UNL     1      -1.468  13.235  18.748  1.00  0.00     0.239 C 
BRANCH  30  31
HETATM   31  C18 UNL     1      -0.945  12.304  17.764  1.00  0.00     0.191 C 
HETATM   32  O3  UNL     1       0.224  11.874  17.814  1.00  0.00    -0.647 OA
HETATM   33  O4  UNL     1      -1.745  11.869  16.731  1.00  0.00    -0.647 OA
ENDBRANCH  30  31
ENDBRANCH  19  30
ENDBRANCH   5   6
ENDBRANCH   3   4
TORSDOF 8
ENDMDL
MODEL 4
REMARK VINA RESULT: -6.613083086      1.476      2.005
REMARK  8 active torsions:
REMARK  status: ('A' for Active; 'I' for Inactive)
REMARK    1  A    between atoms: C3_3  and  C4_4 
REMARK    2  A    between atoms: C5_5  and  C6_6 
REMARK    3  A    between atoms: C8_11  and  C9_12 
REMARK    4  A    between atoms: C9_12  and  C10_13 
REMARK    5  A    between atoms: C10_13  and  C11_14 
REMARK    6  A    between atoms: C11_14  and  N2_15 
REMARK    7  A    between atoms: N6_26  and  C17_27 
REMARK    8  A    between atoms: C17_27  and  C18_28 
ROOT
HETATM    1  C1  UNL     1       3.886  18.969  20.606  1.00  0.00     0.012 C 
HETATM    2  C2  UNL     1       3.038  18.992  19.751  1.00  0.00    -0.114 C 
HETATM    3  C3  UNL     1       1.979  19.011  18.723  1.00  0.00     0.120 C 
ENDROOT
BRANCH   3   4
HETATM    4  C4  UNL     1       0.812  19.848  19.064  1.00  0.00    -0.014 C 
HETATM    5  C5  UNL     1      -0.055  19.649  20.194  1.00  0.00     0.016 C 
BRANCH   5   6
HETATM    6  C6  UNL     1      -0.900  18.420  20.396  1.00  0.00     0.064 C 
HETATM    7  C7  UNL     1      -0.070  17.280  20.674  1.00  0.00     0.254 C 
HETATM    8  O1  UNL     1       0.506  17.330  21.820  1.00  0.00    -0.268 OA
HETATM    9  N1  UNL     1       0.271  16.104  19.992  1.00  0.00    -0.344 N 
HETATM   10  C8  UNL     1      -0.457  15.398  19.027  1.00  0.00     0.177 C 
ATOM     11  H1  UNL     1       1.179  15.707  20.232  1.00  0.00     0.163 HD
HETATM   12  C13 UNL     1      -1.166  16.261  18.047  1.00  0.00     0.247 C 
HETATM   13  O2  UNL     1      -1.012  15.955  16.862  1.00  0.00    -0.271 OA
HETATM   14  N5  UNL     1      -1.959  17.349  18.393  1.00  0.00    -0.310 N 
HETATM   15  C14 UNL     1      -2.839  17.439  17.210  1.00  0.00     0.134 C 
HETATM   16  C20 UNL     1      -2.065  18.243  19.517  1.00  0.00     0.121 C 
HETATM   17  C15 UNL     1      -4.274  17.137  17.597  1.00  0.00     0.040 C 
HETATM   18  C16 UNL     1      -5.033  18.349  18.073  1.00  0.00     0.128 C 
HETATM   19  N6  UNL     1      -4.184  19.415  18.568  1.00  0.00    -0.337 N 
HETATM   20  C19 UNL     1      -2.811  19.406  19.038  1.00  0.00     0.272 C 
HETATM   21  O5  UNL     1      -2.364  20.560  18.962  1.00  0.00    -0.266 OA
BRANCH  10  22
HETATM   22  C9  UNL     1      -1.371  14.380  19.629  1.00  0.00     0.036 C 
BRANCH  22  23
HETATM   23  C10 UNL     1      -1.230  12.966  19.270  1.00  0.00     0.022 C 
BRANCH  23  24
HETATM   24  C11 UNL     1      -0.614  12.579  17.980  1.00  0.00     0.122 C 
BRANCH  24  25
HETATM   25  N2  UNL     1      -1.459  12.955  16.848  1.00  0.00    -0.367 N 
HETATM   26  C12 UNL     1      -1.665  12.187  15.832  1.00  0.00     0.196 C 
HETATM   27  N3  UNL     1      -1.080  10.892  15.726  1.00  0.00    -0.067 NA
HETATM   28  N4  UNL     1      -2.493  12.593  14.753  1.00  0.00    -0.067 NA
ATOM     29  H2  UNL     1      -1.908  13.871  16.862  1.00  0.00     0.161 HD
ENDBRANCH  24  25
ENDBRANCH  23  24
ENDBRANCH  22  23
ENDBRANCH  10  22
BRANCH  19  30
HETATM   30  C17 UNL     1      -4.794  20.720  18.599  1.00  0.00     0.239 C 
BRANCH  30  31
HETATM   31  C18 UNL     1      -5.881  20.866  19.551  1.00  0.00     0.191 C 
HETATM   32  O3  UNL     1      -7.065  21.015  19.187  1.00  0.00    -0.647 OA
HETATM   33  O4  UNL     1      -5.624  20.844  20.903  1.00  0.00    -0.647 OA
ENDBRANCH  30  31
ENDBRANCH  19  30
ENDBRANCH   5   6
ENDBRANCH   3   4
TORSDOF 8
ENDMDL
MODEL 5
REMARK VINA RESULT: -6.603536577      2.428      6.127
REMARK  8 active torsions:
REMARK  status: ('A' for Active; 'I' for Inactive)
REMARK    1  A    between atoms: C3_3  and  C4_4 
REMARK    2  A    between atoms: C5_5  and  C6_6 
REMARK    3  A    between atoms: C8_11  and  C9_12 
REMARK    4  A    between atoms: C9_12  and  C10_13 
REMARK    5  A    between atoms: C10_13  and  C11_14 
REMARK    6  A    between atoms: C11_14  and  N2_15 
REMARK    7  A    between atoms: N6_26  and  C17_27 
REMARK    8  A    between atoms: C17_27  and  C18_28 
ROOT
HETATM    1  C1  UNL     1      -2.163  20.510  14.731  1.00  0.00     0.012 C 
HETATM    2  C2  UNL     1      -3.174  20.193  15.303  1.00  0.00    -0.114 C 
HETATM    3  C3  UNL     1      -4.419  19.785  15.983  1.00  0.00     0.120 C 
ENDROOT
BRANCH   3   4
HETATM    4  C4  UNL     1      -4.522  18.338  16.251  1.00  0.00    -0.014 C 
HETATM    5  C5  UNL     1      -4.769  17.743  17.537  1.00  0.00     0.016 C 
BRANCH   5   6
HETATM    6  C6  UNL     1      -3.841  17.876  18.713  1.00  0.00     0.064 C 
HETATM    7  C7  UNL     1      -3.744  19.251  19.123  1.00  0.00     0.254 C 
HETATM    8  O1  UNL     1      -4.820  19.708  19.651  1.00  0.00    -0.268 OA
HETATM    9  N1  UNL     1      -2.744  20.232  19.089  1.00  0.00    -0.344 N 
HETATM   10  C8  UNL     1      -1.352  20.079  19.104  1.00  0.00     0.177 C 
ATOM     11  H1  UNL     1      -3.078  21.195  19.048  1.00  0.00     0.163 HD
HETATM   12  C13 UNL     1      -0.855  18.947  18.281  1.00  0.00     0.247 C 
HETATM   13  O2  UNL     1       0.078  19.214  17.520  1.00  0.00    -0.271 OA
HETATM   14  N5  UNL     1      -1.375  17.658  18.328  1.00  0.00    -0.310 N 
HETATM   15  C14 UNL     1      -0.220  16.876  17.842  1.00  0.00     0.134 C 
HETATM   16  C20 UNL     1      -2.622  17.053  18.717  1.00  0.00     0.121 C 
HETATM   17  C15 UNL     1       0.305  15.973  18.941  1.00  0.00     0.040 C 
HETATM   18  C16 UNL     1      -0.390  14.636  19.003  1.00  0.00     0.128 C 
HETATM   19  N6  UNL     1      -1.713  14.636  18.408  1.00  0.00    -0.337 N 
HETATM   20  C19 UNL     1      -2.629  15.721  18.112  1.00  0.00     0.272 C 
HETATM   21  O5  UNL     1      -3.430  15.333  17.248  1.00  0.00    -0.266 OA
BRANCH  10  22
HETATM   22  C9  UNL     1      -0.794  20.041  20.490  1.00  0.00     0.036 C 
BRANCH  22  23
HETATM   23  C10 UNL     1      -1.695  20.090  21.645  1.00  0.00     0.022 C 
BRANCH  23  24
HETATM   24  C11 UNL     1      -1.310  19.445  22.922  1.00  0.00     0.122 C 
BRANCH  24  25
HETATM   25  N2  UNL     1      -1.964  18.148  23.085  1.00  0.00    -0.367 N 
HETATM   26  C12 UNL     1      -1.376  17.024  22.851  1.00  0.00     0.196 C 
HETATM   27  N3  UNL     1      -0.023  16.950  22.409  1.00  0.00    -0.067 NA
HETATM   28  N4  UNL     1      -2.049  15.786  23.023  1.00  0.00    -0.067 NA
ATOM     29  H2  UNL     1      -2.934  18.130  23.401  1.00  0.00     0.161 HD
ENDBRANCH  24  25
ENDBRANCH  23  24
ENDBRANCH  22  23
ENDBRANCH  10  22
BRANCH  19  30
HETATM   30  C17 UNL     1      -2.216  13.340  18.031  1.00  0.00     0.239 C 
BRANCH  30  31
HETATM   31  C18 UNL     1      -1.467  12.673  16.981  1.00  0.00     0.191 C 
HETATM   32  O3  UNL     1      -1.629  12.947  15.775  1.00  0.00    -0.647 OA
HETATM   33  O4  UNL     1      -0.542  11.704  17.299  1.00  0.00    -0.647 OA
ENDBRANCH  30  31
ENDBRANCH  19  30
ENDBRANCH   5   6
ENDBRANCH   3   4
TORSDOF 8
ENDMDL
