MODEL 1
REMARK VINA RESULT: -7.652132562      0.000      0.000
REMARK  11 active torsions:
REMARK  status: ('A' for Active; 'I' for Inactive)
REMARK    1  A    between atoms: N1_2  and  C2_3 
REMARK    2  A    between atoms: C2_3  and  C3_4 
REMARK    3  A    between atoms: C3_4  and  C4_5 
REMARK    4  A    between atoms: C4_5  and  C5_6 
REMARK    5  A    between atoms: C5_6  and  C6_7 
REMARK    6  A    between atoms: N3_9  and  O1_11 
REMARK    7  A    between atoms: C11_17  and  C12_18 
REMARK       I    between atoms: C12_18  and  N4_20 
REMARK    8  A    between atoms: N4_20  and  C13_22 
REMARK       I    between atoms: N5_25  and  C16_26 
REMARK    9  A    between atoms: C16_26  and  C17_28 
REMARK       I    between atoms: N6_29  and  C18_31 
REMARK   10  A    between atoms: C18_31  and  C19_33 
REMARK   11  A    between atoms: C19_33  and  N7_34 
ROOT
HETATM    1  C12 UNL     1      -3.028  18.593  18.446  1.00  0.00     0.249 C 
HETATM    2  O2  UNL     1      -2.871  19.810  18.042  1.00  0.00    -0.271 OA
HETATM    3  N4  UNL     1      -4.327  18.091  18.273  1.00  0.00    -0.353 N 
ATOM      4  H4  UNL     1      -4.531  17.138  18.574  1.00  0.00     0.163 HD
ENDROOT
BRANCH   1   5
HETATM    5  C11 UNL     1      -1.854  17.962  19.005  1.00  0.00     0.281 C 
HETATM    6  N1  UNL     1      -1.078  17.073  18.221  1.00  0.00    -0.058 N 
HETATM    7  C1  UNL     1      -0.842  17.538  16.867  1.00  0.00     0.273 C 
HETATM    8  C7  UNL     1       0.258  17.077  18.847  1.00  0.00     0.238 C 
HETATM    9  C8  UNL     1       0.260  16.595  20.244  1.00  0.00     0.028 C 
HETATM   10  C9  UNL     1      -0.883  17.112  21.072  1.00  0.00     0.004 C 
HETATM   11  C10 UNL     1      -2.153  17.293  20.344  1.00  0.00     0.043 C 
BRANCH   6  12
HETATM   12  C2  UNL     1      -1.517  15.709  18.182  1.00  0.00     0.238 C 
BRANCH  12  13
HETATM   13  C3  UNL     1      -2.092  15.317  16.856  1.00  0.00     0.028 C 
BRANCH  13  14
HETATM   14  C4  UNL     1      -2.580  13.854  16.901  1.00  0.00     0.009 C 
BRANCH  14  15
HETATM   15  C5  UNL     1      -1.597  13.045  17.708  1.00  0.00     0.075 C 
BRANCH  15  16
HETATM   16  C6  UNL     1      -1.064  11.949  16.843  1.00  0.00     0.113 C 
HETATM   17  N2  UNL     1      -1.732  11.556  15.664  1.00  0.00    -0.086 NA
HETATM   18  N3  UNL     1       0.028  11.366  17.198  1.00  0.00    -0.260 N 
ATOM     19  H3  UNL     1       0.495  11.666  18.053  1.00  0.00     0.195 HD
BRANCH  18  20
HETATM   20  O1  UNL     1       0.579  10.357  16.460  1.00  0.00    -0.289 OA
ATOM     21  H1  UNL     1       0.550   9.452  16.748  1.00  0.00     0.244 HD
ENDBRANCH  18  20
ENDBRANCH  15  16
ENDBRANCH  14  15
ENDBRANCH  13  14
ENDBRANCH  12  13
ENDBRANCH   6  12
ENDBRANCH   1   5
BRANCH   3  22
HETATM   22  C13 UNL     1      -5.402  18.890  17.674  1.00  0.00     0.104 C 
HETATM   23  C14 UNL     1      -6.550  18.872  18.649  1.00  0.00     0.046 C 
HETATM   24  C15 UNL     1      -7.305  17.619  18.225  1.00  0.00     0.128 C 
HETATM   25  N5  UNL     1      -7.274  17.743  16.785  1.00  0.00    -0.345 N 
HETATM   26  C16 UNL     1      -8.320  17.458  15.860  1.00  0.00     0.259 C 
HETATM   27  C20 UNL     1      -5.964  18.220  16.450  1.00  0.00     0.151 C 
HETATM   28  O3  UNL     1      -8.158  17.611  14.626  1.00  0.00    -0.267 OA
BRANCH  26  29
HETATM   29  C17 UNL     1      -9.614  16.975  16.324  1.00  0.00     0.165 C 
HETATM   30  N6  UNL     1     -10.651  17.707  16.416  1.00  0.00    -0.330 N 
HETATM   31  C18 UNL     1     -10.756  19.069  16.103  1.00  0.00     0.247 C 
ATOM     32  H6  UNL     1     -11.499  17.253  16.754  1.00  0.00     0.168 HD
HETATM   33  O4  UNL     1     -10.946  19.424  14.923  1.00  0.00    -0.271 OA
BRANCH  31  34
HETATM   34  C19 UNL     1     -10.642  20.089  17.162  1.00  0.00     0.332 C 
BRANCH  34  35
HETATM   35  N7  UNL     1      -9.333  20.708  17.193  1.00  0.00    -0.071 N 
ATOM     36  H73 UNL     1      -8.634  20.112  16.749  1.00  0.00     0.274 HD
ATOM     37  H72 UNL     1      -9.289  21.509  16.564  1.00  0.00     0.274 HD
ATOM     38  H71 UNL     1      -9.048  20.966  18.139  1.00  0.00     0.274 HD
ENDBRANCH  34  35
ENDBRANCH  31  34
ENDBRANCH  26  29
ENDBRANCH   3  22
TORSDOF 11
ENDMDL
MODEL 2
REMARK VINA RESULT: -7.260914550      1.576      2.081
REMARK  11 active torsions:
REMARK  status: ('A' for Active; 'I' for Inactive)
REMARK    1  A    between atoms: N1_2  and  C2_3 
REMARK    2  A    between atoms: C2_3  and  C3_4 
REMARK    3  A    between atoms: C3_4  and  C4_5 
REMARK    4  A    between atoms: C4_5  and  C5_6 
REMARK    5  A    between atoms: C5_6  and  C6_7 
REMARK    6  A    between atoms: N3_9  and  O1_11 
REMARK    7  A    between atoms: C11_17  and  C12_18 
REMARK       I    between atoms: C12_18  and  N4_20 
REMARK    8  A    between atoms: N4_20  and  C13_22 
REMARK       I    between atoms: N5_25  and  C16_26 
REMARK    9  A    between atoms: C16_26  and  C17_28 
REMARK       I    between atoms: N6_29  and  C18_31 
REMARK   10  A    between atoms: C18_31  and  C19_33 
REMARK   11  A    between atoms: C19_33  and  N7_34 
ROOT
HETATM    1  C12 UNL     1      -3.194  17.359  18.737  1.00  0.00     0.249 C 
HETATM    2  O2  UNL     1      -3.595  16.133  18.662  1.00  0.00    -0.271 OA
HETATM    3  N4  UNL     1      -4.036  18.281  18.095  1.00  0.00    -0.353 N 
ATOM      4  H4  UNL     1      -3.783  19.269  18.106  1.00  0.00     0.163 HD
ENDROOT
BRANCH   1   5
HETATM    5  C11 UNL     1      -1.961  17.572  19.460  1.00  0.00     0.281 C 
HETATM    6  N1  UNL     1      -0.739  17.064  18.955  1.00  0.00    -0.058 N 
HETATM    7  C1  UNL     1      -0.564  17.265  17.529  1.00  0.00     0.273 C 
HETATM    8  C7  UNL     1       0.309  17.899  19.572  1.00  0.00     0.238 C 
HETATM    9  C8  UNL     1       0.339  17.817  21.047  1.00  0.00     0.028 C 
HETATM   10  C9  UNL     1      -1.019  17.837  21.692  1.00  0.00     0.004 C 
HETATM   11  C10 UNL     1      -2.086  17.166  20.926  1.00  0.00     0.043 C 
BRANCH   6  12
HETATM   12  C2  UNL     1      -0.432  15.702  19.280  1.00  0.00     0.238 C 
BRANCH  12  13
HETATM   13  C3  UNL     1      -0.609  14.769  18.122  1.00  0.00     0.028 C 
BRANCH  13  14
HETATM   14  C4  UNL     1      -1.164  13.415  18.610  1.00  0.00     0.009 C 
BRANCH  14  15
HETATM   15  C5  UNL     1      -2.066  12.853  17.541  1.00  0.00     0.075 C 
BRANCH  15  16
HETATM   16  C6  UNL     1      -1.272  11.901  16.706  1.00  0.00     0.113 C 
HETATM   17  N2  UNL     1      -1.693  11.537  15.410  1.00  0.00    -0.086 NA
HETATM   18  N3  UNL     1      -0.184  11.418  17.198  1.00  0.00    -0.260 N 
ATOM     19  H3  UNL     1       0.102  11.695  18.137  1.00  0.00     0.195 HD
BRANCH  18  20
HETATM   20  O1  UNL     1       0.597  10.544  16.498  1.00  0.00    -0.289 OA
ATOM     21  H1  UNL     1       1.423  10.224  16.842  1.00  0.00     0.244 HD
ENDBRANCH  18  20
ENDBRANCH  15  16
ENDBRANCH  14  15
ENDBRANCH  13  14
ENDBRANCH  12  13
ENDBRANCH   6  12
ENDBRANCH   1   5
BRANCH   3  22
HETATM   22  C13 UNL     1      -5.266  17.872  17.408  1.00  0.00     0.104 C 
HETATM   23  C14 UNL     1      -5.536  18.909  16.349  1.00  0.00     0.046 C 
HETATM   24  C15 UNL     1      -6.359  19.936  17.116  1.00  0.00     0.128 C 
HETATM   25  N5  UNL     1      -7.249  19.082  17.868  1.00  0.00    -0.345 N 
HETATM   26  C16 UNL     1      -8.638  19.276  18.126  1.00  0.00     0.259 C 
HETATM   27  C20 UNL     1      -6.460  17.973  18.317  1.00  0.00     0.151 C 
HETATM   28  O3  UNL     1      -9.297  18.449  18.798  1.00  0.00    -0.267 OA
BRANCH  26  29
HETATM   29  C17 UNL     1      -9.333  20.450  17.614  1.00  0.00     0.165 C 
HETATM   30  N6  UNL     1      -9.970  20.470  16.513  1.00  0.00    -0.330 N 
HETATM   31  C18 UNL     1     -10.126  19.414  15.606  1.00  0.00     0.247 C 
ATOM     32  H6  UNL     1     -10.416  21.352  16.263  1.00  0.00     0.168 HD
HETATM   33  O4  UNL     1     -11.019  18.563  15.789  1.00  0.00    -0.271 OA
BRANCH  31  34
HETATM   34  C19 UNL     1      -9.241  19.300  14.432  1.00  0.00     0.332 C 
BRANCH  34  35
HETATM   35  N7  UNL     1      -8.580  18.013  14.362  1.00  0.00    -0.071 N 
ATOM     36  H73 UNL     1      -8.652  17.514  15.249  1.00  0.00     0.274 HD
ATOM     37  H72 UNL     1      -9.097  17.365  13.768  1.00  0.00     0.274 HD
ATOM     38  H71 UNL     1      -7.608  18.092  14.062  1.00  0.00     0.274 HD
ENDBRANCH  34  35
ENDBRANCH  31  34
ENDBRANCH  26  29
ENDBRANCH   3  22
TORSDOF 11
ENDMDL
MODEL 3
REMARK VINA RESULT: -7.156865050      1.237      1.538
REMARK  11 active torsions:
REMARK  status: ('A' for Active; 'I' for Inactive)
REMARK    1  A    between atoms: N1_2  and  C2_3 
REMARK    2  A    between atoms: C2_3  and  C3_4 
REMARK    3  A    between atoms: C3_4  and  C4_5 
REMARK    4  A    between atoms: C4_5  and  C5_6 
REMARK    5  A    between atoms: C5_6  and  C6_7 
REMARK    6  A    between atoms: N3_9  and  O1_11 
REMARK    7  A    between atoms: C11_17  and  C12_18 
REMARK       I    between atoms: C12_18  and  N4_20 
REMARK    8  A    between atoms: N4_20  and  C13_22 
REMARK       I    between atoms: N5_25  and  C16_26 
REMARK    9  A    between atoms: C16_26  and  C17_28 
REMARK       I    between atoms: N6_29  and  C18_31 
REMARK   10  A    between atoms: C18_31  and  C19_33 
REMARK   11  A    between atoms: C19_33  and  N7_34 
ROOT
HETATM    1  C12 UNL     1      -3.308  18.530  19.034  1.00  0.00     0.249 C 
HETATM    2  O2  UNL     1      -3.487  19.660  19.634  1.00  0.00    -0.271 OA
HETATM    3  N4  UNL     1      -4.395  18.116  18.249  1.00  0.00    -0.353 N 
ATOM      4  H4  UNL     1      -4.331  17.230  17.748  1.00  0.00     0.163 HD
ENDROOT
BRANCH   1   5
HETATM    5  C11 UNL     1      -2.035  17.889  19.272  1.00  0.00     0.281 C 
HETATM    6  N1  UNL     1      -1.433  17.098  18.264  1.00  0.00    -0.058 N 
HETATM    7  C1  UNL     1      -1.494  17.688  16.940  1.00  0.00     0.273 C 
HETATM    8  C7  UNL     1       0.006  17.087  18.592  1.00  0.00     0.238 C 
HETATM    9  C8  UNL     1       0.309  16.483  19.906  1.00  0.00     0.028 C 
HETATM   10  C9  UNL     1      -0.639  16.888  21.001  1.00  0.00     0.004 C 
HETATM   11  C10 UNL     1      -2.036  17.093  20.576  1.00  0.00     0.043 C 
BRANCH   6  12
HETATM   12  C2  UNL     1      -1.853  15.729  18.190  1.00  0.00     0.238 C 
BRANCH  12  13
HETATM   13  C3  UNL     1      -2.199  15.298  16.798  1.00  0.00     0.028 C 
BRANCH  13  14
HETATM   14  C4  UNL     1      -2.714  13.844  16.805  1.00  0.00     0.009 C 
BRANCH  14  15
HETATM   15  C5  UNL     1      -1.785  13.010  17.649  1.00  0.00     0.075 C 
BRANCH  15  16
HETATM   16  C6  UNL     1      -1.160  11.969  16.776  1.00  0.00     0.113 C 
HETATM   17  N2  UNL     1      -1.726  11.622  15.532  1.00  0.00    -0.086 NA
HETATM   18  N3  UNL     1      -0.084  11.393  17.187  1.00  0.00    -0.260 N 
ATOM     19  H3  UNL     1       0.309  11.660  18.089  1.00  0.00     0.195 HD
BRANCH  18  20
HETATM   20  O1  UNL     1       0.547  10.434  16.447  1.00  0.00    -0.289 OA
ATOM     21  H1  UNL     1       0.117   9.998  15.720  1.00  0.00     0.244 HD
ENDBRANCH  18  20
ENDBRANCH  15  16
ENDBRANCH  14  15
ENDBRANCH  13  14
ENDBRANCH  12  13
ENDBRANCH   6  12
ENDBRANCH   1   5
BRANCH   3  22
HETATM   22  C13 UNL     1      -5.620  18.914  18.123  1.00  0.00     0.104 C 
HETATM   23  C14 UNL     1      -6.754  17.941  17.935  1.00  0.00     0.046 C 
HETATM   24  C15 UNL     1      -6.768  17.762  16.422  1.00  0.00     0.128 C 
HETATM   25  N5  UNL     1      -6.592  19.125  15.974  1.00  0.00    -0.345 N 
HETATM   26  C16 UNL     1      -7.239  19.778  14.885  1.00  0.00     0.259 C 
HETATM   27  C20 UNL     1      -5.623  19.715  16.850  1.00  0.00     0.151 C 
HETATM   28  O3  UNL     1      -6.992  20.974  14.603  1.00  0.00    -0.267 OA
BRANCH  26  29
HETATM   29  C17 UNL     1      -8.210  19.069  14.062  1.00  0.00     0.165 C 
HETATM   30  N6  UNL     1      -9.454  19.015  14.325  1.00  0.00    -0.330 N 
HETATM   31  C18 UNL     1     -10.116  19.600  15.412  1.00  0.00     0.247 C 
ATOM     32  H6  UNL     1     -10.033  18.487  13.671  1.00  0.00     0.168 HD
HETATM   33  O4  UNL     1     -10.460  20.797  15.361  1.00  0.00    -0.271 OA
BRANCH  31  34
HETATM   34  C19 UNL     1     -10.411  18.809  16.621  1.00  0.00     0.332 C 
BRANCH  34  35
HETATM   35  N7  UNL     1     -10.535  17.394  16.338  1.00  0.00    -0.071 N 
ATOM     36  H73 UNL     1      -9.621  16.939  16.328  1.00  0.00     0.274 HD
ATOM     37  H72 UNL     1     -10.956  16.897  17.123  1.00  0.00     0.274 HD
ATOM     38  H71 UNL     1     -11.044  17.214  15.472  1.00  0.00     0.274 HD
ENDBRANCH  34  35
ENDBRANCH  31  34
ENDBRANCH  26  29
ENDBRANCH   3  22
TORSDOF 11
ENDMDL
MODEL 4
REMARK VINA RESULT: -7.133236048      4.609      9.379
REMARK  11 active torsions:
REMARK  status: ('A' for Active; 'I' for Inactive)
REMARK    1  A    between atoms: N1_2  and  C2_3 
REMARK    2  A    between atoms: C2_3  and  C3_4 
REMARK    3  A    between atoms: C3_4  and  C4_5 
REMARK    4  A    between atoms: C4_5  and  C5_6 
REMARK    5  A    between atoms: C5_6  and  C6_7 
REMARK    6  A    between atoms: N3_9  and  O1_11 
REMARK    7  A    between atoms: C11_17  and  C12_18 
REMARK       I    between atoms: C12_18  and  N4_20 
REMARK    8  A    between atoms: N4_20  and  C13_22 
REMARK       I    between atoms: N5_25  and  C16_26 
REMARK    9  A    between atoms: C16_26  and  C17_28 
REMARK       I    between atoms: N6_29  and  C18_31 
REMARK   10  A    between atoms: C18_31  and  C19_33 
REMARK   11  A    between atoms: C19_33  and  N7_34 
ROOT
HETATM    1  C12 UNL     1      -0.119  17.639  17.943  1.00  0.00     0.249 C 
HETATM    2  O2  UNL     1       0.420  16.712  17.222  1.00  0.00    -0.271 OA
HETATM    3  N4  UNL     1       0.803  18.450  18.622  1.00  0.00    -0.353 N 
ATOM      4  H4  UNL     1       0.453  19.201  19.217  1.00  0.00     0.163 HD
ENDROOT
BRANCH   1   5
HETATM    5  C11 UNL     1      -1.564  17.681  17.932  1.00  0.00     0.281 C 
HETATM    6  N1  UNL     1      -2.307  16.967  18.903  1.00  0.00    -0.058 N 
HETATM    7  C1  UNL     1      -1.780  17.083  20.250  1.00  0.00     0.273 C 
HETATM    8  C7  UNL     1      -3.615  17.649  18.963  1.00  0.00     0.238 C 
HETATM    9  C8  UNL     1      -4.358  17.619  17.687  1.00  0.00     0.028 C 
HETATM   10  C9  UNL     1      -3.507  17.879  16.475  1.00  0.00     0.004 C 
HETATM   11  C10 UNL     1      -2.130  17.356  16.552  1.00  0.00     0.043 C 
BRANCH   6  12
HETATM   12  C2  UNL     1      -2.570  15.587  18.617  1.00  0.00     0.238 C 
BRANCH  12  13
HETATM   13  C3  UNL     1      -1.718  14.651  19.418  1.00  0.00     0.028 C 
BRANCH  13  14
HETATM   14  C4  UNL     1      -0.975  13.677  18.481  1.00  0.00     0.009 C 
BRANCH  14  15
HETATM   15  C5  UNL     1      -1.984  13.019  17.574  1.00  0.00     0.075 C 
BRANCH  15  16
HETATM   16  C6  UNL     1      -1.273  12.009  16.731  1.00  0.00     0.113 C 
HETATM   17  N2  UNL     1      -1.773  11.626  15.469  1.00  0.00    -0.086 NA
HETATM   18  N3  UNL     1      -0.183  11.493  17.184  1.00  0.00    -0.260 N 
ATOM     19  H3  UNL     1       0.161  11.785  18.099  1.00  0.00     0.195 HD
BRANCH  18  20
HETATM   20  O1  UNL     1       0.524  10.566  16.474  1.00  0.00    -0.289 OA
ATOM     21  H1  UNL     1       1.051  10.807  15.721  1.00  0.00     0.244 HD
ENDBRANCH  18  20
ENDBRANCH  15  16
ENDBRANCH  14  15
ENDBRANCH  13  14
ENDBRANCH  12  13
ENDBRANCH   6  12
ENDBRANCH   1   5
BRANCH   3  22
HETATM   22  C13 UNL     1       2.252  18.256  18.504  1.00  0.00     0.104 C 
HETATM   23  C14 UNL     1       2.731  17.746  19.839  1.00  0.00     0.046 C 
HETATM   24  C15 UNL     1       3.010  19.041  20.590  1.00  0.00     0.128 C 
HETATM   25  N5  UNL     1       3.673  19.822  19.571  1.00  0.00    -0.345 N 
HETATM   26  C16 UNL     1       4.802  20.680  19.722  1.00  0.00     0.259 C 
HETATM   27  C20 UNL     1       2.970  19.568  18.348  1.00  0.00     0.151 C 
HETATM   28  O3  UNL     1       5.281  21.304  18.746  1.00  0.00    -0.267 OA
BRANCH  26  29
HETATM   29  C17 UNL     1       5.433  20.859  21.023  1.00  0.00     0.165 C 
HETATM   30  N6  UNL     1       5.330  21.919  21.719  1.00  0.00    -0.330 N 
HETATM   31  C18 UNL     1       4.620  23.082  21.391  1.00  0.00     0.247 C 
ATOM     32  H6  UNL     1       5.818  21.923  22.614  1.00  0.00     0.168 HD
HETATM   33  O4  UNL     1       3.395  23.146  21.613  1.00  0.00    -0.271 OA
BRANCH  31  34
HETATM   34  C19 UNL     1       5.311  24.233  20.783  1.00  0.00     0.332 C 
BRANCH  34  35
HETATM   35  N7  UNL     1       6.523  23.846  20.091  1.00  0.00    -0.071 N 
ATOM     36  H73 UNL     1       7.050  23.157  20.628  1.00  0.00     0.274 HD
ATOM     37  H72 UNL     1       6.312  23.284  19.266  1.00  0.00     0.274 HD
ATOM     38  H71 UNL     1       7.106  24.648  19.850  1.00  0.00     0.274 HD
ENDBRANCH  34  35
ENDBRANCH  31  34
ENDBRANCH  26  29
ENDBRANCH   3  22
TORSDOF 11
ENDMDL
MODEL 5
REMARK VINA RESULT: -6.993032179      4.804      8.434
REMARK  11 active torsions:
REMARK  status: ('A' for Active; 'I' for Inactive)
REMARK    1  A    between atoms: N1_2  and  C2_3 
REMARK    2  A    between atoms: C2_3  and  C3_4 
REMARK    3  A    between atoms: C3_4  and  C4_5 
REMARK    4  A    between atoms: C4_5  and  C5_6 
REMARK    5  A    between atoms: C5_6  and  C6_7 
REMARK    6  A    between atoms: N3_9  and  O1_11 
REMARK    7  A    between atoms: C11_17  and  C12_18 
REMARK       I    between atoms: C12_18  and  N4_20 
REMARK    8  A    between atoms: N4_20  and  C13_22 
REMARK       I    between atoms: N5_25  and  C16_26 
REMARK    9  A    between atoms: C16_26  and  C17_28 
REMARK       I    between atoms: N6_29  and  C18_31 
REMARK   10  A    between atoms: C18_31  and  C19_33 
REMARK   11  A    between atoms: C19_33  and  N7_34 
ROOT
HETATM    1  C12 UNL     1      -0.073  18.542  17.603  1.00  0.00     0.249 C 
HETATM    2  O2  UNL     1       0.297  19.351  18.540  1.00  0.00    -0.271 OA
HETATM    3  N4  UNL     1       0.813  18.478  16.516  1.00  0.00    -0.353 N 
ATOM      4  H4  UNL     1       0.587  17.865  15.733  1.00  0.00     0.163 HD
ENDROOT
BRANCH   1   5
HETATM    5  C11 UNL     1      -1.321  17.851  17.827  1.00  0.00     0.281 C 
HETATM    6  N1  UNL     1      -1.355  16.670  18.608  1.00  0.00    -0.058 N 
HETATM    7  C1  UNL     1      -0.560  16.744  19.820  1.00  0.00     0.273 C 
HETATM    8  C7  UNL     1      -2.746  16.567  19.090  1.00  0.00     0.238 C 
HETATM    9  C8  UNL     1      -3.740  16.441  18.004  1.00  0.00     0.028 C 
HETATM   10  C9  UNL     1      -3.489  17.348  16.832  1.00  0.00     0.004 C 
HETATM   11  C10 UNL     1      -2.067  17.589  16.521  1.00  0.00     0.043 C 
BRANCH   6  12
HETATM   12  C2  UNL     1      -1.059  15.445  17.925  1.00  0.00     0.238 C 
BRANCH  12  13
HETATM   13  C3  UNL     1      -0.415  14.422  18.810  1.00  0.00     0.028 C 
BRANCH  13  14
HETATM   14  C4  UNL     1      -1.258  13.130  18.829  1.00  0.00     0.009 C 
BRANCH  14  15
HETATM   15  C5  UNL     1      -1.965  13.000  17.504  1.00  0.00     0.075 C 
BRANCH  15  16
HETATM   16  C6  UNL     1      -1.257  11.964  16.691  1.00  0.00     0.113 C 
HETATM   17  N2  UNL     1      -1.751  11.554  15.435  1.00  0.00    -0.086 NA
HETATM   18  N3  UNL     1      -0.176  11.449  17.165  1.00  0.00    -0.260 N 
ATOM     19  H3  UNL     1       0.164  11.760  18.075  1.00  0.00     0.195 HD
BRANCH  18  20
HETATM   20  O1  UNL     1       0.529  10.499  16.483  1.00  0.00    -0.289 OA
ATOM     21  H1  UNL     1       1.166  10.729  15.816  1.00  0.00     0.244 HD
ENDBRANCH  18  20
ENDBRANCH  15  16
ENDBRANCH  14  15
ENDBRANCH  13  14
ENDBRANCH  12  13
ENDBRANCH   6  12
ENDBRANCH   1   5
BRANCH   3  22
HETATM   22  C13 UNL     1       2.053  19.261  16.468  1.00  0.00     0.104 C 
HETATM   23  C14 UNL     1       1.664  20.664  16.080  1.00  0.00     0.046 C 
HETATM   24  C15 UNL     1       1.702  20.593  14.559  1.00  0.00     0.128 C 
HETATM   25  N5  UNL     1       2.918  19.842  14.341  1.00  0.00    -0.345 N 
HETATM   26  C16 UNL     1       3.913  20.058  13.344  1.00  0.00     0.259 C 
HETATM   27  C20 UNL     1       2.940  18.813  15.339  1.00  0.00     0.151 C 
HETATM   28  O3  UNL     1       4.928  19.326  13.266  1.00  0.00    -0.267 OA
BRANCH  26  29
HETATM   29  C17 UNL     1       3.777  21.141  12.379  1.00  0.00     0.165 C 
HETATM   30  N6  UNL     1       3.158  21.029  11.273  1.00  0.00    -0.330 N 
HETATM   31  C18 UNL     1       2.507  19.892  10.778  1.00  0.00     0.247 C 
ATOM     32  H6  UNL     1       3.132  21.860  10.682  1.00  0.00     0.168 HD
HETATM   33  O4  UNL     1       1.343  19.633  11.140  1.00  0.00    -0.271 OA
BRANCH  31  34
HETATM   34  C19 UNL     1       3.191  18.994   9.828  1.00  0.00     0.332 C 
BRANCH  34  35
HETATM   35  N7  UNL     1       3.031  19.421   8.453  1.00  0.00    -0.071 N 
ATOM     36  H73 UNL     1       2.602  18.687   7.888  1.00  0.00     0.274 HD
ATOM     37  H72 UNL     1       2.307  20.135   8.372  1.00  0.00     0.274 HD
ATOM     38  H71 UNL     1       3.909  19.737   8.040  1.00  0.00     0.274 HD
ENDBRANCH  34  35
ENDBRANCH  31  34
ENDBRANCH  26  29
ENDBRANCH   3  22
TORSDOF 11
ENDMDL
