MODEL 1
REMARK VINA RESULT: -7.314957407      0.000      0.000
REMARK  11 active torsions:
REMARK  status: ('A' for Active; 'I' for Inactive)
REMARK    1  A    between atoms: C2_2  and  N1_3 
REMARK       I    between atoms: C3_5  and  N2_6 
REMARK       I    between atoms: C3_5  and  N9_31 
REMARK    2  A    between atoms: N2_6  and  C4_8 
REMARK    3  A    between atoms: C4_8  and  C5_9 
REMARK    4  A    between atoms: C5_9  and  C6_10 
REMARK       I    between atoms: C6_10  and  N3_12 
REMARK    5  A    between atoms: N4_15  and  C9_16 
REMARK    6  A    between atoms: C9_16  and  O2_17 
REMARK    7  A    between atoms: C9_16  and  C10_19 
REMARK    8  A    between atoms: C10_19  and  C11_21 
REMARK    9  A    between atoms: C11_21  and  C12_22 
REMARK   10  A    between atoms: C12_22  and  C13_23 
REMARK   11  A    between atoms: C13_23  and  N6_24 
ROOT
HETATM    1  C6  UNL     1       2.536  20.029  16.669  1.00  0.00     0.221 C 
HETATM    2  O1  UNL     1       1.933  20.555  15.681  1.00  0.00    -0.273 OA
HETATM    3  N3  UNL     1       1.781  19.684  17.816  1.00  0.00    -0.349 N 
HETATM    4  C7  UNL     1       2.463  19.090  18.933  1.00  0.00     0.145 C 
HETATM    5  C8  UNL     1       1.457  18.861  20.039  1.00  0.00     0.145 C 
HETATM    6  N4  UNL     1       0.384  18.057  19.401  1.00  0.00    -0.358 N 
HETATM    7  C15 UNL     1      -0.410  18.742  18.413  1.00  0.00     0.145 C 
HETATM    8  C16 UNL     1       0.371  19.927  17.858  1.00  0.00     0.145 C 
ENDROOT
BRANCH   1   9
HETATM    9  C5  UNL     1       4.004  19.795  16.581  1.00  0.00     0.123 C 
BRANCH   9  10
HETATM   10  C4  UNL     1       4.301  19.119  15.288  1.00  0.00     0.147 C 
BRANCH  10  11
HETATM   11  N2  UNL     1       4.899  19.953  14.296  1.00  0.00    -0.226 N 
HETATM   12  C3  UNL     1       4.902  19.515  12.952  1.00  0.00     0.671 C 
HETATM   13  N1  UNL     1       5.928  18.915  12.488  1.00  0.00    -0.227 N 
HETATM   14  N9  UNL     1       3.786  19.727  12.113  1.00  0.00    -0.218 N 
ATOM     15  H1  UNL     1       5.934  18.596  11.520  1.00  0.00     0.177 HD
HETATM   16  C17 UNL     1       3.829  20.369  10.824  1.00  0.00     0.141 C 
HETATM   17  C20 UNL     1       2.408  19.341  12.388  1.00  0.00     0.141 C 
HETATM   18  C18 UNL     1       2.788  19.541  10.058  1.00  0.00     0.022 C 
HETATM   19  C19 UNL     1       1.672  19.472  11.077  1.00  0.00     0.022 C 
ATOM     20  H2  UNL     1       5.316  20.847  14.551  1.00  0.00     0.177 HD
BRANCH  13  21
HETATM   21  C2  UNL     1       7.072  18.688  13.319  1.00  0.00     0.133 C 
HETATM   22  C1  UNL     1       8.178  18.116  12.453  1.00  0.00     0.027 C 
ENDBRANCH  13  21
ENDBRANCH  10  11
ENDBRANCH   9  10
ENDBRANCH   1   9
BRANCH   6  23
HETATM   23  C9  UNL     1       0.246  16.731  19.772  1.00  0.00     0.158 C 
BRANCH  23  24
HETATM   24  O2  UNL     1       1.244  16.200  20.428  1.00  0.00    -0.345 OA
ATOM     25  H2  UNL     1       1.213  15.260  20.561  1.00  0.00     0.219 HD
ENDBRANCH  23  24
BRANCH  23  26
HETATM   26  C10 UNL     1      -0.854  15.802  19.543  1.00  0.00     0.074 C 
HETATM   27  N5  UNL     1      -1.688  15.500  20.620  1.00  0.00    -0.103 NA
BRANCH  26  28
HETATM   28  C11 UNL     1      -0.585  14.727  18.543  1.00  0.00     0.060 C 
BRANCH  28  29
HETATM   29  C12 UNL     1      -0.579  13.312  18.914  1.00  0.00     0.025 C 
BRANCH  29  30
HETATM   30  C13 UNL     1      -1.659  12.460  18.351  1.00  0.00     0.122 C 
BRANCH  30  31
HETATM   31  N6  UNL     1      -2.175  12.873  17.100  1.00  0.00    -0.367 N 
HETATM   32  C14 UNL     1      -1.851  12.263  16.021  1.00  0.00     0.196 C 
HETATM   33  N7  UNL     1      -2.349  12.649  14.742  1.00  0.00    -0.067 NA
HETATM   34  N8  UNL     1      -0.964  11.160  16.091  1.00  0.00    -0.067 NA
ATOM     35  H6  UNL     1      -2.813  13.668  17.057  1.00  0.00     0.161 HD
ENDBRANCH  30  31
ENDBRANCH  29  30
ENDBRANCH  28  29
ENDBRANCH  26  28
ENDBRANCH  23  26
ENDBRANCH   6  23
TORSDOF 11
ENDMDL
MODEL 2
REMARK VINA RESULT: -7.290899758      2.043      2.914
REMARK  11 active torsions:
REMARK  status: ('A' for Active; 'I' for Inactive)
REMARK    1  A    between atoms: C2_2  and  N1_3 
REMARK       I    between atoms: C3_5  and  N2_6 
REMARK       I    between atoms: C3_5  and  N9_31 
REMARK    2  A    between atoms: N2_6  and  C4_8 
REMARK    3  A    between atoms: C4_8  and  C5_9 
REMARK    4  A    between atoms: C5_9  and  C6_10 
REMARK       I    between atoms: C6_10  and  N3_12 
REMARK    5  A    between atoms: N4_15  and  C9_16 
REMARK    6  A    between atoms: C9_16  and  O2_17 
REMARK    7  A    between atoms: C9_16  and  C10_19 
REMARK    8  A    between atoms: C10_19  and  C11_21 
REMARK    9  A    between atoms: C11_21  and  C12_22 
REMARK   10  A    between atoms: C12_22  and  C13_23 
REMARK   11  A    between atoms: C13_23  and  N6_24 
ROOT
HETATM    1  C6  UNL     1       1.916  19.680  16.931  1.00  0.00     0.221 C 
HETATM    2  O1  UNL     1       1.604  20.879  16.647  1.00  0.00    -0.273 OA
HETATM    3  N3  UNL     1       1.925  19.289  18.292  1.00  0.00    -0.349 N 
HETATM    4  C7  UNL     1       2.278  17.934  18.614  1.00  0.00     0.145 C 
HETATM    5  C8  UNL     1       2.260  17.780  20.119  1.00  0.00     0.145 C 
HETATM    6  N4  UNL     1       0.904  18.235  20.519  1.00  0.00    -0.358 N 
HETATM    7  C15 UNL     1       0.642  19.643  20.359  1.00  0.00     0.145 C 
HETATM    8  C16 UNL     1       1.591  20.228  19.320  1.00  0.00     0.145 C 
ENDROOT
BRANCH   1   9
HETATM    9  C5  UNL     1       2.257  18.739  15.829  1.00  0.00     0.123 C 
BRANCH   9  10
HETATM   10  C4  UNL     1       3.702  18.893  15.504  1.00  0.00     0.147 C 
BRANCH  10  11
HETATM   11  N2  UNL     1       4.046  20.114  14.850  1.00  0.00    -0.226 N 
HETATM   12  C3  UNL     1       5.408  20.477  14.760  1.00  0.00     0.671 C 
HETATM   13  N1  UNL     1       5.906  21.272  15.625  1.00  0.00    -0.227 N 
HETATM   14  N9  UNL     1       6.232  19.973  13.729  1.00  0.00    -0.218 N 
ATOM     15  H1  UNL     1       6.888  21.535  15.565  1.00  0.00     0.177 HD
HETATM   16  C17 UNL     1       7.023  20.777  12.833  1.00  0.00     0.141 C 
HETATM   17  C20 UNL     1       6.432  18.571  13.386  1.00  0.00     0.141 C 
HETATM   18  C18 UNL     1       8.268  19.892  12.680  1.00  0.00     0.022 C 
HETATM   19  C19 UNL     1       7.630  18.536  12.469  1.00  0.00     0.022 C 
ATOM     20  H2  UNL     1       3.321  20.713  14.454  1.00  0.00     0.177 HD
BRANCH  13  21
HETATM   21  C2  UNL     1       5.092  21.796  16.680  1.00  0.00     0.133 C 
HETATM   22  C1  UNL     1       5.466  21.082  17.964  1.00  0.00     0.027 C 
ENDBRANCH  13  21
ENDBRANCH  10  11
ENDBRANCH   9  10
ENDBRANCH   1   9
BRANCH   6  23
HETATM   23  C9  UNL     1       0.002  17.292  20.979  1.00  0.00     0.158 C 
BRANCH  23  24
HETATM   24  O2  UNL     1       0.207  16.823  22.181  1.00  0.00    -0.345 OA
ATOM     25  H2  UNL     1      -0.170  15.973  22.376  1.00  0.00     0.219 HD
ENDBRANCH  23  24
BRANCH  23  26
HETATM   26  C10 UNL     1      -1.168  16.716  20.325  1.00  0.00     0.074 C 
HETATM   27  N5  UNL     1      -1.845  15.691  20.985  1.00  0.00    -0.103 NA
BRANCH  26  28
HETATM   28  C11 UNL     1      -1.108  16.670  18.835  1.00  0.00     0.060 C 
BRANCH  28  29
HETATM   29  C12 UNL     1      -0.858  15.424  18.110  1.00  0.00     0.025 C 
BRANCH  29  30
HETATM   30  C13 UNL     1      -2.045  14.638  17.685  1.00  0.00     0.122 C 
BRANCH  30  31
HETATM   31  N6  UNL     1      -1.831  13.739  16.612  1.00  0.00    -0.367 N 
HETATM   32  C14 UNL     1      -1.782  12.475  16.812  1.00  0.00     0.196 C 
HETATM   33  N7  UNL     1      -1.568  11.539  15.759  1.00  0.00    -0.067 NA
HETATM   34  N8  UNL     1      -1.946  11.978  18.130  1.00  0.00    -0.067 NA
ATOM     35  H6  UNL     1      -1.714  14.104  15.667  1.00  0.00     0.161 HD
ENDBRANCH  30  31
ENDBRANCH  29  30
ENDBRANCH  28  29
ENDBRANCH  26  28
ENDBRANCH  23  26
ENDBRANCH   6  23
TORSDOF 11
ENDMDL
MODEL 3
REMARK VINA RESULT: -6.973407981      1.457      1.889
REMARK  11 active torsions:
REMARK  status: ('A' for Active; 'I' for Inactive)
REMARK    1  A    between atoms: C2_2  and  N1_3 
REMARK       I    between atoms: C3_5  and  N2_6 
REMARK       I    between atoms: C3_5  and  N9_31 
REMARK    2  A    between atoms: N2_6  and  C4_8 
REMARK    3  A    between atoms: C4_8  and  C5_9 
REMARK    4  A    between atoms: C5_9  and  C6_10 
REMARK       I    between atoms: C6_10  and  N3_12 
REMARK    5  A    between atoms: N4_15  and  C9_16 
REMARK    6  A    between atoms: C9_16  and  O2_17 
REMARK    7  A    between atoms: C9_16  and  C10_19 
REMARK    8  A    between atoms: C10_19  and  C11_21 
REMARK    9  A    between atoms: C11_21  and  C12_22 
REMARK   10  A    between atoms: C12_22  and  C13_23 
REMARK   11  A    between atoms: C13_23  and  N6_24 
ROOT
HETATM    1  C6  UNL     1       2.040  19.714  16.697  1.00  0.00     0.221 C 
HETATM    2  O1  UNL     1       1.387  20.656  16.147  1.00  0.00    -0.273 OA
HETATM    3  N3  UNL     1       1.845  19.473  18.079  1.00  0.00    -0.349 N 
HETATM    4  C7  UNL     1       2.583  18.410  18.701  1.00  0.00     0.145 C 
HETATM    5  C8  UNL     1       2.238  18.386  20.174  1.00  0.00     0.145 C 
HETATM    6  N4  UNL     1       0.756  18.284  20.203  1.00  0.00    -0.358 N 
HETATM    7  C15 UNL     1       0.038  19.446  19.746  1.00  0.00     0.145 C 
HETATM    8  C16 UNL     1       0.933  20.278  18.834  1.00  0.00     0.145 C 
ENDROOT
BRANCH   1   9
HETATM    9  C5  UNL     1       2.979  18.904  15.872  1.00  0.00     0.123 C 
BRANCH   9  10
HETATM   10  C4  UNL     1       2.727  19.204  14.435  1.00  0.00     0.147 C 
BRANCH  10  11
HETATM   11  N2  UNL     1       3.498  20.279  13.900  1.00  0.00    -0.226 N 
HETATM   12  C3  UNL     1       4.345  20.025  12.798  1.00  0.00     0.671 C 
HETATM   13  N1  UNL     1       5.579  19.773  12.997  1.00  0.00    -0.227 N 
HETATM   14  N9  UNL     1       3.847  20.042  11.475  1.00  0.00    -0.218 N 
ATOM     15  H1  UNL     1       6.194  19.588  12.205  1.00  0.00     0.177 HD
HETATM   16  C17 UNL     1       4.390  20.826  10.396  1.00  0.00     0.141 C 
HETATM   17  C20 UNL     1       2.713  19.282  10.966  1.00  0.00     0.141 C 
HETATM   18  C18 UNL     1       4.208  19.857   9.220  1.00  0.00     0.022 C 
HETATM   19  C19 UNL     1       2.793  19.376   9.462  1.00  0.00     0.022 C 
ATOM     20  H2  UNL     1       3.439  21.213  14.305  1.00  0.00     0.177 HD
BRANCH  13  21
HETATM   21  C2  UNL     1       6.108  19.750  14.328  1.00  0.00     0.133 C 
HETATM   22  C1  UNL     1       6.509  18.323  14.651  1.00  0.00     0.027 C 
ENDBRANCH  13  21
ENDBRANCH  10  11
ENDBRANCH   9  10
ENDBRANCH   1   9
BRANCH   6  23
HETATM   23  C9  UNL     1       0.187  17.097  20.630  1.00  0.00     0.158 C 
BRANCH  23  24
HETATM   24  O2  UNL     1       0.948  16.036  20.590  1.00  0.00    -0.345 OA
ATOM     25  H2  UNL     1       1.260  15.704  21.423  1.00  0.00     0.219 HD
ENDBRANCH  23  24
BRANCH  23  26
HETATM   26  C10 UNL     1      -1.157  16.826  21.126  1.00  0.00     0.074 C 
HETATM   27  N5  UNL     1      -1.302  16.503  22.475  1.00  0.00    -0.103 NA
BRANCH  26  28
HETATM   28  C11 UNL     1      -2.080  16.179  20.148  1.00  0.00     0.060 C 
BRANCH  28  29
HETATM   29  C12 UNL     1      -2.026  16.482  18.718  1.00  0.00     0.025 C 
BRANCH  29  30
HETATM   30  C13 UNL     1      -1.233  15.564  17.861  1.00  0.00     0.122 C 
BRANCH  30  31
HETATM   31  N6  UNL     1      -1.803  14.287  17.642  1.00  0.00    -0.367 N 
HETATM   32  C14 UNL     1      -1.341  13.250  18.234  1.00  0.00     0.196 C 
HETATM   33  N7  UNL     1      -1.887  11.948  18.040  1.00  0.00    -0.067 NA
HETATM   34  N8  UNL     1      -0.244  13.393  19.121  1.00  0.00    -0.067 NA
ATOM     35  H6  UNL     1      -2.592  14.192  17.003  1.00  0.00     0.161 HD
ENDBRANCH  30  31
ENDBRANCH  29  30
ENDBRANCH  28  29
ENDBRANCH  26  28
ENDBRANCH  23  26
ENDBRANCH   6  23
TORSDOF 11
ENDMDL
MODEL 4
REMARK VINA RESULT: -6.970367729      1.723      2.066
REMARK  11 active torsions:
REMARK  status: ('A' for Active; 'I' for Inactive)
REMARK    1  A    between atoms: C2_2  and  N1_3 
REMARK       I    between atoms: C3_5  and  N2_6 
REMARK       I    between atoms: C3_5  and  N9_31 
REMARK    2  A    between atoms: N2_6  and  C4_8 
REMARK    3  A    between atoms: C4_8  and  C5_9 
REMARK    4  A    between atoms: C5_9  and  C6_10 
REMARK       I    between atoms: C6_10  and  N3_12 
REMARK    5  A    between atoms: N4_15  and  C9_16 
REMARK    6  A    between atoms: C9_16  and  O2_17 
REMARK    7  A    between atoms: C9_16  and  C10_19 
REMARK    8  A    between atoms: C10_19  and  C11_21 
REMARK    9  A    between atoms: C11_21  and  C12_22 
REMARK   10  A    between atoms: C12_22  and  C13_23 
REMARK   11  A    between atoms: C13_23  and  N6_24 
ROOT
HETATM    1  C6  UNL     1       1.671  19.942  15.043  1.00  0.00     0.221 C 
HETATM    2  O1  UNL     1       1.141  20.871  14.356  1.00  0.00    -0.273 OA
HETATM    3  N3  UNL     1       0.998  19.494  16.206  1.00  0.00    -0.349 N 
HETATM    4  C7  UNL     1       1.596  18.445  16.984  1.00  0.00     0.145 C 
HETATM    5  C8  UNL     1       0.718  18.182  18.187  1.00  0.00     0.145 C 
HETATM    6  N4  UNL     1      -0.624  17.910  17.612  1.00  0.00    -0.358 N 
HETATM    7  C15 UNL     1      -1.283  19.035  17.000  1.00  0.00     0.145 C 
HETATM    8  C16 UNL     1      -0.250  20.079  16.594  1.00  0.00     0.145 C 
ENDROOT
BRANCH   1   9
HETATM    9  C5  UNL     1       2.970  19.364  14.603  1.00  0.00     0.123 C 
BRANCH   9  10
HETATM   10  C4  UNL     1       3.090  19.537  13.128  1.00  0.00     0.147 C 
BRANCH  10  11
HETATM   11  N2  UNL     1       4.120  20.434  12.709  1.00  0.00    -0.226 N 
HETATM   12  C3  UNL     1       5.184  19.929  11.930  1.00  0.00     0.671 C 
HETATM   13  N1  UNL     1       6.273  19.585  12.499  1.00  0.00    -0.227 N 
HETATM   14  N9  UNL     1       5.063  19.794  10.528  1.00  0.00    -0.218 N 
ATOM     15  H1  UNL     1       7.043  19.219  11.940  1.00  0.00     0.177 HD
HETATM   16  C17 UNL     1       5.978  20.344   9.561  1.00  0.00     0.141 C 
HETATM   17  C20 UNL     1       4.010  19.086   9.813  1.00  0.00     0.141 C 
HETATM   18  C18 UNL     1       5.981  19.231   8.505  1.00  0.00     0.022 C 
HETATM   19  C19 UNL     1       4.500  18.941   8.392  1.00  0.00     0.022 C 
ATOM     20  H2  UNL     1       4.088  21.420  12.968  1.00  0.00     0.177 HD
BRANCH  13  21
HETATM   21  C2  UNL     1       6.420  19.711  13.917  1.00  0.00     0.133 C 
HETATM   22  C1  UNL     1       6.540  18.318  14.505  1.00  0.00     0.027 C 
ENDBRANCH  13  21
ENDBRANCH  10  11
ENDBRANCH   9  10
ENDBRANCH   1   9
BRANCH   6  23
HETATM   23  C9  UNL     1      -1.118  16.619  17.676  1.00  0.00     0.158 C 
BRANCH  23  24
HETATM   24  O2  UNL     1      -1.360  16.028  16.536  1.00  0.00    -0.345 OA
ATOM     25  H2  UNL     1      -0.772  16.232  15.818  1.00  0.00     0.219 HD
ENDBRANCH  23  24
BRANCH  23  26
HETATM   26  C10 UNL     1      -1.426  15.789  18.835  1.00  0.00     0.074 C 
HETATM   27  N5  UNL     1      -1.770  16.430  20.024  1.00  0.00    -0.103 NA
BRANCH  26  28
HETATM   28  C11 UNL     1      -0.662  14.509  18.924  1.00  0.00     0.060 C 
BRANCH  28  29
HETATM   29  C12 UNL     1      -1.301  13.257  19.328  1.00  0.00     0.025 C 
BRANCH  29  30
HETATM   30  C13 UNL     1      -1.691  12.315  18.246  1.00  0.00     0.122 C 
BRANCH  30  31
HETATM   31  N6  UNL     1      -2.141  12.915  17.046  1.00  0.00    -0.367 N 
HETATM   32  C14 UNL     1      -1.922  12.363  15.911  1.00  0.00     0.196 C 
HETATM   33  N7  UNL     1      -2.359  12.935  14.682  1.00  0.00    -0.067 NA
HETATM   34  N8  UNL     1      -1.218  11.133  15.867  1.00  0.00    -0.067 NA
ATOM     35  H6  UNL     1      -2.647  13.800  17.086  1.00  0.00     0.161 HD
ENDBRANCH  30  31
ENDBRANCH  29  30
ENDBRANCH  28  29
ENDBRANCH  26  28
ENDBRANCH  23  26
ENDBRANCH   6  23
TORSDOF 11
ENDMDL
MODEL 5
REMARK VINA RESULT: -6.960941102      1.507      1.903
REMARK  11 active torsions:
REMARK  status: ('A' for Active; 'I' for Inactive)
REMARK    1  A    between atoms: C2_2  and  N1_3 
REMARK       I    between atoms: C3_5  and  N2_6 
REMARK       I    between atoms: C3_5  and  N9_31 
REMARK    2  A    between atoms: N2_6  and  C4_8 
REMARK    3  A    between atoms: C4_8  and  C5_9 
REMARK    4  A    between atoms: C5_9  and  C6_10 
REMARK       I    between atoms: C6_10  and  N3_12 
REMARK    5  A    between atoms: N4_15  and  C9_16 
REMARK    6  A    between atoms: C9_16  and  O2_17 
REMARK    7  A    between atoms: C9_16  and  C10_19 
REMARK    8  A    between atoms: C10_19  and  C11_21 
REMARK    9  A    between atoms: C11_21  and  C12_22 
REMARK   10  A    between atoms: C12_22  and  C13_23 
REMARK   11  A    between atoms: C13_23  and  N6_24 
ROOT
HETATM    1  C6  UNL     1       2.455  19.999  16.705  1.00  0.00     0.221 C 
HETATM    2  O1  UNL     1       1.848  20.529  15.721  1.00  0.00    -0.273 OA
HETATM    3  N3  UNL     1       1.699  19.625  17.843  1.00  0.00    -0.349 N 
HETATM    4  C7  UNL     1       2.385  19.028  18.955  1.00  0.00     0.145 C 
HETATM    5  C8  UNL     1       1.377  18.766  20.052  1.00  0.00     0.145 C 
HETATM    6  N4  UNL     1       0.322  17.952  19.397  1.00  0.00    -0.358 N 
HETATM    7  C15 UNL     1      -0.478  18.637  18.413  1.00  0.00     0.145 C 
HETATM    8  C16 UNL     1       0.285  19.844  17.879  1.00  0.00     0.145 C 
ENDROOT
BRANCH   1   9
HETATM    9  C5  UNL     1       3.927  19.793  16.623  1.00  0.00     0.123 C 
BRANCH   9  10
HETATM   10  C4  UNL     1       4.241  19.119  15.332  1.00  0.00     0.147 C 
BRANCH  10  11
HETATM   11  N2  UNL     1       4.832  19.961  14.342  1.00  0.00    -0.226 N 
HETATM   12  C3  UNL     1       4.845  19.524  12.998  1.00  0.00     0.671 C 
HETATM   13  N1  UNL     1       5.880  18.937  12.538  1.00  0.00    -0.227 N 
HETATM   14  N9  UNL     1       3.728  19.721  12.155  1.00  0.00    -0.218 N 
ATOM     15  H1  UNL     1       5.893  18.619  11.569  1.00  0.00     0.177 HD
HETATM   16  C17 UNL     1       3.767  20.364  10.867  1.00  0.00     0.141 C 
HETATM   17  C20 UNL     1       2.355  19.318  12.426  1.00  0.00     0.141 C 
HETATM   18  C18 UNL     1       2.740  19.523  10.097  1.00  0.00     0.022 C 
HETATM   19  C19 UNL     1       1.621  19.439  11.112  1.00  0.00     0.022 C 
ATOM     20  H2  UNL     1       5.236  20.861  14.599  1.00  0.00     0.177 HD
BRANCH  13  21
HETATM   21  C2  UNL     1       7.024  18.725  13.372  1.00  0.00     0.133 C 
HETATM   22  C1  UNL     1       8.125  18.124  12.520  1.00  0.00     0.027 C 
ENDBRANCH  13  21
ENDBRANCH  10  11
ENDBRANCH   9  10
ENDBRANCH   1   9
BRANCH   6  23
HETATM   23  C9  UNL     1       0.205  16.619  19.748  1.00  0.00     0.158 C 
BRANCH  23  24
HETATM   24  O2  UNL     1       1.183  16.112  20.452  1.00  0.00    -0.345 OA
ATOM     25  H2  UNL     1       0.972  15.837  21.336  1.00  0.00     0.219 HD
ENDBRANCH  23  24
BRANCH  23  26
HETATM   26  C10 UNL     1      -0.853  15.660  19.453  1.00  0.00     0.074 C 
HETATM   27  N5  UNL     1      -1.702  15.284  20.493  1.00  0.00    -0.103 NA
BRANCH  26  28
HETATM   28  C11 UNL     1      -0.517  14.637  18.419  1.00  0.00     0.060 C 
BRANCH  28  29
HETATM   29  C12 UNL     1      -1.548  13.826  17.772  1.00  0.00     0.025 C 
BRANCH  29  30
HETATM   30  C13 UNL     1      -2.765  14.532  17.295  1.00  0.00     0.122 C 
BRANCH  30  31
HETATM   31  N6  UNL     1      -2.539  15.593  16.386  1.00  0.00    -0.367 N 
HETATM   32  C14 UNL     1      -3.056  16.749  16.582  1.00  0.00     0.196 C 
HETATM   33  N7  UNL     1      -2.852  17.842  15.692  1.00  0.00    -0.067 NA
HETATM   34  N8  UNL     1      -3.862  16.959  17.730  1.00  0.00    -0.067 NA
ATOM     35  H6  UNL     1      -1.958  15.435  15.563  1.00  0.00     0.161 HD
ENDBRANCH  30  31
ENDBRANCH  29  30
ENDBRANCH  28  29
ENDBRANCH  26  28
ENDBRANCH  23  26
ENDBRANCH   6  23
TORSDOF 11
ENDMDL
