MODEL 1
REMARK VINA RESULT: -3.727690314      0.000      0.000
REMARK  1 active torsions:
REMARK  status: ('A' for Active; 'I' for Inactive)
REMARK    1  A    between atoms: C2_2  and  N1_3 
ROOT
HETATM    1  N1  UNL     1      53.387  68.100 -29.046  1.00  0.00     0.012 N 
HETATM    2  C3  UNL     1      52.893  67.664 -30.332  1.00  0.00     0.262 C 
HETATM    3  C4  UNL     1      52.518  69.043 -30.916  1.00  0.00     0.054 C 
HETATM    4  C5  UNL     1      53.048  69.870 -29.768  1.00  0.00     0.136 C 
HETATM    5  C6  UNL     1      54.339  69.150 -29.449  1.00  0.00     0.283 C 
HETATM    6  N2  UNL     1      52.559  69.154 -28.626  1.00  0.00    -0.040 NA
ENDROOT
BRANCH   1   7
HETATM    7  C2  UNL     1      53.816  67.161 -28.114  1.00  0.00     0.256 C 
HETATM    8  C1  UNL     1      53.183  65.798 -28.207  1.00  0.00     0.036 C 
ENDBRANCH   1   7
TORSDOF 1
ENDMDL
MODEL 2
REMARK VINA RESULT: -3.562892918      8.604      9.821
REMARK  1 active torsions:
REMARK  status: ('A' for Active; 'I' for Inactive)
REMARK    1  A    between atoms: C2_2  and  N1_3 
ROOT
HETATM    1  N1  UNL     1      49.318  67.799 -21.062  1.00  0.00     0.012 N 
HETATM    2  C3  UNL     1      50.170  67.389 -19.969  1.00  0.00     0.262 C 
HETATM    3  C4  UNL     1      49.819  65.886 -19.953  1.00  0.00     0.054 C 
HETATM    4  C5  UNL     1      48.923  65.901 -21.169  1.00  0.00     0.136 C 
HETATM    5  C6  UNL     1      49.690  66.817 -22.096  1.00  0.00     0.283 C 
HETATM    6  N2  UNL     1      48.123  67.070 -20.944  1.00  0.00    -0.040 NA
ENDROOT
BRANCH   1   7
HETATM    7  C2  UNL     1      49.261  69.138 -21.432  1.00  0.00     0.256 C 
HETATM    8  C1  UNL     1      48.933  70.116 -20.334  1.00  0.00     0.036 C 
ENDBRANCH   1   7
TORSDOF 1
ENDMDL
MODEL 3
REMARK VINA RESULT: -3.553989767      1.376      3.143
REMARK  1 active torsions:
REMARK  status: ('A' for Active; 'I' for Inactive)
REMARK    1  A    between atoms: C2_2  and  N1_3 
ROOT
HETATM    1  N1  UNL     1      53.013  69.142 -30.417  1.00  0.00     0.012 N 
HETATM    2  C3  UNL     1      52.510  67.801 -30.607  1.00  0.00     0.262 C 
HETATM    3  C4  UNL     1      53.116  67.146 -29.346  1.00  0.00     0.054 C 
HETATM    4  C5  UNL     1      53.702  68.408 -28.757  1.00  0.00     0.136 C 
HETATM    5  C6  UNL     1      52.599  69.407 -29.027  1.00  0.00     0.283 C 
HETATM    6  N2  UNL     1      54.313  69.023 -29.899  1.00  0.00    -0.040 NA
ENDROOT
BRANCH   1   7
HETATM    7  C2  UNL     1      52.749  70.122 -31.368  1.00  0.00     0.256 C 
HETATM    8  C1  UNL     1      51.347  70.673 -31.380  1.00  0.00     0.036 C 
ENDBRANCH   1   7
TORSDOF 1
ENDMDL
MODEL 4
REMARK VINA RESULT: -3.550552170      1.062      1.767
REMARK  1 active torsions:
REMARK  status: ('A' for Active; 'I' for Inactive)
REMARK    1  A    between atoms: C2_2  and  N1_3 
ROOT
HETATM    1  N1  UNL     1      53.110  68.682 -29.384  1.00  0.00     0.012 N 
HETATM    2  C3  UNL     1      52.404  69.854 -28.923  1.00  0.00     0.262 C 
HETATM    3  C4  UNL     1      52.306  70.609 -30.266  1.00  0.00     0.054 C 
HETATM    4  C5  UNL     1      52.917  69.524 -31.123  1.00  0.00     0.136 C 
HETATM    5  C6  UNL     1      52.281  68.284 -30.535  1.00  0.00     0.283 C 
HETATM    6  N2  UNL     1      54.046  69.115 -30.338  1.00  0.00    -0.040 NA
ENDROOT
BRANCH   1   7
HETATM    7  C2  UNL     1      53.475  67.691 -28.477  1.00  0.00     0.256 C 
HETATM    8  C1  UNL     1      53.164  66.275 -28.883  1.00  0.00     0.036 C 
ENDBRANCH   1   7
TORSDOF 1
ENDMDL
MODEL 5
REMARK VINA RESULT: -3.521269603      1.339      1.873
REMARK  1 active torsions:
REMARK  status: ('A' for Active; 'I' for Inactive)
REMARK    1  A    between atoms: C2_2  and  N1_3 
ROOT
HETATM    1  N1  UNL     1      52.905  68.718 -29.752  1.00  0.00     0.012 N 
HETATM    2  C3  UNL     1      51.952  69.784 -29.962  1.00  0.00     0.262 C 
HETATM    3  C4  UNL     1      52.352  70.689 -28.776  1.00  0.00     0.054 C 
HETATM    4  C5  UNL     1      53.532  69.865 -28.316  1.00  0.00     0.136 C 
HETATM    5  C6  UNL     1      54.162  69.479 -29.636  1.00  0.00     0.283 C 
HETATM    6  N2  UNL     1      53.010  68.530 -28.363  1.00  0.00    -0.040 NA
ENDROOT
BRANCH   1   7
HETATM    7  C2  UNL     1      52.897  67.607 -30.588  1.00  0.00     0.256 C 
HETATM    8  C1  UNL     1      52.497  66.302 -29.951  1.00  0.00     0.036 C 
ENDBRANCH   1   7
TORSDOF 1
ENDMDL
