MODEL 1
REMARK VINA RESULT: -4.296945891      0.000      0.000
REMARK  1 active torsions:
REMARK  status: ('A' for Active; 'I' for Inactive)
REMARK    1  A    between atoms: C3_3  and  N1_4 
ROOT
HETATM    1  C1  UNL     1      53.323  65.905 -27.784  1.00  0.00     0.013 C 
HETATM    2  C2  UNL     1      53.636  66.935 -28.345  1.00  0.00    -0.089 C 
HETATM    3  C3  UNL     1      54.007  68.190 -29.001  1.00  0.00     0.332 C 
ENDROOT
BRANCH   3   4
HETATM    4  N1  UNL     1      52.976  68.719 -29.827  1.00  0.00    -0.021 N 
HETATM    5  C4  UNL     1      52.214  69.859 -29.360  1.00  0.00     0.268 C 
HETATM    6  C5  UNL     1      51.442  70.314 -30.590  1.00  0.00     0.262 C 
HETATM    7  N2  UNL     1      52.321  69.979 -31.668  1.00  0.00    -0.042 N 
HETATM    8  C6  UNL     1      53.070  68.792 -31.241  1.00  0.00     0.414 A 
ATOM      9  H22 UNL     1      51.838  69.854 -32.559  1.00  0.00     0.279 HD
ATOM     10  H21 UNL     1      52.919  70.754 -31.957  1.00  0.00     0.279 HD
HETATM   11  C7  UNL     1      52.251  67.740 -30.617  1.00  0.00     0.304 A 
ENDBRANCH   3   4
TORSDOF 1
ENDMDL
MODEL 2
REMARK VINA RESULT: -4.230107822      1.549      3.677
REMARK  1 active torsions:
REMARK  status: ('A' for Active; 'I' for Inactive)
REMARK    1  A    between atoms: C3_3  and  N1_4 
ROOT
HETATM    1  C1  UNL     1      51.909  70.762 -29.013  1.00  0.00     0.013 C 
HETATM    2  C2  UNL     1      52.027  69.793 -29.735  1.00  0.00    -0.089 C 
HETATM    3  C3  UNL     1      52.146  68.619 -30.600  1.00  0.00     0.332 C 
ENDROOT
BRANCH   3   4
HETATM    4  N1  UNL     1      52.721  67.493 -29.945  1.00  0.00    -0.021 N 
HETATM    5  C4  UNL     1      53.440  67.693 -28.704  1.00  0.00     0.268 C 
HETATM    6  C5  UNL     1      53.638  66.284 -28.164  1.00  0.00     0.262 C 
HETATM    7  N2  UNL     1      52.479  65.589 -28.633  1.00  0.00    -0.042 N 
HETATM    8  C6  UNL     1      52.106  66.216 -29.907  1.00  0.00     0.414 A 
ATOM      9  H22 UNL     1      52.613  64.580 -28.702  1.00  0.00     0.279 HD
ATOM     10  H21 UNL     1      51.718  65.569 -27.954  1.00  0.00     0.279 HD
HETATM   11  C7  UNL     1      53.230  66.457 -30.825  1.00  0.00     0.304 A 
ENDBRANCH   3   4
TORSDOF 1
ENDMDL
MODEL 3
REMARK VINA RESULT: -4.158035184      1.135      3.854
REMARK  1 active torsions:
REMARK  status: ('A' for Active; 'I' for Inactive)
REMARK    1  A    between atoms: C3_3  and  N1_4 
ROOT
HETATM    1  C1  UNL     1      50.884  70.955 -31.224  1.00  0.00     0.013 C 
HETATM    2  C2  UNL     1      51.868  70.245 -31.208  1.00  0.00    -0.089 C 
HETATM    3  C3  UNL     1      53.045  69.373 -31.205  1.00  0.00     0.332 C 
ENDROOT
BRANCH   3   4
HETATM    4  N1  UNL     1      53.066  68.460 -30.114  1.00  0.00    -0.021 N 
HETATM    5  C4  UNL     1      52.525  67.129 -30.299  1.00  0.00     0.268 C 
HETATM    6  C5  UNL     1      52.981  66.372 -29.061  1.00  0.00     0.262 C 
HETATM    7  N2  UNL     1      54.234  66.987 -28.745  1.00  0.00    -0.042 N 
HETATM    8  C6  UNL     1      54.131  68.385 -29.180  1.00  0.00     0.414 A 
ATOM      9  H22 UNL     1      54.497  66.888 -27.764  1.00  0.00     0.279 HD
ATOM     10  H21 UNL     1      55.036  66.498 -29.142  1.00  0.00     0.279 HD
HETATM   11  C7  UNL     1      52.876  69.055 -28.804  1.00  0.00     0.304 A 
ENDBRANCH   3   4
TORSDOF 1
ENDMDL
MODEL 4
REMARK VINA RESULT: -4.110709304      1.684      3.160
REMARK  1 active torsions:
REMARK  status: ('A' for Active; 'I' for Inactive)
REMARK    1  A    between atoms: C3_3  and  N1_4 
ROOT
HETATM    1  C1  UNL     1      54.887  71.317 -27.875  1.00  0.00     0.013 C 
HETATM    2  C2  UNL     1      53.867  70.781 -28.258  1.00  0.00    -0.089 C 
HETATM    3  C3  UNL     1      52.635  70.124 -28.698  1.00  0.00     0.332 C 
ENDROOT
BRANCH   3   4
HETATM    4  N1  UNL     1      52.869  68.961 -29.485  1.00  0.00    -0.021 N 
HETATM    5  C4  UNL     1      53.396  67.772 -28.845  1.00  0.00     0.268 C 
HETATM    6  C5  UNL     1      53.230  66.685 -29.897  1.00  0.00     0.262 C 
HETATM    7  N2  UNL     1      52.055  67.092 -30.604  1.00  0.00    -0.042 N 
HETATM    8  C6  UNL     1      52.025  68.558 -30.552  1.00  0.00     0.414 A 
ATOM      9  H22 UNL     1      52.005  66.720 -31.553  1.00  0.00     0.279 HD
ATOM     10  H21 UNL     1      51.201  66.657 -30.253  1.00  0.00     0.279 HD
HETATM   11  C7  UNL     1      53.311  69.210 -30.844  1.00  0.00     0.304 A 
ENDBRANCH   3   4
TORSDOF 1
ENDMDL
MODEL 5
REMARK VINA RESULT: -4.099285915      1.225      1.941
REMARK  1 active torsions:
REMARK  status: ('A' for Active; 'I' for Inactive)
REMARK    1  A    between atoms: C3_3  and  N1_4 
ROOT
HETATM    1  C1  UNL     1      53.373  65.744 -27.798  1.00  0.00     0.013 C 
HETATM    2  C2  UNL     1      53.125  66.426 -28.770  1.00  0.00    -0.089 C 
HETATM    3  C3  UNL     1      52.849  67.247 -29.951  1.00  0.00     0.332 C 
ENDROOT
BRANCH   3   4
HETATM    4  N1  UNL     1      52.927  68.645 -29.695  1.00  0.00    -0.021 N 
HETATM    5  C4  UNL     1      52.015  69.538 -30.381  1.00  0.00     0.268 C 
HETATM    6  C5  UNL     1      52.183  70.864 -29.653  1.00  0.00     0.262 C 
HETATM    7  N2  UNL     1      52.490  70.465 -28.314  1.00  0.00    -0.042 N 
HETATM    8  C6  UNL     1      53.209  69.189 -28.416  1.00  0.00     0.414 A 
ATOM      9  H22 UNL     1      53.000  71.175 -27.787  1.00  0.00     0.279 HD
ATOM     10  H21 UNL     1      51.671  70.420 -27.707  1.00  0.00     0.279 HD
HETATM   11  C7  UNL     1      54.261  69.156 -29.443  1.00  0.00     0.304 A 
ENDBRANCH   3   4
TORSDOF 1
ENDMDL
