MODEL 1
REMARK VINA RESULT: -4.806297824      0.000      0.000
REMARK  2 active torsions:
REMARK  status: ('A' for Active; 'I' for Inactive)
REMARK    1  A    between atoms: C5_5  and  C6_6 
REMARK    2  A    between atoms: N1_7  and  N2_9 
ROOT
HETATM    1  C1  UNL     1      51.138  70.623 -30.145  1.00  0.00     0.046 C 
HETATM    2  C2  UNL     1      52.314  69.741 -30.491  1.00  0.00     0.121 C 
HETATM    3  C3  UNL     1      52.989  70.231 -31.752  1.00  0.00     0.046 C 
HETATM    4  C4  UNL     1      51.982  68.263 -30.482  1.00  0.00     0.076 C 
HETATM    5  C5  UNL     1      53.330  68.122 -29.856  1.00  0.00     0.228 C 
HETATM    6  N3  UNL     1      53.212  69.487 -29.378  1.00  0.00    -0.058 N 
ATOM      7  H31 UNL     1      52.927  69.683 -28.419  1.00  0.00     0.278 HD
ATOM      8  H32 UNL     1      54.040  70.064 -29.231  1.00  0.00     0.278 HD
ENDROOT
BRANCH   5   9
HETATM    9  C6  UNL     1      53.431  67.110 -28.776  1.00  0.00     0.112 C 
HETATM   10  N1  UNL     1      53.371  65.857 -28.964  1.00  0.00    -0.320 N 
ATOM     11  H1  UNL     1      53.245  65.496 -29.910  1.00  0.00     0.185 HD
BRANCH  10  12
HETATM   12  N2  UNL     1      53.474  64.968 -27.896  1.00  0.00    -0.346 N 
ATOM     13  H22 UNL     1      54.357  64.915 -27.389  1.00  0.00     0.176 HD
ATOM     14  H21 UNL     1      52.685  64.381 -27.626  1.00  0.00     0.176 HD
ENDBRANCH  10  12
ENDBRANCH   5   9
TORSDOF 2
ENDMDL
MODEL 2
REMARK VINA RESULT: -4.686068064      1.030      1.591
REMARK  2 active torsions:
REMARK  status: ('A' for Active; 'I' for Inactive)
REMARK    1  A    between atoms: C5_5  and  C6_6 
REMARK    2  A    between atoms: N1_7  and  N2_9 
ROOT
HETATM    1  C1  UNL     1      52.970  70.189 -31.758  1.00  0.00     0.046 C 
HETATM    2  C2  UNL     1      52.760  69.794 -30.316  1.00  0.00     0.121 C 
HETATM    3  C3  UNL     1      52.154  70.940 -29.537  1.00  0.00     0.046 C 
HETATM    4  C4  UNL     1      53.984  69.170 -29.678  1.00  0.00     0.076 C 
HETATM    5  C5  UNL     1      52.993  68.256 -29.037  1.00  0.00     0.228 C 
HETATM    6  N3  UNL     1      52.090  68.518 -30.142  1.00  0.00    -0.058 N 
ATOM      7  H31 UNL     1      52.006  67.860 -30.916  1.00  0.00     0.278 HD
ATOM      8  H32 UNL     1      51.079  68.469 -30.015  1.00  0.00     0.278 HD
ENDROOT
BRANCH   5   9
HETATM    9  C6  UNL     1      53.413  66.838 -28.923  1.00  0.00     0.112 C 
HETATM   10  N1  UNL     1      53.042  66.056 -27.994  1.00  0.00    -0.320 N 
ATOM     11  H1  UNL     1      52.416  66.401 -27.267  1.00  0.00     0.185 HD
BRANCH  10  12
HETATM   12  N2  UNL     1      53.480  64.734 -27.955  1.00  0.00    -0.346 N 
ATOM     13  H22 UNL     1      54.320  64.482 -28.477  1.00  0.00     0.176 HD
ATOM     14  H21 UNL     1      52.974  64.031 -27.417  1.00  0.00     0.176 HD
ENDBRANCH  10  12
ENDBRANCH   5   9
TORSDOF 2
ENDMDL
MODEL 3
REMARK VINA RESULT: -4.587084867      1.840      2.007
REMARK  2 active torsions:
REMARK  status: ('A' for Active; 'I' for Inactive)
REMARK    1  A    between atoms: C5_5  and  C6_6 
REMARK    2  A    between atoms: N1_7  and  N2_9 
ROOT
HETATM    1  C1  UNL     1      52.490  71.333 -28.915  1.00  0.00     0.046 C 
HETATM    2  C2  UNL     1      53.647  70.389 -28.694  1.00  0.00     0.121 C 
HETATM    3  C3  UNL     1      54.921  71.165 -28.446  1.00  0.00     0.046 C 
HETATM    4  C4  UNL     1      53.757  69.310 -29.750  1.00  0.00     0.076 C 
HETATM    5  C5  UNL     1      54.108  68.431 -28.597  1.00  0.00     0.228 C 
HETATM    6  N3  UNL     1      53.378  69.337 -27.730  1.00  0.00    -0.058 N 
ATOM      7  H31 UNL     1      52.425  69.126 -27.436  1.00  0.00     0.278 HD
ATOM      8  H32 UNL     1      53.636  69.446 -26.749  1.00  0.00     0.278 HD
ENDROOT
BRANCH   5   9
HETATM    9  C6  UNL     1      53.549  67.058 -28.645  1.00  0.00     0.112 C 
HETATM   10  N1  UNL     1      53.918  66.109 -27.887  1.00  0.00    -0.320 N 
ATOM     11  H1  UNL     1      54.646  66.275 -27.192  1.00  0.00     0.185 HD
BRANCH  10  12
HETATM   12  N2  UNL     1      53.344  64.845 -27.993  1.00  0.00    -0.346 N 
ATOM     13  H22 UNL     1      53.752  64.176 -28.646  1.00  0.00     0.176 HD
ATOM     14  H21 UNL     1      52.532  64.590 -27.430  1.00  0.00     0.176 HD
ENDBRANCH  10  12
ENDBRANCH   5   9
TORSDOF 2
ENDMDL
MODEL 4
REMARK VINA RESULT: -4.510089413      1.104      1.741
REMARK  2 active torsions:
REMARK  status: ('A' for Active; 'I' for Inactive)
REMARK    1  A    between atoms: C5_5  and  C6_6 
REMARK    2  A    between atoms: N1_7  and  N2_9 
ROOT
HETATM    1  C1  UNL     1      52.699  70.805 -32.357  1.00  0.00     0.046 C 
HETATM    2  C2  UNL     1      52.144  70.211 -31.084  1.00  0.00     0.121 C 
HETATM    3  C3  UNL     1      51.011  71.061 -30.554  1.00  0.00     0.046 C 
HETATM    4  C4  UNL     1      53.210  69.867 -30.065  1.00  0.00     0.076 C 
HETATM    5  C5  UNL     1      52.370  68.657 -29.823  1.00  0.00     0.228 C 
HETATM    6  N3  UNL     1      51.851  68.791 -31.171  1.00  0.00    -0.058 N 
ATOM      7  H31 UNL     1      52.222  68.225 -31.934  1.00  0.00     0.278 HD
ATOM      8  H32 UNL     1      50.915  68.463 -31.408  1.00  0.00     0.278 HD
ENDROOT
BRANCH   5   9
HETATM    9  C6  UNL     1      53.116  67.397 -29.585  1.00  0.00     0.112 C 
HETATM   10  N1  UNL     1      52.785  66.522 -28.727  1.00  0.00    -0.320 N 
ATOM     11  H1  UNL     1      51.958  66.672 -28.151  1.00  0.00     0.185 HD
BRANCH  10  12
HETATM   12  N2  UNL     1      53.539  65.362 -28.562  1.00  0.00    -0.346 N 
ATOM     13  H22 UNL     1      53.670  64.747 -29.366  1.00  0.00     0.176 HD
ATOM     14  H21 UNL     1      53.951  65.129 -27.659  1.00  0.00     0.176 HD
ENDBRANCH  10  12
ENDBRANCH   5   9
TORSDOF 2
ENDMDL
MODEL 5
REMARK VINA RESULT: -4.360678234      1.613      2.431
REMARK  2 active torsions:
REMARK  status: ('A' for Active; 'I' for Inactive)
REMARK    1  A    between atoms: C5_5  and  C6_6 
REMARK    2  A    between atoms: N1_7  and  N2_9 
ROOT
HETATM    1  C1  UNL     1      51.752  71.848 -32.634  1.00  0.00     0.046 C 
HETATM    2  C2  UNL     1      51.437  71.055 -31.387  1.00  0.00     0.121 C 
HETATM    3  C3  UNL     1      50.401  71.775 -30.553  1.00  0.00     0.046 C 
HETATM    4  C4  UNL     1      52.669  70.611 -30.627  1.00  0.00     0.076 C 
HETATM    5  C5  UNL     1      51.901  69.347 -30.427  1.00  0.00     0.228 C 
HETATM    6  N3  UNL     1      51.153  69.652 -31.632  1.00  0.00    -0.058 N 
ATOM      7  H31 UNL     1      51.393  69.216 -32.522  1.00  0.00     0.278 HD
ATOM      8  H32 UNL     1      50.195  69.324 -31.752  1.00  0.00     0.278 HD
ENDROOT
BRANCH   5   9
HETATM    9  C6  UNL     1      52.695  68.097 -30.509  1.00  0.00     0.112 C 
HETATM   10  N1  UNL     1      52.593  67.131 -29.691  1.00  0.00    -0.320 N 
ATOM     11  H1  UNL     1      51.930  67.194 -28.919  1.00  0.00     0.185 HD
BRANCH  10  12
HETATM   12  N2  UNL     1      53.375  65.987 -29.835  1.00  0.00    -0.346 N 
ATOM     13  H22 UNL     1      53.136  65.161 -29.287  1.00  0.00     0.176 HD
ATOM     14  H21 UNL     1      54.170  65.973 -30.474  1.00  0.00     0.176 HD
ENDBRANCH  10  12
ENDBRANCH   5   9
TORSDOF 2
ENDMDL
