MODEL 1
REMARK VINA RESULT: -4.447140740      0.000      0.000
REMARK  3 active torsions:
REMARK  status: ('A' for Active; 'I' for Inactive)
REMARK    1  A    between atoms: C3_3  and  C4_4 
REMARK    2  A    between atoms: C5_5  and  C6_6 
REMARK    3  A    between atoms: C6_6  and  C7_7 
ROOT
HETATM    1  C1  UNL     1      51.151  71.397 -28.599  1.00  0.00     0.013 C 
HETATM    2  C2  UNL     1      51.323  70.852 -29.659  1.00  0.00    -0.105 C 
HETATM    3  C3  UNL     1      51.537  70.157 -30.952  1.00  0.00     0.186 C 
ENDROOT
BRANCH   3   4
HETATM    4  C4  UNL     1      52.131  68.834 -30.669  1.00  0.00    -0.095 C 
HETATM    5  C5  UNL     1      52.628  67.764 -30.424  1.00  0.00    -0.104 C 
BRANCH   5   6
HETATM    6  C6  UNL     1      53.249  66.461 -30.102  1.00  0.00     0.128 C 
BRANCH   6   7
HETATM    7  C7  UNL     1      52.813  66.105 -28.705  1.00  0.00     0.222 A 
HETATM    8  C8  UNL     1      53.848  66.349 -27.628  1.00  0.00     0.266 A 
HETATM    9  N1  UNL     1      53.455  65.017 -28.008  1.00  0.00    -0.067 N 
ATOM     10  H12 UNL     1      53.097  64.219 -27.483  1.00  0.00     0.277 HD
ATOM     11  H11 UNL     1      53.977  64.198 -28.323  1.00  0.00     0.277 HD
ENDBRANCH   6   7
ENDBRANCH   5   6
ENDBRANCH   3   4
TORSDOF 3
ENDMDL
MODEL 2
REMARK VINA RESULT: -4.407939783      0.976      1.701
REMARK  3 active torsions:
REMARK  status: ('A' for Active; 'I' for Inactive)
REMARK    1  A    between atoms: C3_3  and  C4_4 
REMARK    2  A    between atoms: C5_5  and  C6_6 
REMARK    3  A    between atoms: C6_6  and  C7_7 
ROOT
HETATM    1  C1  UNL     1      52.732  71.425 -32.812  1.00  0.00     0.013 C 
HETATM    2  C2  UNL     1      52.205  70.932 -31.847  1.00  0.00    -0.105 C 
HETATM    3  C3  UNL     1      51.576  70.308 -30.657  1.00  0.00     0.186 C 
ENDROOT
BRANCH   3   4
HETATM    4  C4  UNL     1      52.180  68.973 -30.467  1.00  0.00    -0.095 C 
HETATM    5  C5  UNL     1      52.677  67.890 -30.292  1.00  0.00    -0.104 C 
BRANCH   5   6
HETATM    6  C6  UNL     1      53.289  66.564 -30.052  1.00  0.00     0.128 C 
BRANCH   6   7
HETATM    7  C7  UNL     1      52.820  66.109 -28.695  1.00  0.00     0.222 A 
HETATM    8  C8  UNL     1      53.804  66.334 -27.567  1.00  0.00     0.266 A 
HETATM    9  N1  UNL     1      53.483  65.010 -28.037  1.00  0.00    -0.067 N 
ATOM     10  H12 UNL     1      53.143  64.168 -27.572  1.00  0.00     0.277 HD
ATOM     11  H11 UNL     1      54.053  64.235 -28.378  1.00  0.00     0.277 HD
ENDBRANCH   6   7
ENDBRANCH   5   6
ENDBRANCH   3   4
TORSDOF 3
ENDMDL
MODEL 3
REMARK VINA RESULT: -4.248299666      2.070      2.808
REMARK  3 active torsions:
REMARK  status: ('A' for Active; 'I' for Inactive)
REMARK    1  A    between atoms: C3_3  and  C4_4 
REMARK    2  A    between atoms: C5_5  and  C6_6 
REMARK    3  A    between atoms: C6_6  and  C7_7 
ROOT
HETATM    1  C1  UNL     1      53.376  71.718 -34.150  1.00  0.00     0.013 C 
HETATM    2  C2  UNL     1      52.708  71.558 -33.160  1.00  0.00    -0.105 C 
HETATM    3  C3  UNL     1      51.907  71.349 -31.929  1.00  0.00     0.186 C 
ENDROOT
BRANCH   3   4
HETATM    4  C4  UNL     1      52.605  70.353 -31.091  1.00  0.00    -0.095 C 
HETATM    5  C5  UNL     1      53.191  69.552 -30.409  1.00  0.00    -0.104 C 
BRANCH   5   6
HETATM    6  C6  UNL     1      53.931  68.585 -29.568  1.00  0.00     0.128 C 
BRANCH   6   7
HETATM    7  C7  UNL     1      52.993  67.440 -29.294  1.00  0.00     0.222 A 
HETATM    8  C8  UNL     1      53.456  66.472 -28.227  1.00  0.00     0.266 A 
HETATM    9  N1  UNL     1      53.394  66.092 -29.615  1.00  0.00    -0.067 N 
ATOM     10  H12 UNL     1      52.933  65.326 -30.108  1.00  0.00     0.277 HD
ATOM     11  H11 UNL     1      54.079  65.703 -30.263  1.00  0.00     0.277 HD
ENDBRANCH   6   7
ENDBRANCH   5   6
ENDBRANCH   3   4
TORSDOF 3
ENDMDL
MODEL 4
REMARK VINA RESULT: -4.198947219      1.474      1.602
REMARK  3 active torsions:
REMARK  status: ('A' for Active; 'I' for Inactive)
REMARK    1  A    between atoms: C3_3  and  C4_4 
REMARK    2  A    between atoms: C5_5  and  C6_6 
REMARK    3  A    between atoms: C6_6  and  C7_7 
ROOT
HETATM    1  C1  UNL     1      49.613  71.685 -31.177  1.00  0.00     0.013 C 
HETATM    2  C2  UNL     1      50.775  71.369 -31.203  1.00  0.00    -0.105 C 
HETATM    3  C3  UNL     1      52.199  70.955 -31.237  1.00  0.00     0.186 C 
ENDROOT
BRANCH   3   4
HETATM    4  C4  UNL     1      52.268  69.521 -30.887  1.00  0.00    -0.095 C 
HETATM    5  C5  UNL     1      52.314  68.357 -30.583  1.00  0.00    -0.104 C 
BRANCH   5   6
HETATM    6  C6  UNL     1      52.354  66.930 -30.192  1.00  0.00     0.128 C 
BRANCH   6   7
HETATM    7  C7  UNL     1      53.575  66.750 -29.330  1.00  0.00     0.222 A 
HETATM    8  C8  UNL     1      53.333  66.047 -28.012  1.00  0.00     0.266 A 
HETATM    9  N1  UNL     1      53.674  67.445 -28.070  1.00  0.00    -0.067 N 
ATOM     10  H12 UNL     1      54.411  68.001 -27.637  1.00  0.00     0.277 HD
ATOM     11  H11 UNL     1      53.230  68.287 -27.701  1.00  0.00     0.277 HD
ENDBRANCH   6   7
ENDBRANCH   5   6
ENDBRANCH   3   4
TORSDOF 3
ENDMDL
MODEL 5
REMARK VINA RESULT: -4.141824172      1.599      1.909
REMARK  3 active torsions:
REMARK  status: ('A' for Active; 'I' for Inactive)
REMARK    1  A    between atoms: C3_3  and  C4_4 
REMARK    2  A    between atoms: C5_5  and  C6_6 
REMARK    3  A    between atoms: C6_6  and  C7_7 
ROOT
HETATM    1  C1  UNL     1      49.351  71.694 -30.884  1.00  0.00     0.013 C 
HETATM    2  C2  UNL     1      50.424  71.506 -31.398  1.00  0.00    -0.105 C 
HETATM    3  C3  UNL     1      51.748  71.252 -32.016  1.00  0.00     0.186 C 
ENDROOT
BRANCH   3   4
HETATM    4  C4  UNL     1      52.487  70.311 -31.149  1.00  0.00    -0.095 C 
HETATM    5  C5  UNL     1      53.106  69.550 -30.451  1.00  0.00    -0.104 C 
BRANCH   5   6
HETATM    6  C6  UNL     1      53.890  68.626 -29.602  1.00  0.00     0.128 C 
BRANCH   6   7
HETATM    7  C7  UNL     1      52.991  67.460 -29.284  1.00  0.00     0.222 A 
HETATM    8  C8  UNL     1      53.492  66.544 -28.189  1.00  0.00     0.266 A 
HETATM    9  N1  UNL     1      53.434  66.116 -29.563  1.00  0.00    -0.067 N 
ATOM     10  H12 UNL     1      52.996  65.320 -30.027  1.00  0.00     0.277 HD
ATOM     11  H11 UNL     1      54.128  65.728 -30.202  1.00  0.00     0.277 HD
ENDBRANCH   6   7
ENDBRANCH   5   6
ENDBRANCH   3   4
TORSDOF 3
ENDMDL
