MODEL 1
REMARK VINA RESULT: -7.301269550      0.000      0.000
REMARK  9 active torsions:
REMARK  status: ('A' for Active; 'I' for Inactive)
REMARK    1  A    between atoms: C2_2  and  C3_3 
REMARK    2  A    between atoms: C3_3  and  C4_4 
REMARK    3  A    between atoms: C4_4  and  C5_5 
REMARK    4  A    between atoms: C5_5  and  C6_6 
REMARK    5  A    between atoms: C6_6  and  C7_7 
REMARK    6  A    between atoms: N2_14  and  S1_15 
REMARK    7  A    between atoms: S1_15  and  N3_18 
REMARK    8  A    between atoms: C13_24  and  C14_25 
REMARK       I    between atoms: C14_25  and  N5_27 
REMARK    9  A    between atoms: N5_27  and  C15_29 
ROOT
HETATM    1  N3  UNL     1      -0.723  18.689  19.482  1.00  0.00    -0.194 N 
HETATM    2  C11 UNL     1      -2.091  18.857  19.941  1.00  0.00     0.334 C 
HETATM    3  O4  UNL     1      -3.029  19.301  19.225  1.00  0.00    -0.246 OA
HETATM    4  N4  UNL     1      -2.128  18.434  21.295  1.00  0.00    -0.340 N 
ATOM      5  H4  UNL     1      -2.925  18.513  21.927  1.00  0.00     0.164 HD
HETATM    6  C12 UNL     1      -0.836  17.871  21.622  1.00  0.00     0.160 C 
HETATM    7  C13 UNL     1      -0.278  17.548  20.257  1.00  0.00     0.217 C 
ENDROOT
BRANCH   1   8
HETATM    8  S1  UNL     1       0.075  19.646  18.290  1.00  0.00     0.332 S 
HETATM    9  O2  UNL     1      -1.065  20.228  17.434  1.00  0.00    -0.182 OA
HETATM   10  O3  UNL     1       0.831  18.638  17.422  1.00  0.00    -0.182 OA
BRANCH   8  11
HETATM   11  N2  UNL     1       1.023  20.850  18.882  1.00  0.00    -0.256 N 
HETATM   12  C7  UNL     1       2.405  20.737  19.127  1.00  0.00     0.091 C 
HETATM   13  C8  UNL     1       2.698  20.350  20.524  1.00  0.00     0.264 C 
HETATM   14  O1  UNL     1       3.547  19.512  20.892  1.00  0.00    -0.266 OA
HETATM   15  N1  UNL     1       1.930  20.984  21.586  1.00  0.00    -0.354 N 
HETATM   16  C9  UNL     1       0.554  21.309  21.280  1.00  0.00     0.144 C 
ATOM     17  H1  UNL     1       2.341  21.189  22.497  1.00  0.00     0.162 HD
HETATM   18  C10 UNL     1       0.470  21.762  19.846  1.00  0.00     0.163 C 
BRANCH  12  19
HETATM   19  C6  UNL     1       3.347  20.365  18.090  1.00  0.00     0.064 C 
BRANCH  19  20
HETATM   20  C5  UNL     1       3.371  21.061  16.775  1.00  0.00     0.006 C 
BRANCH  20  21
HETATM   21  C4  UNL     1       4.169  20.579  15.652  1.00  0.00     0.000 C 
BRANCH  21  22
HETATM   22  C3  UNL     1       5.653  20.937  15.906  1.00  0.00    -0.000 C 
BRANCH  22  23
HETATM   23  C2  UNL     1       6.588  19.907  15.340  1.00  0.00    -0.005 C 
HETATM   24  C1  UNL     1       6.990  20.257  13.909  1.00  0.00     0.005 C 
ENDBRANCH  22  23
ENDBRANCH  21  22
ENDBRANCH  20  21
ENDBRANCH  19  20
ENDBRANCH  12  19
ENDBRANCH   8  11
ENDBRANCH   1   8
BRANCH   7  25
HETATM   25  C14 UNL     1      -0.939  16.270  19.810  1.00  0.00     0.243 C 
HETATM   26  O5  UNL     1      -1.537  15.578  20.666  1.00  0.00    -0.271 OA
HETATM   27  N5  UNL     1      -0.905  15.839  18.474  1.00  0.00    -0.353 N 
ATOM     28  H5  UNL     1      -0.402  16.426  17.808  1.00  0.00     0.163 HD
BRANCH  27  29
HETATM   29  C15 UNL     1      -1.513  14.651  17.964  1.00  0.00     0.111 C 
HETATM   30  C16 UNL     1      -2.039  14.871  16.580  1.00  0.00     0.054 C 
HETATM   31  C17 UNL     1      -1.589  13.688  15.772  1.00  0.00     0.234 C 
HETATM   32  N6  UNL     1      -0.881  12.795  16.636  1.00  0.00    -0.073 N 
HETATM   33  C18 UNL     1      -0.514  13.522  17.824  1.00  0.00     0.257 C 
ATOM     34  H62 UNL     1      -1.405  11.944  16.841  1.00  0.00     0.277 HD
ATOM     35  H61 UNL     1      -0.081  12.355  16.179  1.00  0.00     0.277 HD
ENDBRANCH  27  29
ENDBRANCH   7  25
TORSDOF 9
ENDMDL
MODEL 2
REMARK VINA RESULT: -7.131754281      1.582      2.391
REMARK  9 active torsions:
REMARK  status: ('A' for Active; 'I' for Inactive)
REMARK    1  A    between atoms: C2_2  and  C3_3 
REMARK    2  A    between atoms: C3_3  and  C4_4 
REMARK    3  A    between atoms: C4_4  and  C5_5 
REMARK    4  A    between atoms: C5_5  and  C6_6 
REMARK    5  A    between atoms: C6_6  and  C7_7 
REMARK    6  A    between atoms: N2_14  and  S1_15 
REMARK    7  A    between atoms: S1_15  and  N3_18 
REMARK    8  A    between atoms: C13_24  and  C14_25 
REMARK       I    between atoms: C14_25  and  N5_27 
REMARK    9  A    between atoms: N5_27  and  C15_29 
ROOT
HETATM    1  N3  UNL     1      -0.691  18.774  19.527  1.00  0.00    -0.194 N 
HETATM    2  C11 UNL     1      -0.329  18.791  18.120  1.00  0.00     0.334 C 
HETATM    3  O4  UNL     1       0.778  18.389  17.669  1.00  0.00    -0.246 OA
HETATM    4  N4  UNL     1      -1.436  19.328  17.414  1.00  0.00    -0.340 N 
ATOM      5  H4  UNL     1      -1.462  19.553  16.419  1.00  0.00     0.164 HD
HETATM    6  C12 UNL     1      -2.523  19.499  18.354  1.00  0.00     0.160 C 
HETATM    7  C13 UNL     1      -2.125  18.568  19.472  1.00  0.00     0.217 C 
ENDROOT
BRANCH   1   8
HETATM    8  S1  UNL     1       0.391  18.942  20.858  1.00  0.00     0.332 S 
HETATM    9  O2  UNL     1       1.432  17.826  20.655  1.00  0.00    -0.182 OA
HETATM   10  O3  UNL     1      -0.441  18.574  22.088  1.00  0.00    -0.182 OA
BRANCH   8  11
HETATM   11  N2  UNL     1       1.132  20.405  20.975  1.00  0.00    -0.256 N 
HETATM   12  C7  UNL     1       2.425  20.690  20.497  1.00  0.00     0.091 C 
HETATM   13  C8  UNL     1       3.459  20.520  21.541  1.00  0.00     0.264 C 
HETATM   14  O1  UNL     1       4.573  19.977  21.390  1.00  0.00    -0.266 OA
HETATM   15  N1  UNL     1       3.169  21.015  22.880  1.00  0.00    -0.354 N 
HETATM   16  C9  UNL     1       1.792  20.928  23.314  1.00  0.00     0.144 C 
ATOM     17  H1  UNL     1       3.898  21.402  23.479  1.00  0.00     0.162 HD
HETATM   18  C10 UNL     1       0.894  21.215  22.139  1.00  0.00     0.163 C 
BRANCH  12  19
HETATM   19  C6  UNL     1       2.798  20.496  19.110  1.00  0.00     0.064 C 
BRANCH  19  20
HETATM   20  C5  UNL     1       3.352  21.608  18.291  1.00  0.00     0.006 C 
BRANCH  20  21
HETATM   21  C4  UNL     1       4.557  21.454  17.482  1.00  0.00     0.000 C 
BRANCH  21  22
HETATM   22  C3  UNL     1       4.240  20.524  16.287  1.00  0.00    -0.000 C 
BRANCH  22  23
HETATM   23  C2  UNL     1       5.171  20.753  15.130  1.00  0.00    -0.005 C 
HETATM   24  C1  UNL     1       6.490  20.011  15.331  1.00  0.00     0.005 C 
ENDBRANCH  22  23
ENDBRANCH  21  22
ENDBRANCH  20  21
ENDBRANCH  19  20
ENDBRANCH  12  19
ENDBRANCH   8  11
ENDBRANCH   1   8
BRANCH   7  25
HETATM   25  C14 UNL     1      -2.476  17.174  19.020  1.00  0.00     0.243 C 
HETATM   26  O5  UNL     1      -3.676  16.917  18.762  1.00  0.00    -0.271 OA
HETATM   27  N5  UNL     1      -1.509  16.166  18.881  1.00  0.00    -0.353 N 
ATOM     28  H5  UNL     1      -0.545  16.413  19.109  1.00  0.00     0.163 HD
BRANCH  27  29
HETATM   29  C15 UNL     1      -1.753  14.827  18.450  1.00  0.00     0.111 C 
HETATM   30  C16 UNL     1      -2.194  14.796  17.019  1.00  0.00     0.054 C 
HETATM   31  C17 UNL     1      -1.393  13.710  16.361  1.00  0.00     0.234 C 
HETATM   32  N6  UNL     1      -0.563  13.098  17.352  1.00  0.00    -0.073 N 
HETATM   33  C18 UNL     1      -0.495  13.984  18.486  1.00  0.00     0.257 C 
ATOM     34  H62 UNL     1      -0.874  12.160  17.604  1.00  0.00     0.277 HD
ATOM     35  H61 UNL     1       0.358  12.845  16.994  1.00  0.00     0.277 HD
ENDBRANCH  27  29
ENDBRANCH   7  25
TORSDOF 9
ENDMDL
MODEL 3
REMARK VINA RESULT: -7.089784927      1.187      1.474
REMARK  9 active torsions:
REMARK  status: ('A' for Active; 'I' for Inactive)
REMARK    1  A    between atoms: C2_2  and  C3_3 
REMARK    2  A    between atoms: C3_3  and  C4_4 
REMARK    3  A    between atoms: C4_4  and  C5_5 
REMARK    4  A    between atoms: C5_5  and  C6_6 
REMARK    5  A    between atoms: C6_6  and  C7_7 
REMARK    6  A    between atoms: N2_14  and  S1_15 
REMARK    7  A    between atoms: S1_15  and  N3_18 
REMARK    8  A    between atoms: C13_24  and  C14_25 
REMARK       I    between atoms: C14_25  and  N5_27 
REMARK    9  A    between atoms: N5_27  and  C15_29 
ROOT
HETATM    1  N3  UNL     1      -0.908  19.005  18.944  1.00  0.00    -0.194 N 
HETATM    2  C11 UNL     1      -1.879  19.688  18.107  1.00  0.00     0.334 C 
HETATM    3  O4  UNL     1      -1.670  20.027  16.911  1.00  0.00    -0.246 OA
HETATM    4  N4  UNL     1      -3.045  19.875  18.894  1.00  0.00    -0.340 N 
ATOM      5  H4  UNL     1      -3.874  20.403  18.623  1.00  0.00     0.164 HD
HETATM    6  C12 UNL     1      -2.851  19.183  20.150  1.00  0.00     0.160 C 
HETATM    7  C13 UNL     1      -1.755  18.204  19.806  1.00  0.00     0.217 C 
ENDROOT
BRANCH   1   8
HETATM    8  S1  UNL     1       0.807  19.158  18.845  1.00  0.00     0.332 S 
HETATM    9  O2  UNL     1       1.140  18.837  17.377  1.00  0.00    -0.182 OA
HETATM   10  O3  UNL     1       1.352  18.012  19.700  1.00  0.00    -0.182 OA
BRANCH   8  11
HETATM   11  N2  UNL     1       1.401  20.633  19.261  1.00  0.00    -0.256 N 
HETATM   12  C7  UNL     1       2.765  20.925  19.448  1.00  0.00     0.091 C 
HETATM   13  C8  UNL     1       3.178  20.793  20.863  1.00  0.00     0.264 C 
HETATM   14  O1  UNL     1       4.230  20.262  21.275  1.00  0.00    -0.266 OA
HETATM   15  N1  UNL     1       2.286  21.315  21.888  1.00  0.00    -0.354 N 
HETATM   16  C9  UNL     1       0.868  21.219  21.618  1.00  0.00     0.144 C 
ATOM     17  H1  UNL     1       2.642  21.725  22.752  1.00  0.00     0.162 HD
HETATM   18  C10 UNL     1       0.638  21.466  20.150  1.00  0.00     0.163 C 
BRANCH  12  19
HETATM   19  C6  UNL     1       3.753  20.703  18.412  1.00  0.00     0.064 C 
BRANCH  19  20
HETATM   20  C5  UNL     1       3.582  21.260  17.043  1.00  0.00     0.006 C 
BRANCH  20  21
HETATM   21  C4  UNL     1       4.117  20.596  15.858  1.00  0.00     0.000 C 
BRANCH  21  22
HETATM   22  C3  UNL     1       5.578  21.056  15.645  1.00  0.00    -0.000 C 
BRANCH  22  23
HETATM   23  C2  UNL     1       6.490  19.910  15.312  1.00  0.00    -0.005 C 
HETATM   24  C1  UNL     1       7.161  20.118  13.956  1.00  0.00     0.005 C 
ENDBRANCH  22  23
ENDBRANCH  21  22
ENDBRANCH  20  21
ENDBRANCH  19  20
ENDBRANCH  12  19
ENDBRANCH   8  11
ENDBRANCH   1   8
BRANCH   7  25
HETATM   25  C14 UNL     1      -2.406  17.070  19.058  1.00  0.00     0.243 C 
HETATM   26  O5  UNL     1      -3.641  17.126  18.849  1.00  0.00    -0.271 OA
HETATM   27  N5  UNL     1      -1.677  15.964  18.592  1.00  0.00    -0.353 N 
ATOM     28  H5  UNL     1      -0.676  15.952  18.788  1.00  0.00     0.163 HD
BRANCH  27  29
HETATM   29  C15 UNL     1      -2.211  14.856  17.868  1.00  0.00     0.111 C 
HETATM   30  C16 UNL     1      -2.180  15.114  16.393  1.00  0.00     0.054 C 
HETATM   31  C17 UNL     1      -1.629  13.867  15.765  1.00  0.00     0.234 C 
HETATM   32  N6  UNL     1      -1.393  12.907  16.799  1.00  0.00    -0.073 N 
HETATM   33  C18 UNL     1      -1.381  13.604  18.059  1.00  0.00     0.257 C 
ATOM     34  H62 UNL     1      -2.061  12.136  16.781  1.00  0.00     0.277 HD
ATOM     35  H61 UNL     1      -0.547  12.358  16.643  1.00  0.00     0.277 HD
ENDBRANCH  27  29
ENDBRANCH   7  25
TORSDOF 9
ENDMDL
MODEL 4
REMARK VINA RESULT: -7.035049889      1.137      1.306
REMARK  9 active torsions:
REMARK  status: ('A' for Active; 'I' for Inactive)
REMARK    1  A    between atoms: C2_2  and  C3_3 
REMARK    2  A    between atoms: C3_3  and  C4_4 
REMARK    3  A    between atoms: C4_4  and  C5_5 
REMARK    4  A    between atoms: C5_5  and  C6_6 
REMARK    5  A    between atoms: C6_6  and  C7_7 
REMARK    6  A    between atoms: N2_14  and  S1_15 
REMARK    7  A    between atoms: S1_15  and  N3_18 
REMARK    8  A    between atoms: C13_24  and  C14_25 
REMARK       I    between atoms: C14_25  and  N5_27 
REMARK    9  A    between atoms: N5_27  and  C15_29 
ROOT
HETATM    1  N3  UNL     1       0.020  18.976  19.708  1.00  0.00    -0.194 N 
HETATM    2  C11 UNL     1      -1.309  19.463  19.381  1.00  0.00     0.334 C 
HETATM    3  O4  UNL     1      -1.683  19.775  18.217  1.00  0.00    -0.246 OA
HETATM    4  N4  UNL     1      -2.045  19.505  20.593  1.00  0.00    -0.340 N 
ATOM      5  H4  UNL     1      -2.983  19.887  20.713  1.00  0.00     0.164 HD
HETATM    6  C12 UNL     1      -1.230  18.909  21.630  1.00  0.00     0.160 C 
HETATM    7  C13 UNL     1      -0.244  18.095  20.828  1.00  0.00     0.217 C 
ENDROOT
BRANCH   1   8
HETATM    8  S1  UNL     1       1.483  19.384  18.893  1.00  0.00     0.332 S 
HETATM    9  O2  UNL     1       1.271  18.895  17.448  1.00  0.00    -0.182 OA
HETATM   10  O3  UNL     1       2.548  18.488  19.528  1.00  0.00    -0.182 OA
BRANCH   8  11
HETATM   11  N2  UNL     1       1.868  20.982  18.908  1.00  0.00    -0.256 N 
HETATM   12  C7  UNL     1       3.178  21.492  18.832  1.00  0.00     0.091 C 
HETATM   13  C8  UNL     1       3.763  21.738  20.168  1.00  0.00     0.264 C 
HETATM   14  O1  UNL     1       4.928  21.462  20.521  1.00  0.00    -0.266 OA
HETATM   15  N1  UNL     1       2.918  22.348  21.185  1.00  0.00    -0.354 N 
HETATM   16  C9  UNL     1       1.514  22.001  21.149  1.00  0.00     0.144 C 
ATOM     17  H1  UNL     1       3.296  22.986  21.885  1.00  0.00     0.162 HD
HETATM   18  C10 UNL     1       1.083  21.880  19.711  1.00  0.00     0.163 C 
BRANCH  12  19
HETATM   19  C6  UNL     1       4.065  21.183  17.729  1.00  0.00     0.064 C 
BRANCH  19  20
HETATM   20  C5  UNL     1       3.624  21.315  16.315  1.00  0.00     0.006 C 
BRANCH  20  21
HETATM   21  C4  UNL     1       4.414  20.802  15.200  1.00  0.00     0.000 C 
BRANCH  21  22
HETATM   22  C3  UNL     1       5.812  20.397  15.724  1.00  0.00    -0.000 C 
BRANCH  22  23
HETATM   23  C2  UNL     1       6.747  20.021  14.611  1.00  0.00    -0.005 C 
HETATM   24  C1  UNL     1       6.418  20.790  13.333  1.00  0.00     0.005 C 
ENDBRANCH  22  23
ENDBRANCH  21  22
ENDBRANCH  20  21
ENDBRANCH  19  20
ENDBRANCH  12  19
ENDBRANCH   8  11
ENDBRANCH   1   8
BRANCH   7  25
HETATM   25  C14 UNL     1      -0.963  16.841  20.402  1.00  0.00     0.243 C 
HETATM   26  O5  UNL     1      -1.882  16.403  21.134  1.00  0.00    -0.271 OA
HETATM   27  N5  UNL     1      -0.637  16.157  19.219  1.00  0.00    -0.353 N 
ATOM     28  H5  UNL     1       0.121  16.541  18.655  1.00  0.00     0.163 HD
BRANCH  27  29
HETATM   29  C15 UNL     1      -1.273  14.973  18.737  1.00  0.00     0.111 C 
HETATM   30  C16 UNL     1      -1.979  15.234  17.442  1.00  0.00     0.054 C 
HETATM   31  C17 UNL     1      -1.605  14.101  16.530  1.00  0.00     0.234 C 
HETATM   32  N6  UNL     1      -0.767  13.196  17.255  1.00  0.00    -0.073 N 
HETATM   33  C18 UNL     1      -0.271  13.884  18.419  1.00  0.00     0.257 C 
ATOM     34  H62 UNL     1      -1.238  12.321  17.485  1.00  0.00     0.277 HD
ATOM     35  H61 UNL     1      -0.022  12.803  16.680  1.00  0.00     0.277 HD
ENDBRANCH  27  29
ENDBRANCH   7  25
TORSDOF 9
ENDMDL
MODEL 5
REMARK VINA RESULT: -7.020742453      2.201      2.903
REMARK  9 active torsions:
REMARK  status: ('A' for Active; 'I' for Inactive)
REMARK    1  A    between atoms: C2_2  and  C3_3 
REMARK    2  A    between atoms: C3_3  and  C4_4 
REMARK    3  A    between atoms: C4_4  and  C5_5 
REMARK    4  A    between atoms: C5_5  and  C6_6 
REMARK    5  A    between atoms: C6_6  and  C7_7 
REMARK    6  A    between atoms: N2_14  and  S1_15 
REMARK    7  A    between atoms: S1_15  and  N3_18 
REMARK    8  A    between atoms: C13_24  and  C14_25 
REMARK       I    between atoms: C14_25  and  N5_27 
REMARK    9  A    between atoms: N5_27  and  C15_29 
ROOT
HETATM    1  N3  UNL     1      -1.644  19.141  18.374  1.00  0.00    -0.194 N 
HETATM    2  C11 UNL     1      -2.680  19.394  17.387  1.00  0.00     0.334 C 
HETATM    3  O4  UNL     1      -2.463  19.533  16.153  1.00  0.00    -0.246 OA
HETATM    4  N4  UNL     1      -3.914  19.444  18.086  1.00  0.00    -0.340 N 
ATOM      5  H4  UNL     1      -4.819  19.693  17.688  1.00  0.00     0.164 HD
HETATM    6  C12 UNL     1      -3.661  19.078  19.464  1.00  0.00     0.160 C 
HETATM    7  C13 UNL     1      -2.347  18.344  19.359  1.00  0.00     0.217 C 
ENDROOT
BRANCH   1   8
HETATM    8  S1  UNL     1      -0.008  19.681  18.293  1.00  0.00     0.332 S 
HETATM    9  O2  UNL     1      -0.014  20.770  17.204  1.00  0.00    -0.182 OA
HETATM   10  O3  UNL     1       0.771  18.486  17.740  1.00  0.00    -0.182 OA
BRANCH   8  11
HETATM   11  N2  UNL     1       0.602  20.274  19.698  1.00  0.00    -0.256 N 
HETATM   12  C7  UNL     1       1.267  19.506  20.673  1.00  0.00     0.091 C 
HETATM   13  C8  UNL     1       0.349  19.024  21.729  1.00  0.00     0.264 C 
HETATM   14  O1  UNL     1       0.338  17.879  22.226  1.00  0.00    -0.266 OA
HETATM   15  N1  UNL     1      -0.649  19.950  22.244  1.00  0.00    -0.354 N 
HETATM   16  C9  UNL     1      -1.194  20.901  21.300  1.00  0.00     0.144 C 
ATOM     17  H1  UNL     1      -0.949  19.929  23.219  1.00  0.00     0.162 HD
HETATM   18  C10 UNL     1      -0.096  21.339  20.366  1.00  0.00     0.163 C 
BRANCH  12  19
HETATM   19  C6  UNL     1       2.449  18.725  20.368  1.00  0.00     0.064 C 
BRANCH  19  20
HETATM   20  C5  UNL     1       3.812  19.215  20.707  1.00  0.00     0.006 C 
BRANCH  20  21
HETATM   21  C4  UNL     1       4.033  20.379  21.560  1.00  0.00     0.000 C 
BRANCH  21  22
HETATM   22  C3  UNL     1       4.901  21.402  20.790  1.00  0.00    -0.000 C 
BRANCH  22  23
HETATM   23  C2  UNL     1       4.304  21.766  19.461  1.00  0.00    -0.005 C 
HETATM   24  C1  UNL     1       5.391  21.998  18.414  1.00  0.00     0.005 C 
ENDBRANCH  22  23
ENDBRANCH  21  22
ENDBRANCH  20  21
ENDBRANCH  19  20
ENDBRANCH  12  19
ENDBRANCH   8  11
ENDBRANCH   1   8
BRANCH   7  25
HETATM   25  C14 UNL     1      -2.661  16.963  18.846  1.00  0.00     0.243 C 
HETATM   26  O5  UNL     1      -3.857  16.675  18.605  1.00  0.00    -0.271 OA
HETATM   27  N5  UNL     1      -1.662  15.999  18.630  1.00  0.00    -0.353 N 
ATOM     28  H5  UNL     1      -0.702  16.270  18.845  1.00  0.00     0.163 HD
BRANCH  27  29
HETATM   29  C15 UNL     1      -1.870  14.676  18.137  1.00  0.00     0.111 C 
HETATM   30  C16 UNL     1      -2.228  14.696  16.683  1.00  0.00     0.054 C 
HETATM   31  C17 UNL     1      -1.383  13.640  16.032  1.00  0.00     0.234 C 
HETATM   32  N6  UNL     1      -0.605  12.997  17.046  1.00  0.00    -0.073 N 
HETATM   33  C18 UNL     1      -0.609  13.841  18.213  1.00  0.00     0.257 C 
ATOM     34  H62 UNL     1      -0.922  12.048  17.244  1.00  0.00     0.277 HD
ATOM     35  H61 UNL     1       0.337  12.763  16.731  1.00  0.00     0.277 HD
ENDBRANCH  27  29
ENDBRANCH   7  25
TORSDOF 9
ENDMDL
