MODEL 1
REMARK VINA RESULT: -7.190022132      0.000      0.000
REMARK  9 active torsions:
REMARK  status: ('A' for Active; 'I' for Inactive)
REMARK    1  A    between atoms: C2_2  and  O1_3 
REMARK    2  A    between atoms: O1_3  and  C3_4 
REMARK    3  A    between atoms: C5_7  and  O3_8 
REMARK    4  A    between atoms: C6_10  and  O4_11 
REMARK    5  A    between atoms: C7_13  and  O5_14 
REMARK    6  A    between atoms: C8_16  and  N1_17 
REMARK    7  A    between atoms: C8_16  and  N2_21 
REMARK    8  A    between atoms: N1_17  and  O6_19 
REMARK    9  A    between atoms: N2_21  and  C9_23 
ROOT
HETATM    1  C1  UNL     1      72.248  45.665  51.488  1.00  0.00     0.080 C 
HETATM    2  C2  UNL     1      72.310  44.381  52.258  1.00  0.00     0.091 C 
HETATM    3  C8  UNL     1      71.413  44.052  53.140  1.00  0.00     0.155 C 
ENDROOT
BRANCH   2   4
HETATM    4  O1  UNL     1      73.367  43.551  51.993  1.00  0.00    -0.319 OA
BRANCH   4   5
HETATM    5  C3  UNL     1      73.381  42.613  50.935  1.00  0.00     0.297 C 
HETATM    6  O2  UNL     1      73.158  41.355  51.450  1.00  0.00    -0.356 OA
HETATM    7  C4  UNL     1      72.959  40.494  50.382  1.00  0.00     0.205 C 
HETATM    8  C5  UNL     1      74.132  40.341  49.487  1.00  0.00     0.173 C 
HETATM    9  C6  UNL     1      74.944  41.564  49.273  1.00  0.00     0.182 C 
HETATM   10  C7  UNL     1      74.714  42.661  50.269  1.00  0.00     0.205 C 
BRANCH   8  11
HETATM   11  O3  UNL     1      74.960  39.331  50.015  1.00  0.00    -0.391 OA
ATOM     12  H3  UNL     1      75.863  39.614  49.933  1.00  0.00     0.210 HD
ENDBRANCH   8  11
BRANCH   9  13
HETATM   13  O4  UNL     1      74.622  42.080  48.008  1.00  0.00    -0.390 OA
ATOM     14  H4  UNL     1      74.384  42.993  48.117  1.00  0.00     0.210 HD
ENDBRANCH   9  13
BRANCH  10  15
HETATM   15  O5  UNL     1      75.696  42.617  51.261  1.00  0.00    -0.388 OA
ATOM     16  H5  UNL     1      76.532  42.460  50.841  1.00  0.00     0.210 HD
ENDBRANCH  10  15
ENDBRANCH   4   5
ENDBRANCH   2   4
BRANCH   3  17
HETATM   17  N1  UNL     1      71.524  42.822  53.840  1.00  0.00    -0.251 N 
ATOM     18  H1  UNL     1      70.699  42.232  53.947  1.00  0.00     0.196 HD
BRANCH  17  19
HETATM   19  O6  UNL     1      72.685  42.423  54.360  1.00  0.00    -0.288 OA
ATOM     20  H6  UNL     1      73.323  41.951  53.839  1.00  0.00     0.244 HD
ENDBRANCH  17  19
ENDBRANCH   3  17
BRANCH   3  21
HETATM   21  N2  UNL     1      70.311  44.902  53.425  1.00  0.00    -0.337 N 
ATOM     22  H2  UNL     1      69.430  44.775  52.926  1.00  0.00     0.168 HD
BRANCH  21  23
HETATM   23  C9  UNL     1      70.430  45.927  54.400  1.00  0.00     0.072 A 
HETATM   24  C10 UNL     1      71.417  45.842  55.356  1.00  0.00     0.036 A 
HETATM   25  C11 UNL     1      71.571  46.827  56.334  1.00  0.00     0.044 A 
HETATM   26  C12 UNL     1      70.732  47.920  56.368  1.00  0.00     0.119 A 
HETATM   27  F1  UNL     1      70.862  48.898  57.314  1.00  0.00    -0.206 F 
HETATM   28  C13 UNL     1      69.747  48.011  55.417  1.00  0.00     0.086 A 
HETATM   29  C14 UNL     1      69.595  47.023  54.439  1.00  0.00     0.145 A 
HETATM   30  F2  UNL     1      68.614  47.132  53.508  1.00  0.00    -0.204 F 
ENDBRANCH  21  23
ENDBRANCH   3  21
TORSDOF 9
ENDMDL
MODEL 2
REMARK VINA RESULT: -6.892086658      1.039      1.515
REMARK  9 active torsions:
REMARK  status: ('A' for Active; 'I' for Inactive)
REMARK    1  A    between atoms: C2_2  and  O1_3 
REMARK    2  A    between atoms: O1_3  and  C3_4 
REMARK    3  A    between atoms: C5_7  and  O3_8 
REMARK    4  A    between atoms: C6_10  and  O4_11 
REMARK    5  A    between atoms: C7_13  and  O5_14 
REMARK    6  A    between atoms: C8_16  and  N1_17 
REMARK    7  A    between atoms: C8_16  and  N2_21 
REMARK    8  A    between atoms: N1_17  and  O6_19 
REMARK    9  A    between atoms: N2_21  and  C9_23 
ROOT
HETATM    1  C1  UNL     1      72.825  42.924  54.220  1.00  0.00     0.080 C 
HETATM    2  C2  UNL     1      72.633  43.740  52.978  1.00  0.00     0.091 C 
HETATM    3  C8  UNL     1      71.616  44.533  52.813  1.00  0.00     0.155 C 
ENDROOT
BRANCH   2   4
HETATM    4  O1  UNL     1      73.588  43.617  52.004  1.00  0.00    -0.319 OA
BRANCH   4   5
HETATM    5  C3  UNL     1      73.513  42.682  50.945  1.00  0.00     0.297 C 
HETATM    6  O2  UNL     1      73.238  41.437  51.466  1.00  0.00    -0.356 OA
HETATM    7  C4  UNL     1      72.953  40.591  50.406  1.00  0.00     0.205 C 
HETATM    8  C5  UNL     1      74.084  40.375  49.470  1.00  0.00     0.173 C 
HETATM    9  C6  UNL     1      74.955  41.552  49.228  1.00  0.00     0.182 C 
HETATM   10  C7  UNL     1      74.821  42.657  50.232  1.00  0.00     0.205 C 
BRANCH   8  11
HETATM   11  O3  UNL     1      74.871  39.319  49.968  1.00  0.00    -0.391 OA
ATOM     12  H3  UNL     1      75.771  39.466  49.698  1.00  0.00     0.210 HD
ENDBRANCH   8  11
BRANCH   9  13
HETATM   13  O4  UNL     1      74.617  42.088  47.976  1.00  0.00    -0.390 OA
ATOM     14  H4  UNL     1      75.267  41.796  47.348  1.00  0.00     0.210 HD
ENDBRANCH   9  13
BRANCH  10  15
HETATM   15  O5  UNL     1      75.834  42.556  51.189  1.00  0.00    -0.388 OA
ATOM     16  H5  UNL     1      76.489  43.216  50.996  1.00  0.00     0.210 HD
ENDBRANCH  10  15
ENDBRANCH   4   5
ENDBRANCH   2   4
BRANCH   3  17
HETATM   17  N1  UNL     1      71.486  45.281  51.614  1.00  0.00    -0.251 N 
ATOM     18  H1  UNL     1      72.299  45.769  51.240  1.00  0.00     0.196 HD
BRANCH  17  19
HETATM   19  O6  UNL     1      70.322  45.358  50.969  1.00  0.00    -0.288 OA
ATOM     20  H6  UNL     1      70.174  44.884  50.159  1.00  0.00     0.244 HD
ENDBRANCH  17  19
ENDBRANCH   3  17
BRANCH   3  21
HETATM   21  N2  UNL     1      70.618  44.670  53.816  1.00  0.00    -0.337 N 
ATOM     22  H2  UNL     1      69.945  43.919  53.968  1.00  0.00     0.168 HD
BRANCH  21  23
HETATM   23  C9  UNL     1      70.554  45.848  54.606  1.00  0.00     0.072 A 
HETATM   24  C10 UNL     1      71.449  46.022  55.638  1.00  0.00     0.036 A 
HETATM   25  C11 UNL     1      71.424  47.164  56.441  1.00  0.00     0.044 A 
HETATM   26  C12 UNL     1      70.493  48.156  56.221  1.00  0.00     0.119 A 
HETATM   27  F1  UNL     1      70.447  49.284  56.991  1.00  0.00    -0.206 F 
HETATM   28  C13 UNL     1      69.598  47.990  55.193  1.00  0.00     0.086 A 
HETATM   29  C14 UNL     1      69.627  46.844  54.391  1.00  0.00     0.145 A 
HETATM   30  F2  UNL     1      68.732  46.699  53.381  1.00  0.00    -0.204 F 
ENDBRANCH  21  23
ENDBRANCH   3  21
TORSDOF 9
ENDMDL
MODEL 3
REMARK VINA RESULT: -6.891347450      1.439      1.625
REMARK  9 active torsions:
REMARK  status: ('A' for Active; 'I' for Inactive)
REMARK    1  A    between atoms: C2_2  and  O1_3 
REMARK    2  A    between atoms: O1_3  and  C3_4 
REMARK    3  A    between atoms: C5_7  and  O3_8 
REMARK    4  A    between atoms: C6_10  and  O4_11 
REMARK    5  A    between atoms: C7_13  and  O5_14 
REMARK    6  A    between atoms: C8_16  and  N1_17 
REMARK    7  A    between atoms: C8_16  and  N2_21 
REMARK    8  A    between atoms: N1_17  and  O6_19 
REMARK    9  A    between atoms: N2_21  and  C9_23 
ROOT
HETATM    1  C1  UNL     1      72.141  45.817  50.852  1.00  0.00     0.080 C 
HETATM    2  C2  UNL     1      72.001  44.575  51.677  1.00  0.00     0.091 C 
HETATM    3  C8  UNL     1      70.947  44.330  52.398  1.00  0.00     0.155 C 
ENDROOT
BRANCH   2   4
HETATM    4  O1  UNL     1      73.046  43.689  51.644  1.00  0.00    -0.319 OA
BRANCH   4   5
HETATM    5  C3  UNL     1      73.175  42.666  50.676  1.00  0.00     0.297 C 
HETATM    6  O2  UNL     1      73.009  41.445  51.291  1.00  0.00    -0.356 OA
HETATM    7  C4  UNL     1      72.921  40.483  50.298  1.00  0.00     0.205 C 
HETATM    8  C5  UNL     1      74.146  40.334  49.474  1.00  0.00     0.173 C 
HETATM    9  C6  UNL     1      74.886  41.588  49.187  1.00  0.00     0.182 C 
HETATM   10  C7  UNL     1      74.534  42.749  50.070  1.00  0.00     0.205 C 
BRANCH   8  11
HETATM   11  O3  UNL     1      75.010  39.434  50.128  1.00  0.00    -0.391 OA
ATOM     12  H3  UNL     1      74.499  38.684  50.410  1.00  0.00     0.210 HD
ENDBRANCH   8  11
BRANCH   9  13
HETATM   13  O4  UNL     1      74.597  41.969  47.868  1.00  0.00    -0.390 OA
ATOM     14  H4  UNL     1      74.789  41.231  47.302  1.00  0.00     0.210 HD
ENDBRANCH   9  13
BRANCH  10  15
HETATM   15  O5  UNL     1      75.465  42.860  51.105  1.00  0.00    -0.388 OA
ATOM     16  H5  UNL     1      75.433  43.750  51.435  1.00  0.00     0.210 HD
ENDBRANCH  10  15
ENDBRANCH   4   5
ENDBRANCH   2   4
BRANCH   3  17
HETATM   17  N1  UNL     1      70.870  43.135  53.161  1.00  0.00    -0.251 N 
ATOM     18  H1  UNL     1      70.028  42.563  53.110  1.00  0.00     0.196 HD
BRANCH  17  19
HETATM   19  O6  UNL     1      71.878  42.747  53.943  1.00  0.00    -0.288 OA
ATOM     20  H6  UNL     1      72.390  41.974  53.740  1.00  0.00     0.244 HD
ENDBRANCH  17  19
ENDBRANCH   3  17
BRANCH   3  21
HETATM   21  N2  UNL     1      69.855  45.239  52.442  1.00  0.00    -0.337 N 
ATOM     22  H2  UNL     1      69.459  45.598  51.573  1.00  0.00     0.168 HD
BRANCH  21  23
HETATM   23  C9  UNL     1      69.314  45.649  53.689  1.00  0.00     0.072 A 
HETATM   24  C10 UNL     1      69.965  46.612  54.427  1.00  0.00     0.036 A 
HETATM   25  C11 UNL     1      69.470  47.046  55.658  1.00  0.00     0.044 A 
HETATM   26  C12 UNL     1      68.305  46.517  56.172  1.00  0.00     0.119 A 
HETATM   27  F1  UNL     1      67.798  46.924  57.374  1.00  0.00    -0.206 F 
HETATM   28  C13 UNL     1      67.651  45.557  55.440  1.00  0.00     0.086 A 
HETATM   29  C14 UNL     1      68.150  45.125  54.207  1.00  0.00     0.145 A 
HETATM   30  F2  UNL     1      67.488  44.174  53.501  1.00  0.00    -0.204 F 
ENDBRANCH  21  23
ENDBRANCH   3  21
TORSDOF 9
ENDMDL
MODEL 4
REMARK VINA RESULT: -6.851117858      1.888      2.830
REMARK  9 active torsions:
REMARK  status: ('A' for Active; 'I' for Inactive)
REMARK    1  A    between atoms: C2_2  and  O1_3 
REMARK    2  A    between atoms: O1_3  and  C3_4 
REMARK    3  A    between atoms: C5_7  and  O3_8 
REMARK    4  A    between atoms: C6_10  and  O4_11 
REMARK    5  A    between atoms: C7_13  and  O5_14 
REMARK    6  A    between atoms: C8_16  and  N1_17 
REMARK    7  A    between atoms: C8_16  and  N2_21 
REMARK    8  A    between atoms: N1_17  and  O6_19 
REMARK    9  A    between atoms: N2_21  and  C9_23 
ROOT
HETATM    1  C1  UNL     1      71.742  45.204  51.003  1.00  0.00     0.080 C 
HETATM    2  C2  UNL     1      72.316  44.424  52.146  1.00  0.00     0.091 C 
HETATM    3  C8  UNL     1      71.833  44.494  53.352  1.00  0.00     0.155 C 
ENDROOT
BRANCH   2   4
HETATM    4  O1  UNL     1      73.389  43.620  51.869  1.00  0.00    -0.319 OA
BRANCH   4   5
HETATM    5  C3  UNL     1      73.395  42.646  50.844  1.00  0.00     0.297 C 
HETATM    6  O2  UNL     1      73.167  41.407  51.402  1.00  0.00    -0.356 OA
HETATM    7  C4  UNL     1      72.959  40.511  50.365  1.00  0.00     0.205 C 
HETATM    8  C5  UNL     1      74.129  40.321  49.472  1.00  0.00     0.173 C 
HETATM    9  C6  UNL     1      74.947  41.532  49.214  1.00  0.00     0.182 C 
HETATM   10  C7  UNL     1      74.726  42.664  50.173  1.00  0.00     0.205 C 
BRANCH   8  11
HETATM   11  O3  UNL     1      74.953  39.325  50.032  1.00  0.00    -0.391 OA
ATOM     12  H3  UNL     1      74.927  38.564  49.464  1.00  0.00     0.210 HD
ENDBRANCH   8  11
BRANCH   9  13
HETATM   13  O4  UNL     1      74.624  42.007  47.933  1.00  0.00    -0.390 OA
ATOM     14  H4  UNL     1      74.068  42.769  48.036  1.00  0.00     0.210 HD
ENDBRANCH   9  13
BRANCH  10  15
HETATM   15  O5  UNL     1      75.711  42.649  51.163  1.00  0.00    -0.388 OA
ATOM     16  H5  UNL     1      76.252  43.421  51.051  1.00  0.00     0.210 HD
ENDBRANCH  10  15
ENDBRANCH   4   5
ENDBRANCH   2   4
BRANCH   3  17
HETATM   17  N1  UNL     1      72.419  43.733  54.396  1.00  0.00    -0.251 N 
ATOM     18  H1  UNL     1      72.717  44.203  55.250  1.00  0.00     0.196 HD
BRANCH  17  19
HETATM   19  O6  UNL     1      72.587  42.415  54.282  1.00  0.00    -0.288 OA
ATOM     20  H6  UNL     1      72.510  41.841  55.035  1.00  0.00     0.244 HD
ENDBRANCH  17  19
ENDBRANCH   3  17
BRANCH   3  21
HETATM   21  N2  UNL     1      70.720  45.324  53.653  1.00  0.00    -0.337 N 
ATOM     22  H2  UNL     1      70.856  46.325  53.790  1.00  0.00     0.168 HD
BRANCH  21  23
HETATM   23  C9  UNL     1      69.419  44.765  53.765  1.00  0.00     0.072 A 
HETATM   24  C10 UNL     1      69.226  43.432  53.478  1.00  0.00     0.036 A 
HETATM   25  C11 UNL     1      67.965  42.841  53.574  1.00  0.00     0.044 A 
HETATM   26  C12 UNL     1      66.870  43.582  53.961  1.00  0.00     0.119 A 
HETATM   27  F1  UNL     1      65.625  43.028  54.064  1.00  0.00    -0.206 F 
HETATM   28  C13 UNL     1      67.055  44.912  54.249  1.00  0.00     0.086 A 
HETATM   29  C14 UNL     1      68.320  45.501  54.152  1.00  0.00     0.145 A 
HETATM   30  F2  UNL     1      68.481  46.817  54.440  1.00  0.00    -0.204 F 
ENDBRANCH  21  23
ENDBRANCH   3  21
TORSDOF 9
ENDMDL
MODEL 5
REMARK VINA RESULT: -6.832213556      1.988      2.392
REMARK  9 active torsions:
REMARK  status: ('A' for Active; 'I' for Inactive)
REMARK    1  A    between atoms: C2_2  and  O1_3 
REMARK    2  A    between atoms: O1_3  and  C3_4 
REMARK    3  A    between atoms: C5_7  and  O3_8 
REMARK    4  A    between atoms: C6_10  and  O4_11 
REMARK    5  A    between atoms: C7_13  and  O5_14 
REMARK    6  A    between atoms: C8_16  and  N1_17 
REMARK    7  A    between atoms: C8_16  and  N2_21 
REMARK    8  A    between atoms: N1_17  and  O6_19 
REMARK    9  A    between atoms: N2_21  and  C9_23 
ROOT
HETATM    1  C1  UNL     1      73.948  45.412  53.037  1.00  0.00     0.080 C 
HETATM    2  C2  UNL     1      73.578  44.015  53.433  1.00  0.00     0.091 C 
HETATM    3  C8  UNL     1      72.621  43.758  54.275  1.00  0.00     0.155 C 
ENDROOT
BRANCH   2   4
HETATM    4  O1  UNL     1      74.299  42.999  52.863  1.00  0.00    -0.319 OA
BRANCH   4   5
HETATM    5  C3  UNL     1      73.955  42.386  51.636  1.00  0.00     0.297 C 
HETATM    6  O2  UNL     1      73.593  41.079  51.875  1.00  0.00    -0.356 OA
HETATM    7  C4  UNL     1      73.055  40.571  50.703  1.00  0.00     0.205 C 
HETATM    8  C5  UNL     1      74.007  40.505  49.566  1.00  0.00     0.173 C 
HETATM    9  C6  UNL     1      74.983  41.618  49.477  1.00  0.00     0.182 C 
HETATM   10  C7  UNL     1      75.137  42.429  50.729  1.00  0.00     0.205 C 
BRANCH   8  11
HETATM   11  O3  UNL     1      74.710  39.287  49.651  1.00  0.00    -0.391 OA
ATOM     12  H3  UNL     1      74.646  38.969  50.545  1.00  0.00     0.210 HD
ENDBRANCH   8  11
BRANCH   9  13
HETATM   13  O4  UNL     1      74.549  42.494  48.469  1.00  0.00    -0.390 OA
ATOM     14  H4  UNL     1      73.837  43.014  48.821  1.00  0.00     0.210 HD
ENDBRANCH   9  13
BRANCH  10  15
HETATM   15  O5  UNL     1      76.250  41.988  51.449  1.00  0.00    -0.388 OA
ATOM     16  H5  UNL     1      76.995  41.976  50.860  1.00  0.00     0.210 HD
ENDBRANCH  10  15
ENDBRANCH   4   5
ENDBRANCH   2   4
BRANCH   3  17
HETATM   17  N1  UNL     1      72.315  42.414  54.613  1.00  0.00    -0.251 N 
ATOM     18  H1  UNL     1      71.344  42.105  54.603  1.00  0.00     0.196 HD
BRANCH  17  19
HETATM   19  O6  UNL     1      73.274  41.548  54.943  1.00  0.00    -0.288 OA
ATOM     20  H6  UNL     1      73.067  40.710  55.339  1.00  0.00     0.244 HD
ENDBRANCH  17  19
ENDBRANCH   3  17
BRANCH   3  21
HETATM   21  N2  UNL     1      71.865  44.801  54.873  1.00  0.00    -0.337 N 
ATOM     22  H2  UNL     1      72.333  45.504  55.445  1.00  0.00     0.168 HD
BRANCH  21  23
HETATM   23  C9  UNL     1      70.460  44.871  54.678  1.00  0.00     0.072 A 
HETATM   24  C10 UNL     1      69.619  44.268  55.586  1.00  0.00     0.036 A 
HETATM   25  C11 UNL     1      68.231  44.310  55.435  1.00  0.00     0.044 A 
HETATM   26  C12 UNL     1      67.662  44.963  54.362  1.00  0.00     0.119 A 
HETATM   27  F1  UNL     1      66.307  45.020  54.191  1.00  0.00    -0.206 F 
HETATM   28  C13 UNL     1      68.495  45.566  53.453  1.00  0.00     0.086 A 
HETATM   29  C14 UNL     1      69.885  45.522  53.609  1.00  0.00     0.145 A 
HETATM   30  F2  UNL     1      70.690  46.124  52.698  1.00  0.00    -0.204 F 
ENDBRANCH  21  23
ENDBRANCH   3  21
TORSDOF 9
ENDMDL
