MODEL 1
REMARK VINA RESULT: -6.727384953      0.000      0.000
REMARK  11 active torsions:
REMARK  status: ('A' for Active; 'I' for Inactive)
REMARK    1  A    between atoms: O1_1  and  C1_3 
REMARK    2  A    between atoms: C2_4  and  O2_5 
REMARK    3  A    between atoms: C3_7  and  O3_8 
REMARK    4  A    between atoms: C4_10  and  S1_11 
REMARK    5  A    between atoms: S1_11  and  S2_12 
REMARK    6  A    between atoms: S2_12  and  S3_13 
REMARK    7  A    between atoms: S3_13  and  C5_14 
REMARK    8  A    between atoms: C5_14  and  C6_16 
REMARK    9  A    between atoms: C6_16  and  C7_17 
REMARK   10  A    between atoms: C8_19  and  O4_20 
REMARK   11  A    between atoms: C9_22  and  O5_23 
ROOT
HETATM    1  C1  UNL     1      73.046  40.551  50.819  1.00  0.00     0.180 C 
HETATM    2  C2  UNL     1      73.495  41.494  49.746  1.00  0.00     0.179 C 
HETATM    3  C3  UNL     1      74.755  42.216  50.016  1.00  0.00     0.166 C 
HETATM    4  C4  UNL     1      75.104  42.439  51.440  1.00  0.00     0.122 C 
HETATM    5  C8  UNL     1      74.703  41.362  52.384  1.00  0.00     0.166 C 
HETATM    6  C9  UNL     1      74.242  40.135  51.622  1.00  0.00     0.179 C 
ENDROOT
BRANCH   4   7
HETATM    7  S1  UNL     1      74.492  44.069  52.016  1.00  0.00    -0.076 SA
BRANCH   7   8
HETATM    8  S2  UNL     1      74.330  45.310  50.307  1.00  0.00    -0.021 SA
BRANCH   8   9
HETATM    9  S3  UNL     1      72.474  46.368  50.448  1.00  0.00    -0.049 SA
BRANCH   9  10
HETATM   10  C5  UNL     1      72.602  47.950  49.558  1.00  0.00     0.245 C 
HETATM   11  F1  UNL     1      71.570  48.801  49.840  1.00  0.00    -0.237 F 
BRANCH  10  12
HETATM   12  C6  UNL     1      73.923  48.585  49.849  1.00  0.00     0.080 C 
BRANCH  12  13
HETATM   13  C7  UNL     1      74.722  48.753  48.579  1.00  0.00     0.226 C 
HETATM   14  F2  UNL     1      75.829  47.929  48.702  1.00  0.00    -0.255 F 
ENDBRANCH  12  13
ENDBRANCH  10  12
ENDBRANCH   9  10
ENDBRANCH   8   9
ENDBRANCH   7   8
ENDBRANCH   4   7
BRANCH   3  15
HETATM   15  O3  UNL     1      75.840  41.609  49.344  1.00  0.00    -0.392 OA
ATOM     16  H3  UNL     1      76.656  41.766  49.804  1.00  0.00     0.210 HD
ENDBRANCH   3  15
BRANCH   5  17
HETATM   17  O4  UNL     1      73.613  41.779  53.157  1.00  0.00    -0.392 OA
ATOM     18  H4  UNL     1      73.876  41.883  54.064  1.00  0.00     0.210 HD
ENDBRANCH   5  17
BRANCH   2  19
HETATM   19  O2  UNL     1      73.699  40.704  48.589  1.00  0.00    -0.390 OA
ATOM     20  H2  UNL     1      73.791  41.313  47.866  1.00  0.00     0.210 HD
ENDBRANCH   2  19
BRANCH   6  21
HETATM   21  O5  UNL     1      73.820  39.133  52.506  1.00  0.00    -0.390 OA
ATOM     22  H5  UNL     1      74.249  38.327  52.243  1.00  0.00     0.210 HD
ENDBRANCH   6  21
BRANCH   1  23
HETATM   23  O1  UNL     1      72.366  39.449  50.282  1.00  0.00    -0.390 OA
ATOM     24  H1  UNL     1      71.669  39.722  49.696  1.00  0.00     0.210 HD
ENDBRANCH   1  23
TORSDOF 11
ENDMDL
MODEL 2
REMARK VINA RESULT: -6.539432715      1.090      1.286
REMARK  11 active torsions:
REMARK  status: ('A' for Active; 'I' for Inactive)
REMARK    1  A    between atoms: O1_1  and  C1_3 
REMARK    2  A    between atoms: C2_4  and  O2_5 
REMARK    3  A    between atoms: C3_7  and  O3_8 
REMARK    4  A    between atoms: C4_10  and  S1_11 
REMARK    5  A    between atoms: S1_11  and  S2_12 
REMARK    6  A    between atoms: S2_12  and  S3_13 
REMARK    7  A    between atoms: S3_13  and  C5_14 
REMARK    8  A    between atoms: C5_14  and  C6_16 
REMARK    9  A    between atoms: C6_16  and  C7_17 
REMARK   10  A    between atoms: C8_19  and  O4_20 
REMARK   11  A    between atoms: C9_22  and  O5_23 
ROOT
HETATM    1  C1  UNL     1      73.904  40.164  51.820  1.00  0.00     0.180 C 
HETATM    2  C2  UNL     1      73.938  40.524  50.367  1.00  0.00     0.179 C 
HETATM    3  C3  UNL     1      74.502  41.851  50.050  1.00  0.00     0.166 C 
HETATM    4  C4  UNL     1      74.396  42.890  51.103  1.00  0.00     0.122 C 
HETATM    5  C8  UNL     1      74.499  42.406  52.505  1.00  0.00     0.166 C 
HETATM    6  C9  UNL     1      74.954  40.961  52.535  1.00  0.00     0.179 C 
ENDROOT
BRANCH   4   7
HETATM    7  S1  UNL     1      72.883  43.901  50.874  1.00  0.00    -0.076 SA
BRANCH   7   8
HETATM    8  S2  UNL     1      73.486  45.931  50.881  1.00  0.00    -0.021 SA
BRANCH   8   9
HETATM    9  S3  UNL     1      71.881  47.087  50.062  1.00  0.00    -0.049 SA
BRANCH   9  10
HETATM   10  C5  UNL     1      72.543  48.605  49.307  1.00  0.00     0.245 C 
HETATM   11  F1  UNL     1      71.774  49.704  49.567  1.00  0.00    -0.237 F 
BRANCH  10  12
HETATM   12  C6  UNL     1      73.954  48.814  49.753  1.00  0.00     0.080 C 
BRANCH  12  13
HETATM   13  C7  UNL     1      74.901  48.716  48.580  1.00  0.00     0.226 C 
HETATM   14  F2  UNL     1      75.707  47.615  48.821  1.00  0.00    -0.255 F 
ENDBRANCH  12  13
ENDBRANCH  10  12
ENDBRANCH   9  10
ENDBRANCH   8   9
ENDBRANCH   7   8
ENDBRANCH   4   7
BRANCH   3  15
HETATM   15  O3  UNL     1      75.842  41.741  49.617  1.00  0.00    -0.392 OA
ATOM     16  H3  UNL     1      76.429  42.207  50.201  1.00  0.00     0.210 HD
ENDBRANCH   3  15
BRANCH   5  17
HETATM   17  O4  UNL     1      73.242  42.437  53.120  1.00  0.00    -0.392 OA
ATOM     18  H4  UNL     1      72.733  41.678  52.862  1.00  0.00     0.210 HD
ENDBRANCH   5  17
BRANCH   2  19
HETATM   19  O2  UNL     1      74.759  39.554  49.742  1.00  0.00    -0.390 OA
ATOM     20  H2  UNL     1      74.316  39.314  48.936  1.00  0.00     0.210 HD
ENDBRANCH   2  19
BRANCH   6  21
HETATM   21  O5  UNL     1      75.010  40.486  53.852  1.00  0.00    -0.390 OA
ATOM     22  H5  UNL     1      75.130  39.544  53.806  1.00  0.00     0.210 HD
ENDBRANCH   6  21
BRANCH   1  23
HETATM   23  O1  UNL     1      74.070  38.785  52.012  1.00  0.00    -0.390 OA
ATOM     24  H1  UNL     1      74.629  38.603  52.758  1.00  0.00     0.210 HD
ENDBRANCH   1  23
TORSDOF 11
ENDMDL
MODEL 3
REMARK VINA RESULT: -6.463876444      1.537      1.999
REMARK  11 active torsions:
REMARK  status: ('A' for Active; 'I' for Inactive)
REMARK    1  A    between atoms: O1_1  and  C1_3 
REMARK    2  A    between atoms: C2_4  and  O2_5 
REMARK    3  A    between atoms: C3_7  and  O3_8 
REMARK    4  A    between atoms: C4_10  and  S1_11 
REMARK    5  A    between atoms: S1_11  and  S2_12 
REMARK    6  A    between atoms: S2_12  and  S3_13 
REMARK    7  A    between atoms: S3_13  and  C5_14 
REMARK    8  A    between atoms: C5_14  and  C6_16 
REMARK    9  A    between atoms: C6_16  and  C7_17 
REMARK   10  A    between atoms: C8_19  and  O4_20 
REMARK   11  A    between atoms: C9_22  and  O5_23 
ROOT
HETATM    1  C1  UNL     1      73.890  40.464  51.728  1.00  0.00     0.180 C 
HETATM    2  C2  UNL     1      73.817  40.728  50.256  1.00  0.00     0.179 C 
HETATM    3  C3  UNL     1      74.505  41.949  49.791  1.00  0.00     0.166 C 
HETATM    4  C4  UNL     1      74.638  43.054  50.770  1.00  0.00     0.122 C 
HETATM    5  C8  UNL     1      74.827  42.646  52.188  1.00  0.00     0.166 C 
HETATM    6  C9  UNL     1      75.100  41.159  52.279  1.00  0.00     0.179 C 
ENDROOT
BRANCH   4   7
HETATM    7  S1  UNL     1      73.247  44.238  50.614  1.00  0.00    -0.076 SA
BRANCH   7   8
HETATM    8  S2  UNL     1      73.971  46.132  51.224  1.00  0.00    -0.021 SA
BRANCH   8   9
HETATM    9  S3  UNL     1      74.276  47.309  49.462  1.00  0.00    -0.049 SA
BRANCH   9  10
HETATM   10  C5  UNL     1      72.835  48.386  49.189  1.00  0.00     0.245 C 
HETATM   11  F1  UNL     1      71.796  48.105  50.032  1.00  0.00    -0.237 F 
BRANCH  10  12
HETATM   12  C6  UNL     1      73.250  49.818  49.301  1.00  0.00     0.080 C 
BRANCH  12  13
HETATM   13  C7  UNL     1      72.081  50.731  49.017  1.00  0.00     0.226 C 
HETATM   14  F2  UNL     1      72.489  52.007  49.370  1.00  0.00    -0.255 F 
ENDBRANCH  12  13
ENDBRANCH  10  12
ENDBRANCH   9  10
ENDBRANCH   8   9
ENDBRANCH   7   8
ENDBRANCH   4   7
BRANCH   3  15
HETATM   15  O3  UNL     1      75.769  41.639  49.240  1.00  0.00    -0.392 OA
ATOM     16  H3  UNL     1      76.424  42.269  49.516  1.00  0.00     0.210 HD
ENDBRANCH   3  15
BRANCH   5  17
HETATM   17  O4  UNL     1      73.654  42.878  52.917  1.00  0.00    -0.392 OA
ATOM     18  H4  UNL     1      73.184  43.619  52.552  1.00  0.00     0.210 HD
ENDBRANCH   5  17
BRANCH   2  19
HETATM   19  O2  UNL     1      74.442  39.624  49.628  1.00  0.00    -0.390 OA
ATOM     20  H2  UNL     1      75.311  39.918  49.381  1.00  0.00     0.210 HD
ENDBRANCH   2  19
BRANCH   6  21
HETATM   21  O5  UNL     1      75.234  40.760  53.616  1.00  0.00    -0.390 OA
ATOM     22  H5  UNL     1      76.057  41.113  53.934  1.00  0.00     0.210 HD
ENDBRANCH   6  21
BRANCH   1  23
HETATM   23  O1  UNL     1      73.904  39.089  52.003  1.00  0.00    -0.390 OA
ATOM     24  H1  UNL     1      73.277  38.865  52.681  1.00  0.00     0.210 HD
ENDBRANCH   1  23
TORSDOF 11
ENDMDL
MODEL 4
REMARK VINA RESULT: -6.380222092      1.332      2.165
REMARK  11 active torsions:
REMARK  status: ('A' for Active; 'I' for Inactive)
REMARK    1  A    between atoms: O1_1  and  C1_3 
REMARK    2  A    between atoms: C2_4  and  O2_5 
REMARK    3  A    between atoms: C3_7  and  O3_8 
REMARK    4  A    between atoms: C4_10  and  S1_11 
REMARK    5  A    between atoms: S1_11  and  S2_12 
REMARK    6  A    between atoms: S2_12  and  S3_13 
REMARK    7  A    between atoms: S3_13  and  C5_14 
REMARK    8  A    between atoms: C5_14  and  C6_16 
REMARK    9  A    between atoms: C6_16  and  C7_17 
REMARK   10  A    between atoms: C8_19  and  O4_20 
REMARK   11  A    between atoms: C9_22  and  O5_23 
ROOT
HETATM    1  C1  UNL     1      73.839  40.559  51.631  1.00  0.00     0.180 C 
HETATM    2  C2  UNL     1      73.601  41.186  50.293  1.00  0.00     0.179 C 
HETATM    3  C3  UNL     1      73.918  42.626  50.197  1.00  0.00     0.166 C 
HETATM    4  C4  UNL     1      73.827  43.414  51.449  1.00  0.00     0.122 C 
HETATM    5  C8  UNL     1      74.209  42.699  52.696  1.00  0.00     0.166 C 
HETATM    6  C9  UNL     1      74.863  41.372  52.366  1.00  0.00     0.179 C 
ENDROOT
BRANCH   4   7
HETATM    7  S1  UNL     1      72.169  44.179  51.621  1.00  0.00    -0.076 SA
BRANCH   7   8
HETATM    8  S2  UNL     1      72.090  45.801  50.261  1.00  0.00    -0.021 SA
BRANCH   8   9
HETATM    9  S3  UNL     1      74.096  46.474  49.937  1.00  0.00    -0.049 SA
BRANCH   9  10
HETATM   10  C5  UNL     1      74.083  48.228  49.455  1.00  0.00     0.245 C 
HETATM   11  F1  UNL     1      74.810  48.472  48.324  1.00  0.00    -0.237 F 
BRANCH  10  12
HETATM   12  C6  UNL     1      72.672  48.698  49.303  1.00  0.00     0.080 C 
BRANCH  12  13
HETATM   13  C7  UNL     1      72.632  50.188  49.062  1.00  0.00     0.226 C 
HETATM   14  F2  UNL     1      71.398  50.623  49.515  1.00  0.00    -0.255 F 
ENDBRANCH  12  13
ENDBRANCH  10  12
ENDBRANCH   9  10
ENDBRANCH   8   9
ENDBRANCH   7   8
ENDBRANCH   4   7
BRANCH   3  15
HETATM   15  O3  UNL     1      75.179  42.827  49.592  1.00  0.00    -0.392 OA
ATOM     16  H3  UNL     1      75.083  43.079  48.681  1.00  0.00     0.210 HD
ENDBRANCH   3  15
BRANCH   5  17
HETATM   17  O4  UNL     1      73.068  42.400  53.450  1.00  0.00    -0.392 OA
ATOM     18  H4  UNL     1      72.295  42.759  53.030  1.00  0.00     0.210 HD
ENDBRANCH   5  17
BRANCH   2  19
HETATM   19  O2  UNL     1      74.447  40.505  49.384  1.00  0.00    -0.390 OA
ATOM     20  H2  UNL     1      74.555  39.628  49.732  1.00  0.00     0.210 HD
ENDBRANCH   2  19
BRANCH   6  21
HETATM   21  O5  UNL     1      75.184  40.673  53.538  1.00  0.00    -0.390 OA
ATOM     22  H5  UNL     1      75.969  41.072  53.896  1.00  0.00     0.210 HD
ENDBRANCH   6  21
BRANCH   1  23
HETATM   23  O1  UNL     1      74.226  39.217  51.507  1.00  0.00    -0.390 OA
ATOM     24  H1  UNL     1      74.663  38.907  52.292  1.00  0.00     0.210 HD
ENDBRANCH   1  23
TORSDOF 11
ENDMDL
MODEL 5
REMARK VINA RESULT: -6.315399186      1.218      2.697
REMARK  11 active torsions:
REMARK  status: ('A' for Active; 'I' for Inactive)
REMARK    1  A    between atoms: O1_1  and  C1_3 
REMARK    2  A    between atoms: C2_4  and  O2_5 
REMARK    3  A    between atoms: C3_7  and  O3_8 
REMARK    4  A    between atoms: C4_10  and  S1_11 
REMARK    5  A    between atoms: S1_11  and  S2_12 
REMARK    6  A    between atoms: S2_12  and  S3_13 
REMARK    7  A    between atoms: S3_13  and  C5_14 
REMARK    8  A    between atoms: C5_14  and  C6_16 
REMARK    9  A    between atoms: C6_16  and  C7_17 
REMARK   10  A    between atoms: C8_19  and  O4_20 
REMARK   11  A    between atoms: C9_22  and  O5_23 
ROOT
HETATM    1  C1  UNL     1      74.681  41.154  52.642  1.00  0.00     0.180 C 
HETATM    2  C2  UNL     1      74.023  42.391  53.169  1.00  0.00     0.179 C 
HETATM    3  C3  UNL     1      73.097  43.068  52.238  1.00  0.00     0.166 C 
HETATM    4  C4  UNL     1      73.353  42.883  50.790  1.00  0.00     0.122 C 
HETATM    5  C8  UNL     1      73.896  41.558  50.390  1.00  0.00     0.166 C 
HETATM    6  C9  UNL     1      73.825  40.585  51.549  1.00  0.00     0.179 C 
ENDROOT
BRANCH   4   7
HETATM    7  S1  UNL     1      74.398  44.240  50.133  1.00  0.00    -0.076 SA
BRANCH   7   8
HETATM    8  S2  UNL     1      73.791  46.020  51.107  1.00  0.00    -0.021 SA
BRANCH   8   9
HETATM    9  S3  UNL     1      72.122  46.813  50.028  1.00  0.00    -0.049 SA
BRANCH   9  10
HETATM   10  C5  UNL     1      72.565  48.427  49.315  1.00  0.00     0.245 C 
HETATM   11  F1  UNL     1      71.650  49.401  49.601  1.00  0.00    -0.237 F 
BRANCH  10  12
HETATM   12  C6  UNL     1      73.934  48.818  49.769  1.00  0.00     0.080 C 
BRANCH  12  13
HETATM   13  C7  UNL     1      74.906  48.783  48.614  1.00  0.00     0.226 C 
HETATM   14  F2  UNL     1      75.691  47.657  48.799  1.00  0.00    -0.255 F 
ENDBRANCH  12  13
ENDBRANCH  10  12
ENDBRANCH   9  10
ENDBRANCH   8   9
ENDBRANCH   7   8
ENDBRANCH   4   7
BRANCH   3  15
HETATM   15  O3  UNL     1      71.754  42.742  52.535  1.00  0.00    -0.392 OA
ATOM     16  H3  UNL     1      71.164  43.111  51.889  1.00  0.00     0.210 HD
ENDBRANCH   3  15
BRANCH   5  17
HETATM   17  O4  UNL     1      75.250  41.673  50.053  1.00  0.00    -0.392 OA
ATOM     18  H4  UNL     1      75.694  40.845  50.194  1.00  0.00     0.210 HD
ENDBRANCH   5  17
BRANCH   2  19
HETATM   19  O2  UNL     1      73.269  41.985  54.297  1.00  0.00    -0.390 OA
ATOM     20  H2  UNL     1      73.353  41.040  54.344  1.00  0.00     0.210 HD
ENDBRANCH   2  19
BRANCH   6  21
HETATM   21  O5  UNL     1      74.377  39.347  51.192  1.00  0.00    -0.390 OA
ATOM     22  H5  UNL     1      73.718  38.685  51.364  1.00  0.00     0.210 HD
ENDBRANCH   6  21
BRANCH   1  23
HETATM   23  O1  UNL     1      74.915  40.222  53.663  1.00  0.00    -0.390 OA
ATOM     24  H1  UNL     1      75.845  40.104  53.819  1.00  0.00     0.210 HD
ENDBRANCH   1  23
TORSDOF 11
ENDMDL
