MODEL 1
REMARK VINA RESULT: -8.259057689      0.000      0.000
REMARK  8 active torsions:
REMARK  status: ('A' for Active; 'I' for Inactive)
REMARK    1  A    between atoms: N1_2  and  C2_4 
REMARK    2  A    between atoms: C3_7  and  C4_8 
REMARK    3  A    between atoms: C4_8  and  S1_9 
REMARK    4  A    between atoms: S1_9  and  C5_10 
REMARK    5  A    between atoms: C5_10  and  C6_11 
REMARK    6  A    between atoms: C6_11  and  C7_12 
REMARK    7  A    between atoms: C14_19  and  N3_20 
REMARK    8  A    between atoms: C15_22  and  C16_23 
ROOT
HETATM    1  C16 UNL     1      45.371  48.322  17.587  1.00  0.00     0.168 C 
HETATM    2  C17 UNL     1      44.201  47.487  17.220  1.00  0.00     0.064 C 
HETATM    3  N4  UNL     1      43.286  46.855  16.948  1.00  0.00    -0.197 NA
ENDROOT
BRANCH   1   4
HETATM    4  C15 UNL     1      46.151  47.537  18.632  1.00  0.00     0.076 C 
HETATM    5  N3  UNL     1      47.470  47.842  18.783  1.00  0.00    -0.355 N 
ATOM      6  H3  UNL     1      47.793  47.254  19.551  1.00  0.00     0.166 HD
BRANCH   5   7
HETATM    7  C14 UNL     1      48.463  48.490  18.434  1.00  0.00     0.122 A 
HETATM    8  C13 UNL     1      49.316  49.051  19.426  1.00  0.00     0.075 A 
HETATM    9  C3  UNL     1      50.403  49.761  19.022  1.00  0.00     0.039 A 
HETATM   10  N2  UNL     1      50.696  49.950  17.717  1.00  0.00    -0.195 N 
HETATM   11  C2  UNL     1      49.871  49.407  16.810  1.00  0.00     0.679 A 
ATOM     12  H2  UNL     1      51.516  50.485  17.432  1.00  0.00     0.184 HD
HETATM   13  N5  UNL     1      48.769  48.687  17.141  1.00  0.00    -0.177 N 
ATOM     14  H5  UNL     1      48.174  48.297  16.409  1.00  0.00     0.186 HD
BRANCH   9  15
HETATM   15  C4  UNL     1      51.288  50.348  20.072  1.00  0.00     0.131 C 
BRANCH  15  16
HETATM   16  S1  UNL     1      50.213  51.132  21.298  1.00  0.00    -0.163 SA
BRANCH  16  17
HETATM   17  C5  UNL     1      50.158  52.920  21.099  1.00  0.00     0.074 C 
BRANCH  17  18
HETATM   18  C6  UNL     1      49.070  53.249  20.105  1.00  0.00     0.015 C 
BRANCH  18  19
HETATM   19  C7  UNL     1      48.890  54.738  19.894  1.00  0.00    -0.014 C 
HETATM   20  C8  UNL     1      49.458  55.436  21.096  1.00  0.00     0.005 C 
HETATM   21  C9  UNL     1      48.958  56.839  21.272  1.00  0.00     0.000 C 
HETATM   22  C10 UNL     1      47.472  56.967  21.124  1.00  0.00     0.000 C 
HETATM   23  C11 UNL     1      47.109  56.488  19.733  1.00  0.00     0.000 C 
HETATM   24  C12 UNL     1      47.418  54.998  19.705  1.00  0.00     0.005 C 
ENDBRANCH  18  19
ENDBRANCH  17  18
ENDBRANCH  16  17
ENDBRANCH  15  16
ENDBRANCH   9  15
BRANCH  11  25
HETATM   25  N1  UNL     1      50.096  49.552  15.536  1.00  0.00    -0.230 N 
HETATM   26  C1  UNL     1      49.516  48.621  14.563  1.00  0.00     0.165 C 
ATOM     27  H1  UNL     1      50.683  50.321  15.211  1.00  0.00     0.177 HD
ENDBRANCH  11  25
ENDBRANCH   5   7
ENDBRANCH   1   4
TORSDOF 8
ENDMDL
MODEL 2
REMARK VINA RESULT: -8.210586931      2.097      4.397
REMARK  8 active torsions:
REMARK  status: ('A' for Active; 'I' for Inactive)
REMARK    1  A    between atoms: N1_2  and  C2_4 
REMARK    2  A    between atoms: C3_7  and  C4_8 
REMARK    3  A    between atoms: C4_8  and  S1_9 
REMARK    4  A    between atoms: S1_9  and  C5_10 
REMARK    5  A    between atoms: C5_10  and  C6_11 
REMARK    6  A    between atoms: C6_11  and  C7_12 
REMARK    7  A    between atoms: C14_19  and  N3_20 
REMARK    8  A    between atoms: C15_22  and  C16_23 
ROOT
HETATM    1  C16 UNL     1      49.918  49.255  21.382  1.00  0.00     0.168 C 
HETATM    2  C17 UNL     1      51.204  49.663  20.764  1.00  0.00     0.064 C 
HETATM    3  N4  UNL     1      52.185  49.989  20.273  1.00  0.00    -0.197 NA
ENDROOT
BRANCH   1   4
HETATM    4  C15 UNL     1      49.692  47.803  20.989  1.00  0.00     0.076 C 
HETATM    5  N3  UNL     1      48.825  47.563  19.965  1.00  0.00    -0.355 N 
ATOM      6  H3  UNL     1      48.852  46.553  19.825  1.00  0.00     0.166 HD
BRANCH   5   7
HETATM    7  C14 UNL     1      48.022  47.984  19.126  1.00  0.00     0.122 A 
HETATM    8  C13 UNL     1      48.410  49.040  18.254  1.00  0.00     0.075 A 
HETATM    9  C3  UNL     1      47.512  49.490  17.338  1.00  0.00     0.039 A 
HETATM   10  N2  UNL     1      46.271  48.969  17.229  1.00  0.00    -0.195 N 
HETATM   11  C2  UNL     1      45.939  47.975  18.066  1.00  0.00     0.679 A 
ATOM     12  H2  UNL     1      45.610  49.319  16.536  1.00  0.00     0.184 HD
HETATM   13  N5  UNL     1      46.784  47.477  19.005  1.00  0.00    -0.177 N 
ATOM     14  H5  UNL     1      46.479  46.719  19.617  1.00  0.00     0.186 HD
BRANCH   9  15
HETATM   15  C4  UNL     1      47.930  50.602  16.432  1.00  0.00     0.131 C 
BRANCH  15  16
HETATM   16  S1  UNL     1      47.343  52.144  17.175  1.00  0.00    -0.163 SA
BRANCH  16  17
HETATM   17  C5  UNL     1      48.524  52.813  18.358  1.00  0.00     0.074 C 
BRANCH  17  18
HETATM   18  C6  UNL     1      47.751  53.553  19.425  1.00  0.00     0.015 C 
BRANCH  18  19
HETATM   19  C7  UNL     1      48.177  54.999  19.567  1.00  0.00    -0.014 C 
HETATM   20  C8  UNL     1      49.144  55.075  20.713  1.00  0.00     0.005 C 
HETATM   21  C9  UNL     1      49.301  56.453  21.283  1.00  0.00     0.000 C 
HETATM   22  C10 UNL     1      47.997  57.151  21.525  1.00  0.00     0.000 C 
HETATM   23  C11 UNL     1      47.278  57.249  20.195  1.00  0.00     0.000 C 
HETATM   24  C12 UNL     1      46.934  55.821  19.794  1.00  0.00     0.005 C 
ENDBRANCH  18  19
ENDBRANCH  17  18
ENDBRANCH  16  17
ENDBRANCH  15  16
ENDBRANCH   9  15
BRANCH  11  25
HETATM   25  N1  UNL     1      44.758  47.429  18.014  1.00  0.00    -0.230 N 
HETATM   26  C1  UNL     1      44.322  46.490  19.053  1.00  0.00     0.165 C 
ATOM     27  H1  UNL     1      44.130  47.657  17.243  1.00  0.00     0.177 HD
ENDBRANCH  11  25
ENDBRANCH   5   7
ENDBRANCH   1   4
TORSDOF 8
ENDMDL
MODEL 3
REMARK VINA RESULT: -8.164791624      3.124      8.153
REMARK  8 active torsions:
REMARK  status: ('A' for Active; 'I' for Inactive)
REMARK    1  A    between atoms: N1_2  and  C2_4 
REMARK    2  A    between atoms: C3_7  and  C4_8 
REMARK    3  A    between atoms: C4_8  and  S1_9 
REMARK    4  A    between atoms: S1_9  and  C5_10 
REMARK    5  A    between atoms: C5_10  and  C6_11 
REMARK    6  A    between atoms: C6_11  and  C7_12 
REMARK    7  A    between atoms: C14_19  and  N3_20 
REMARK    8  A    between atoms: C15_22  and  C16_23 
ROOT
HETATM    1  C16 UNL     1      50.950  55.774  21.289  1.00  0.00     0.168 C 
HETATM    2  C17 UNL     1      52.086  56.679  21.592  1.00  0.00     0.064 C 
HETATM    3  N4  UNL     1      52.976  57.365  21.815  1.00  0.00    -0.197 NA
ENDROOT
BRANCH   1   4
HETATM    4  C15 UNL     1      50.684  54.977  22.558  1.00  0.00     0.076 C 
HETATM    5  N3  UNL     1      50.411  53.650  22.413  1.00  0.00    -0.355 N 
ATOM      6  H3  UNL     1      50.317  53.292  23.364  1.00  0.00     0.166 HD
BRANCH   5   7
HETATM    7  C14 UNL     1      50.224  52.673  21.680  1.00  0.00     0.122 A 
HETATM    8  C13 UNL     1      49.626  52.861  20.402  1.00  0.00     0.075 A 
HETATM    9  C3  UNL     1      49.427  51.774  19.610  1.00  0.00     0.039 A 
HETATM   10  N2  UNL     1      49.777  50.528  19.997  1.00  0.00    -0.195 N 
HETATM   11  C2  UNL     1      50.338  50.387  21.207  1.00  0.00     0.679 A 
ATOM     12  H2  UNL     1      49.620  49.723  19.390  1.00  0.00     0.184 HD
HETATM   13  N5  UNL     1      50.565  51.427  22.049  1.00  0.00    -0.177 N 
ATOM     14  H5  UNL     1      50.995  51.263  22.960  1.00  0.00     0.186 HD
BRANCH   9  15
HETATM   15  C4  UNL     1      48.795  51.984  18.273  1.00  0.00     0.131 C 
BRANCH  15  16
HETATM   16  S1  UNL     1      48.979  50.442  17.347  1.00  0.00    -0.163 SA
BRANCH  16  17
HETATM   17  C5  UNL     1      47.430  49.530  17.242  1.00  0.00     0.074 C 
BRANCH  17  18
HETATM   18  C6  UNL     1      47.594  48.237  18.005  1.00  0.00     0.015 C 
BRANCH  18  19
HETATM   19  C7  UNL     1      46.472  47.254  17.751  1.00  0.00    -0.014 C 
HETATM   20  C8  UNL     1      45.639  47.798  16.627  1.00  0.00     0.005 C 
HETATM   21  C9  UNL     1      44.260  47.213  16.557  1.00  0.00     0.000 C 
HETATM   22  C10 UNL     1      43.561  47.170  17.883  1.00  0.00     0.000 C 
HETATM   23  C11 UNL     1      44.406  46.326  18.816  1.00  0.00     0.000 C 
HETATM   24  C12 UNL     1      45.697  47.101  19.035  1.00  0.00     0.005 C 
ENDBRANCH  18  19
ENDBRANCH  17  18
ENDBRANCH  16  17
ENDBRANCH  15  16
ENDBRANCH   9  15
BRANCH  11  25
HETATM   25  N1  UNL     1      50.697  49.213  21.640  1.00  0.00    -0.230 N 
HETATM   26  C1  UNL     1      49.933  48.016  21.275  1.00  0.00     0.165 C 
ATOM     27  H1  UNL     1      51.519  49.125  22.239  1.00  0.00     0.177 HD
ENDBRANCH  11  25
ENDBRANCH   5   7
ENDBRANCH   1   4
TORSDOF 8
ENDMDL
MODEL 4
REMARK VINA RESULT: -8.136038214      0.997      1.013
REMARK  8 active torsions:
REMARK  status: ('A' for Active; 'I' for Inactive)
REMARK    1  A    between atoms: N1_2  and  C2_4 
REMARK    2  A    between atoms: C3_7  and  C4_8 
REMARK    3  A    between atoms: C4_8  and  S1_9 
REMARK    4  A    between atoms: S1_9  and  C5_10 
REMARK    5  A    between atoms: C5_10  and  C6_11 
REMARK    6  A    between atoms: C6_11  and  C7_12 
REMARK    7  A    between atoms: C14_19  and  N3_20 
REMARK    8  A    between atoms: C15_22  and  C16_23 
ROOT
HETATM    1  C16 UNL     1      45.345  48.322  17.583  1.00  0.00     0.168 C 
HETATM    2  C17 UNL     1      45.506  47.799  16.204  1.00  0.00     0.064 C 
HETATM    3  N4  UNL     1      45.611  47.389  15.140  1.00  0.00    -0.197 NA
ENDROOT
BRANCH   1   4
HETATM    4  C15 UNL     1      46.073  47.349  18.500  1.00  0.00     0.076 C 
HETATM    5  N3  UNL     1      47.379  47.619  18.782  1.00  0.00    -0.355 N 
ATOM      6  H3  UNL     1      47.664  46.893  19.440  1.00  0.00     0.166 HD
BRANCH   5   7
HETATM    7  C14 UNL     1      48.382  48.321  18.621  1.00  0.00     0.122 A 
HETATM    8  C13 UNL     1      49.139  48.729  19.756  1.00  0.00     0.075 A 
HETATM    9  C3  UNL     1      50.240  49.502  19.559  1.00  0.00     0.039 A 
HETATM   10  N2  UNL     1      50.636  49.892  18.329  1.00  0.00    -0.195 N 
HETATM   11  C2  UNL     1      49.900  49.489  17.282  1.00  0.00     0.679 A 
ATOM     12  H2  UNL     1      51.464  50.473  18.199  1.00  0.00     0.184 HD
HETATM   13  N5  UNL     1      48.790  48.717  17.405  1.00  0.00    -0.177 N 
ATOM     14  H5  UNL     1      48.266  48.440  16.574  1.00  0.00     0.186 HD
BRANCH   9  15
HETATM   15  C4  UNL     1      51.023  49.928  20.758  1.00  0.00     0.131 C 
BRANCH  15  16
HETATM   16  S1  UNL     1      50.202  51.389  21.440  1.00  0.00    -0.163 SA
BRANCH  16  17
HETATM   17  C5  UNL     1      50.329  52.807  20.338  1.00  0.00     0.074 C 
BRANCH  17  18
HETATM   18  C6  UNL     1      48.930  53.260  19.994  1.00  0.00     0.015 C 
BRANCH  18  19
HETATM   19  C7  UNL     1      48.813  54.763  19.851  1.00  0.00    -0.014 C 
HETATM   20  C8  UNL     1      49.503  55.385  21.030  1.00  0.00     0.005 C 
HETATM   21  C9  UNL     1      49.091  56.802  21.294  1.00  0.00     0.000 C 
HETATM   22  C10 UNL     1      47.607  57.009  21.264  1.00  0.00     0.000 C 
HETATM   23  C11 UNL     1      47.118  56.604  19.888  1.00  0.00     0.000 C 
HETATM   24  C12 UNL     1      47.346  55.102  19.784  1.00  0.00     0.005 C 
ENDBRANCH  18  19
ENDBRANCH  17  18
ENDBRANCH  16  17
ENDBRANCH  15  16
ENDBRANCH   9  15
BRANCH  11  25
HETATM   25  N1  UNL     1      50.226  49.831  16.069  1.00  0.00    -0.230 N 
HETATM   26  C1  UNL     1      51.600  50.234  15.750  1.00  0.00     0.165 C 
ATOM     27  H1  UNL     1      49.520  49.819  15.333  1.00  0.00     0.177 HD
ENDBRANCH  11  25
ENDBRANCH   5   7
ENDBRANCH   1   4
TORSDOF 8
ENDMDL
MODEL 5
REMARK VINA RESULT: -8.103599544      3.040      7.921
REMARK  8 active torsions:
REMARK  status: ('A' for Active; 'I' for Inactive)
REMARK    1  A    between atoms: N1_2  and  C2_4 
REMARK    2  A    between atoms: C3_7  and  C4_8 
REMARK    3  A    between atoms: C4_8  and  S1_9 
REMARK    4  A    between atoms: S1_9  and  C5_10 
REMARK    5  A    between atoms: C5_10  and  C6_11 
REMARK    6  A    between atoms: C6_11  and  C7_12 
REMARK    7  A    between atoms: C14_19  and  N3_20 
REMARK    8  A    between atoms: C15_22  and  C16_23 
ROOT
HETATM    1  C16 UNL     1      51.586  55.614  20.279  1.00  0.00     0.168 C 
HETATM    2  C17 UNL     1      52.536  56.583  20.879  1.00  0.00     0.064 C 
HETATM    3  N4  UNL     1      53.284  57.315  21.345  1.00  0.00    -0.197 NA
ENDROOT
BRANCH   1   4
HETATM    4  C15 UNL     1      50.559  55.294  21.356  1.00  0.00     0.076 C 
HETATM    5  N3  UNL     1      50.015  54.045  21.344  1.00  0.00    -0.355 N 
ATOM      6  H3  UNL     1      49.402  54.014  22.159  1.00  0.00     0.166 HD
BRANCH   5   7
HETATM    7  C14 UNL     1      49.909  52.931  20.819  1.00  0.00     0.122 A 
HETATM    8  C13 UNL     1      49.309  52.819  19.533  1.00  0.00     0.075 A 
HETATM    9  C3  UNL     1      49.200  51.585  18.971  1.00  0.00     0.039 A 
HETATM   10  N2  UNL     1      49.641  50.471  19.592  1.00  0.00    -0.195 N 
HETATM   11  C2  UNL     1      50.202  50.613  20.803  1.00  0.00     0.679 A 
ATOM     12  H2  UNL     1      49.552  49.553  19.156  1.00  0.00     0.184 HD
HETATM   13  N5  UNL     1      50.342  51.813  21.422  1.00  0.00    -0.177 N 
ATOM     14  H5  UNL     1      50.776  51.864  22.345  1.00  0.00     0.186 HD
BRANCH   9  15
HETATM   15  C4  UNL     1      48.565  51.481  17.624  1.00  0.00     0.131 C 
BRANCH  15  16
HETATM   16  S1  UNL     1      49.421  50.162  16.731  1.00  0.00    -0.163 SA
BRANCH  16  17
HETATM   17  C5  UNL     1      48.367  48.725  16.477  1.00  0.00     0.074 C 
BRANCH  17  18
HETATM   18  C6  UNL     1      46.964  49.215  16.206  1.00  0.00     0.015 C 
BRANCH  18  19
HETATM   19  C7  UNL     1      45.983  48.835  17.296  1.00  0.00    -0.014 C 
HETATM   20  C8  UNL     1      46.706  47.943  18.264  1.00  0.00     0.005 C 
HETATM   21  C9  UNL     1      45.795  47.116  19.121  1.00  0.00     0.000 C 
HETATM   22  C10 UNL     1      44.702  46.438  18.350  1.00  0.00     0.000 C 
HETATM   23  C11 UNL     1      43.888  47.518  17.668  1.00  0.00     0.000 C 
HETATM   24  C12 UNL     1      44.809  48.156  16.638  1.00  0.00     0.005 C 
ENDBRANCH  18  19
ENDBRANCH  17  18
ENDBRANCH  16  17
ENDBRANCH  15  16
ENDBRANCH   9  15
BRANCH  11  25
HETATM   25  N1  UNL     1      50.647  49.578  21.455  1.00  0.00    -0.230 N 
HETATM   26  C1  UNL     1      50.008  48.267  21.301  1.00  0.00     0.165 C 
ATOM     27  H1  UNL     1      51.448  49.680  22.079  1.00  0.00     0.177 HD
ENDBRANCH  11  25
ENDBRANCH   5   7
ENDBRANCH   1   4
TORSDOF 8
ENDMDL
