MODEL 1
REMARK VINA RESULT: -8.458618517      0.000      0.000
REMARK  8 active torsions:
REMARK  status: ('A' for Active; 'I' for Inactive)
REMARK    1  A    between atoms: C1_2  and  C2_4 
REMARK    2  A    between atoms: C4_8  and  C5_9 
REMARK    3  A    between atoms: C5_9  and  O4_11 
REMARK    4  A    between atoms: O4_11  and  C6_12 
REMARK    5  A    between atoms: C6_12  and  C7_13 
REMARK    6  A    between atoms: C7_13  and  C8_14 
REMARK    7  A    between atoms: C8_14  and  C9_15 
REMARK    8  A    between atoms: C9_15  and  C10_16 
ROOT
HETATM    1  C6  UNL     1      50.242  52.062  21.917  1.00  0.00     0.179 C 
ENDROOT
BRANCH   1   2
HETATM    2  O4  UNL     1      51.001  51.193  21.273  1.00  0.00    -0.317 OA
BRANCH   2   3
HETATM    3  C5  UNL     1      51.122  50.268  20.316  1.00  0.00     0.305 C 
HETATM    4  O3  UNL     1      52.178  49.599  20.300  1.00  0.00    -0.258 OA
BRANCH   3   5
HETATM    5  C4  UNL     1      50.082  50.041  19.314  1.00  0.00     0.082 C 
HETATM    6  N1  UNL     1      49.693  48.685  19.092  1.00  0.00    -0.387 N 
HETATM    7  C3  UNL     1      48.641  48.766  18.085  1.00  0.00     0.135 C 
ATOM      8  H1  UNL     1      50.067  47.847  19.537  1.00  0.00     0.159 HD
HETATM    9  C2  UNL     1      48.506  50.215  17.668  1.00  0.00     0.110 C 
HETATM   10  C18 UNL     1      49.937  50.740  18.033  1.00  0.00     0.080 C 
BRANCH   9  11
HETATM   11  C1  UNL     1      48.147  50.447  16.302  1.00  0.00     0.178 C 
HETATM   12  O1  UNL     1      48.892  49.767  15.450  1.00  0.00    -0.648 OA
HETATM   13  O2  UNL     1      47.170  51.248  15.812  1.00  0.00    -0.648 OA
ENDBRANCH   9  11
ENDBRANCH   3   5
ENDBRANCH   2   3
ENDBRANCH   1   2
BRANCH   1  14
HETATM   14  C7  UNL     1      50.323  53.525  21.466  1.00  0.00     0.027 C 
BRANCH  14  15
HETATM   15  C8  UNL     1      49.765  53.788  20.146  1.00  0.00     0.004 C 
BRANCH  15  16
HETATM   16  C9  UNL     1      48.326  54.042  19.875  1.00  0.00     0.032 C 
BRANCH  16  17
HETATM   17  C10 UNL     1      48.216  55.482  19.328  1.00  0.00     0.122 C 
HETATM   18  C11 UNL     1      48.703  56.414  20.427  1.00  0.00     0.035 C 
HETATM   19  C12 UNL     1      47.303  56.934  20.863  1.00  0.00     0.040 C 
HETATM   20  C13 UNL     1      46.566  56.922  19.569  1.00  0.00     0.061 C 
HETATM   21  C14 UNL     1      45.115  56.552  19.759  1.00  0.00     0.038 C 
HETATM   22  C17 UNL     1      46.600  58.236  18.878  1.00  0.00     0.038 C 
HETATM   23  O5  UNL     1      47.098  55.881  18.794  1.00  0.00    -0.375 OA
HETATM   24  C15 UNL     1      44.335  57.779  19.368  1.00  0.00     0.003 C 
HETATM   25  C16 UNL     1      45.212  58.452  18.334  1.00  0.00     0.003 C 
ENDBRANCH  16  17
ENDBRANCH  15  16
ENDBRANCH  14  15
ENDBRANCH   1  14
TORSDOF 8
ENDMDL
MODEL 2
REMARK VINA RESULT: -8.328354915      1.535      1.803
REMARK  8 active torsions:
REMARK  status: ('A' for Active; 'I' for Inactive)
REMARK    1  A    between atoms: C1_2  and  C2_4 
REMARK    2  A    between atoms: C4_8  and  C5_9 
REMARK    3  A    between atoms: C5_9  and  O4_11 
REMARK    4  A    between atoms: O4_11  and  C6_12 
REMARK    5  A    between atoms: C6_12  and  C7_13 
REMARK    6  A    between atoms: C7_13  and  C8_14 
REMARK    7  A    between atoms: C8_14  and  C9_15 
REMARK    8  A    between atoms: C9_15  and  C10_16 
ROOT
HETATM    1  C6  UNL     1      50.101  51.764  21.866  1.00  0.00     0.179 C 
ENDROOT
BRANCH   1   2
HETATM    2  O4  UNL     1      50.947  50.975  21.229  1.00  0.00    -0.317 OA
BRANCH   2   3
HETATM    3  C5  UNL     1      51.151  49.972  20.369  1.00  0.00     0.305 C 
HETATM    4  O3  UNL     1      52.307  49.500  20.308  1.00  0.00    -0.258 OA
BRANCH   3   5
HETATM    5  C4  UNL     1      50.086  49.445  19.518  1.00  0.00     0.082 C 
HETATM    6  N1  UNL     1      49.363  50.396  18.734  1.00  0.00    -0.387 N 
HETATM    7  C3  UNL     1      48.407  49.596  17.978  1.00  0.00     0.135 C 
ATOM      8  H1  UNL     1      49.488  51.409  18.709  1.00  0.00     0.159 HD
HETATM    9  C2  UNL     1      48.545  48.158  18.428  1.00  0.00     0.110 C 
HETATM   10  C18 UNL     1      49.146  48.373  19.859  1.00  0.00     0.080 C 
BRANCH   9  11
HETATM   11  C1  UNL     1      47.343  47.380  18.427  1.00  0.00     0.178 C 
HETATM   12  O1  UNL     1      47.434  46.292  17.685  1.00  0.00    -0.648 OA
HETATM   13  O2  UNL     1      46.179  47.626  19.075  1.00  0.00    -0.648 OA
ENDBRANCH   9  11
ENDBRANCH   3   5
ENDBRANCH   2   3
ENDBRANCH   1   2
BRANCH   1  14
HETATM   14  C7  UNL     1      50.297  53.275  21.698  1.00  0.00     0.027 C 
BRANCH  14  15
HETATM   15  C8  UNL     1      49.896  53.801  20.399  1.00  0.00     0.004 C 
BRANCH  15  16
HETATM   16  C9  UNL     1      48.487  53.995  19.968  1.00  0.00     0.032 C 
BRANCH  16  17
HETATM   17  C10 UNL     1      48.379  55.434  19.415  1.00  0.00     0.122 C 
HETATM   18  C11 UNL     1      48.835  56.372  20.521  1.00  0.00     0.035 C 
HETATM   19  C12 UNL     1      47.423  56.882  20.928  1.00  0.00     0.040 C 
HETATM   20  C13 UNL     1      46.713  56.862  19.619  1.00  0.00     0.061 C 
HETATM   21  C14 UNL     1      45.261  56.482  19.780  1.00  0.00     0.038 C 
HETATM   22  C17 UNL     1      46.752  58.175  18.925  1.00  0.00     0.038 C 
HETATM   23  O5  UNL     1      47.269  55.823  18.857  1.00  0.00    -0.375 OA
HETATM   24  C15 UNL     1      44.481  57.702  19.369  1.00  0.00     0.003 C 
HETATM   25  C16 UNL     1      45.373  58.379  18.352  1.00  0.00     0.003 C 
ENDBRANCH  16  17
ENDBRANCH  15  16
ENDBRANCH  14  15
ENDBRANCH   1  14
TORSDOF 8
ENDMDL
MODEL 3
REMARK VINA RESULT: -8.152579299      2.985      7.331
REMARK  8 active torsions:
REMARK  status: ('A' for Active; 'I' for Inactive)
REMARK    1  A    between atoms: C1_2  and  C2_4 
REMARK    2  A    between atoms: C4_8  and  C5_9 
REMARK    3  A    between atoms: C5_9  and  O4_11 
REMARK    4  A    between atoms: O4_11  and  C6_12 
REMARK    5  A    between atoms: C6_12  and  C7_13 
REMARK    6  A    between atoms: C7_13  and  C8_14 
REMARK    7  A    between atoms: C8_14  and  C9_15 
REMARK    8  A    between atoms: C9_15  and  C10_16 
ROOT
HETATM    1  C6  UNL     1      47.066  53.590  16.822  1.00  0.00     0.179 C 
ENDROOT
BRANCH   1   2
HETATM    2  O4  UNL     1      47.579  53.380  18.022  1.00  0.00    -0.317 OA
BRANCH   2   3
HETATM    3  C5  UNL     1      48.456  53.727  18.969  1.00  0.00     0.305 C 
HETATM    4  O3  UNL     1      48.707  54.945  19.094  1.00  0.00    -0.258 OA
BRANCH   3   5
HETATM    5  C4  UNL     1      49.115  52.740  19.822  1.00  0.00     0.082 C 
HETATM    6  N1  UNL     1      49.826  53.245  20.953  1.00  0.00    -0.387 N 
HETATM    7  C3  UNL     1      50.341  52.057  21.623  1.00  0.00     0.135 C 
ATOM      8  H1  UNL     1      49.947  54.220  21.230  1.00  0.00     0.159 HD
HETATM    9  C2  UNL     1      49.977  50.853  20.781  1.00  0.00     0.110 C 
HETATM   10  C18 UNL     1      49.823  51.535  19.378  1.00  0.00     0.080 C 
BRANCH   9  11
HETATM   11  C1  UNL     1      50.915  49.773  20.788  1.00  0.00     0.178 C 
HETATM   12  O1  UNL     1      50.384  48.631  21.186  1.00  0.00    -0.648 OA
HETATM   13  O2  UNL     1      52.226  49.792  20.446  1.00  0.00    -0.648 OA
ENDBRANCH   9  11
ENDBRANCH   3   5
ENDBRANCH   2   3
ENDBRANCH   1   2
BRANCH   1  14
HETATM   14  C7  UNL     1      46.523  52.368  16.074  1.00  0.00     0.027 C 
BRANCH  14  15
HETATM   15  C8  UNL     1      46.797  51.089  16.715  1.00  0.00     0.004 C 
BRANCH  15  16
HETATM   16  C9  UNL     1      47.945  50.206  16.379  1.00  0.00     0.032 C 
BRANCH  16  17
HETATM   17  C10 UNL     1      47.735  48.881  17.144  1.00  0.00     0.122 C 
HETATM   18  C11 UNL     1      47.934  47.753  16.143  1.00  0.00     0.035 C 
HETATM   19  C12 UNL     1      46.430  47.391  15.970  1.00  0.00     0.040 C 
HETATM   20  C13 UNL     1      45.897  47.678  17.330  1.00  0.00     0.061 C 
HETATM   21  C14 UNL     1      44.493  48.228  17.272  1.00  0.00     0.038 C 
HETATM   22  C17 UNL     1      45.866  46.474  18.199  1.00  0.00     0.038 C 
HETATM   23  O5  UNL     1      46.665  48.723  17.869  1.00  0.00    -0.375 OA
HETATM   24  C15 UNL     1      43.630  47.189  17.938  1.00  0.00     0.003 C 
HETATM   25  C16 UNL     1      44.555  46.536  18.941  1.00  0.00     0.003 C 
ENDBRANCH  16  17
ENDBRANCH  15  16
ENDBRANCH  14  15
ENDBRANCH   1  14
TORSDOF 8
ENDMDL
MODEL 4
REMARK VINA RESULT: -8.134754448      1.043      1.403
REMARK  8 active torsions:
REMARK  status: ('A' for Active; 'I' for Inactive)
REMARK    1  A    between atoms: C1_2  and  C2_4 
REMARK    2  A    between atoms: C4_8  and  C5_9 
REMARK    3  A    between atoms: C5_9  and  O4_11 
REMARK    4  A    between atoms: O4_11  and  C6_12 
REMARK    5  A    between atoms: C6_12  and  C7_13 
REMARK    6  A    between atoms: C7_13  and  C8_14 
REMARK    7  A    between atoms: C8_14  and  C9_15 
REMARK    8  A    between atoms: C9_15  and  C10_16 
ROOT
HETATM    1  C6  UNL     1      50.275  51.765  21.850  1.00  0.00     0.179 C 
ENDROOT
BRANCH   1   2
HETATM    2  O4  UNL     1      51.024  50.822  21.305  1.00  0.00    -0.317 OA
BRANCH   2   3
HETATM    3  C5  UNL     1      51.209  49.929  20.328  1.00  0.00     0.305 C 
HETATM    4  O3  UNL     1      52.334  49.388  20.256  1.00  0.00    -0.258 OA
BRANCH   3   5
HETATM    5  C4  UNL     1      50.160  49.595  19.367  1.00  0.00     0.082 C 
HETATM    6  N1  UNL     1      49.557  48.307  19.499  1.00  0.00    -0.387 N 
HETATM    7  C3  UNL     1      48.546  48.266  18.450  1.00  0.00     0.135 C 
ATOM      8  H1  UNL     1      49.784  47.578  20.177  1.00  0.00     0.159 HD
HETATM    9  C2  UNL     1      48.655  49.546  17.648  1.00  0.00     0.110 C 
HETATM   10  C18 UNL     1      50.147  49.926  17.939  1.00  0.00     0.080 C 
BRANCH   9  11
HETATM   11  C1  UNL     1      48.355  49.441  16.253  1.00  0.00     0.178 C 
HETATM   12  O1  UNL     1      47.859  50.556  15.747  1.00  0.00    -0.648 OA
HETATM   13  O2  UNL     1      48.519  48.375  15.432  1.00  0.00    -0.648 OA
ENDBRANCH   9  11
ENDBRANCH   3   5
ENDBRANCH   2   3
ENDBRANCH   1   2
BRANCH   1  14
HETATM   14  C7  UNL     1      49.464  52.648  20.895  1.00  0.00     0.027 C 
BRANCH  14  15
HETATM   15  C8  UNL     1      50.112  53.901  20.527  1.00  0.00     0.004 C 
BRANCH  15  16
HETATM   16  C9  UNL     1      50.261  55.070  21.431  1.00  0.00     0.032 C 
BRANCH  16  17
HETATM   17  C10 UNL     1      49.769  56.310  20.652  1.00  0.00     0.122 C 
HETATM   18  C11 UNL     1      49.535  57.414  21.672  1.00  0.00     0.035 C 
HETATM   19  C12 UNL     1      47.981  57.336  21.678  1.00  0.00     0.040 C 
HETATM   20  C13 UNL     1      47.698  56.958  20.266  1.00  0.00     0.061 C 
HETATM   21  C14 UNL     1      46.507  56.036  20.165  1.00  0.00     0.038 C 
HETATM   22  C17 UNL     1      47.422  58.135  19.402  1.00  0.00     0.038 C 
HETATM   23  O5  UNL     1      48.781  56.188  19.813  1.00  0.00    -0.375 OA
HETATM   24  C15 UNL     1      45.463  56.815  19.410  1.00  0.00     0.003 C 
HETATM   25  C16 UNL     1      46.268  57.735  18.519  1.00  0.00     0.003 C 
ENDBRANCH  16  17
ENDBRANCH  15  16
ENDBRANCH  14  15
ENDBRANCH   1  14
TORSDOF 8
ENDMDL
MODEL 5
REMARK VINA RESULT: -7.947046640      1.423      2.009
REMARK  8 active torsions:
REMARK  status: ('A' for Active; 'I' for Inactive)
REMARK    1  A    between atoms: C1_2  and  C2_4 
REMARK    2  A    between atoms: C4_8  and  C5_9 
REMARK    3  A    between atoms: C5_9  and  O4_11 
REMARK    4  A    between atoms: O4_11  and  C6_12 
REMARK    5  A    between atoms: C6_12  and  C7_13 
REMARK    6  A    between atoms: C7_13  and  C8_14 
REMARK    7  A    between atoms: C8_14  and  C9_15 
REMARK    8  A    between atoms: C9_15  and  C10_16 
ROOT
HETATM    1  C6  UNL     1      50.325  51.995  21.913  1.00  0.00     0.179 C 
ENDROOT
BRANCH   1   2
HETATM    2  O4  UNL     1      50.965  50.940  21.439  1.00  0.00    -0.317 OA
BRANCH   2   3
HETATM    3  C5  UNL     1      51.128  50.044  20.461  1.00  0.00     0.305 C 
HETATM    4  O3  UNL     1      52.262  49.532  20.340  1.00  0.00    -0.258 OA
BRANCH   3   5
HETATM    5  C4  UNL     1      50.044  49.675  19.552  1.00  0.00     0.082 C 
HETATM    6  N1  UNL     1      49.636  48.306  19.565  1.00  0.00    -0.387 N 
HETATM    7  C3  UNL     1      48.542  48.241  18.604  1.00  0.00     0.135 C 
ATOM      8  H1  UNL     1      50.025  47.544  20.122  1.00  0.00     0.159 HD
HETATM    9  C2  UNL     1      48.398  49.607  17.969  1.00  0.00     0.110 C 
HETATM   10  C18 UNL     1      49.847  50.165  18.184  1.00  0.00     0.080 C 
BRANCH   9  11
HETATM   11  C1  UNL     1      47.980  49.624  16.600  1.00  0.00     0.178 C 
HETATM   12  O1  UNL     1      47.687  48.423  16.135  1.00  0.00    -0.648 OA
HETATM   13  O2  UNL     1      47.856  50.687  15.769  1.00  0.00    -0.648 OA
ENDBRANCH   9  11
ENDBRANCH   3   5
ENDBRANCH   2   3
ENDBRANCH   1   2
BRANCH   1  14
HETATM   14  C7  UNL     1      49.640  52.910  20.891  1.00  0.00     0.027 C 
BRANCH  14  15
HETATM   15  C8  UNL     1      50.238  54.232  20.760  1.00  0.00     0.004 C 
BRANCH  15  16
HETATM   16  C9  UNL     1      49.647  55.482  21.304  1.00  0.00     0.032 C 
BRANCH  16  17
HETATM   17  C10 UNL     1      48.944  56.198  20.130  1.00  0.00     0.122 C 
HETATM   18  C11 UNL     1      47.565  56.611  20.621  1.00  0.00     0.035 C 
HETATM   19  C12 UNL     1      46.762  55.512  19.867  1.00  0.00     0.040 C 
HETATM   20  C13 UNL     1      47.572  55.352  18.628  1.00  0.00     0.061 C 
HETATM   21  C14 UNL     1      47.584  53.919  18.153  1.00  0.00     0.038 C 
HETATM   22  C17 UNL     1      47.071  56.185  17.505  1.00  0.00     0.038 C 
HETATM   23  O5  UNL     1      48.907  55.626  18.961  1.00  0.00    -0.375 OA
HETATM   24  C15 UNL     1      46.872  53.931  16.827  1.00  0.00     0.003 C 
HETATM   25  C16 UNL     1      47.151  55.313  16.278  1.00  0.00     0.003 C 
ENDBRANCH  16  17
ENDBRANCH  15  16
ENDBRANCH  14  15
ENDBRANCH   1  14
TORSDOF 8
ENDMDL
