MODEL 1
REMARK VINA RESULT: -7.097627073      0.000      0.000
REMARK  8 active torsions:
REMARK  status: ('A' for Active; 'I' for Inactive)
REMARK    1  A    between atoms: C2_2  and  N1_3 
REMARK    2  A    between atoms: N1_3  and  C3_5 
REMARK    3  A    between atoms: C3_5  and  C6_9 
REMARK    4  A    between atoms: C6_9  and  C12_16 
REMARK    5  A    between atoms: C7_10  and  C8_11 
REMARK    6  A    between atoms: C8_11  and  C9_12 
REMARK       I    between atoms: C12_16  and  N3_18 
REMARK       I    between atoms: N3_18  and  C13_20 
REMARK    7  A    between atoms: C13_20  and  O4_22 
REMARK    8  A    between atoms: O4_22  and  C14_23 
ROOT
HETATM    1  C3  UNL     1      50.659  50.527  19.377  1.00  0.00     0.145 C 
HETATM    2  C4  UNL     1      51.549  51.813  19.052  1.00  0.00     0.060 C 
HETATM    3  C5  UNL     1      51.629  49.508  19.702  1.00  0.00     0.095 C 
HETATM    4  N2  UNL     1      52.427  48.712  19.965  1.00  0.00    -0.194 NA
ENDROOT
BRANCH   1   5
HETATM    5  N1  UNL     1      49.900  50.909  20.515  1.00  0.00    -0.398 N 
ATOM      6  H1  UNL     1      48.882  50.948  20.474  1.00  0.00     0.155 HD
BRANCH   5   7
HETATM    7  C2  UNL     1      50.588  51.235  21.704  1.00  0.00     0.111 C 
HETATM    8  C1  UNL     1      50.203  52.688  22.047  1.00  0.00     0.026 C 
ENDBRANCH   5   7
ENDBRANCH   1   5
BRANCH   1   9
HETATM    9  C6  UNL     1      49.860  50.338  18.161  1.00  0.00     0.051 C 
HETATM   10  C7  UNL     1      49.162  51.358  17.414  1.00  0.00     0.029 C 
BRANCH  10  11
HETATM   11  C8  UNL     1      48.107  52.258  17.859  1.00  0.00     0.100 A 
HETATM   12  C11 UNL     1      48.515  53.660  18.367  1.00  0.00     0.211 A 
HETATM   13  O1  UNL     1      47.848  52.717  19.097  1.00  0.00    -0.371 OA
BRANCH  11  14
HETATM   14  C9  UNL     1      47.029  52.564  16.735  1.00  0.00     0.040 C 
HETATM   15  C10 UNL     1      46.166  51.354  16.538  1.00  0.00     0.008 C 
ENDBRANCH  11  14
ENDBRANCH  10  11
BRANCH   9  16
HETATM   16  C12 UNL     1      48.987  49.087  18.305  1.00  0.00     0.259 C 
HETATM   17  O2  UNL     1      48.801  48.541  19.405  1.00  0.00    -0.267 OA
HETATM   18  N3  UNL     1      48.367  48.529  17.169  1.00  0.00    -0.269 N 
HETATM   19  C13 UNL     1      47.533  47.358  17.268  1.00  0.00     0.368 C 
ATOM     20  H3  UNL     1      48.512  48.962  16.258  1.00  0.00     0.174 HD
HETATM   21  O3  UNL     1      47.326  46.792  18.376  1.00  0.00    -0.238 OA
BRANCH  19  22
HETATM   22  O4  UNL     1      46.917  46.800  16.163  1.00  0.00    -0.294 OA
BRANCH  22  23
HETATM   23  C14 UNL     1      45.732  47.309  15.637  1.00  0.00     0.061 C 
HETATM   24  C15 UNL     1      45.986  48.266  14.488  1.00  0.00     0.046 C 
HETATM   25  C16 UNL     1      44.943  46.129  15.052  1.00  0.00     0.046 C 
HETATM   26  C17 UNL     1      44.838  47.986  16.621  1.00  0.00     0.046 C 
ENDBRANCH  22  23
ENDBRANCH  19  22
ENDBRANCH   9  16
ENDBRANCH   1   9
TORSDOF 8
ENDMDL
MODEL 2
REMARK VINA RESULT: -6.891777068      2.714      6.689
REMARK  8 active torsions:
REMARK  status: ('A' for Active; 'I' for Inactive)
REMARK    1  A    between atoms: C2_2  and  N1_3 
REMARK    2  A    between atoms: N1_3  and  C3_5 
REMARK    3  A    between atoms: C3_5  and  C6_9 
REMARK    4  A    between atoms: C6_9  and  C12_16 
REMARK    5  A    between atoms: C7_10  and  C8_11 
REMARK    6  A    between atoms: C8_11  and  C9_12 
REMARK       I    between atoms: C12_16  and  N3_18 
REMARK       I    between atoms: N3_18  and  C13_20 
REMARK    7  A    between atoms: C13_20  and  O4_22 
REMARK    8  A    between atoms: O4_22  and  C14_23 
ROOT
HETATM    1  C3  UNL     1      50.058  50.020  18.717  1.00  0.00     0.145 C 
HETATM    2  C4  UNL     1      49.179  48.752  19.136  1.00  0.00     0.060 C 
HETATM    3  C5  UNL     1      51.193  49.963  19.609  1.00  0.00     0.095 C 
HETATM    4  N2  UNL     1      52.095  49.890  20.329  1.00  0.00    -0.194 NA
ENDROOT
BRANCH   1   5
HETATM    5  N1  UNL     1      50.434  49.752  17.373  1.00  0.00    -0.398 N 
ATOM      6  H1  UNL     1      49.802  49.257  16.744  1.00  0.00     0.155 HD
BRANCH   5   7
HETATM    7  C2  UNL     1      51.702  50.186  16.930  1.00  0.00     0.111 C 
HETATM    8  C1  UNL     1      51.667  50.130  15.389  1.00  0.00     0.026 C 
ENDBRANCH   5   7
ENDBRANCH   1   5
BRANCH   1   9
HETATM    9  C6  UNL     1      49.136  51.150  18.867  1.00  0.00     0.051 C 
HETATM   10  C7  UNL     1      47.863  51.325  18.207  1.00  0.00     0.029 C 
BRANCH  10  11
HETATM   11  C8  UNL     1      47.572  51.392  16.781  1.00  0.00     0.100 A 
HETATM   12  C11 UNL     1      46.977  50.138  16.102  1.00  0.00     0.211 A 
HETATM   13  O1  UNL     1      48.158  50.736  15.763  1.00  0.00    -0.371 OA
BRANCH  11  14
HETATM   14  C9  UNL     1      46.548  52.546  16.405  1.00  0.00     0.040 C 
HETATM   15  C10 UNL     1      47.157  53.874  16.742  1.00  0.00     0.008 C 
ENDBRANCH  11  14
ENDBRANCH  10  11
BRANCH   9  16
HETATM   16  C12 UNL     1      49.925  52.464  18.866  1.00  0.00     0.259 C 
HETATM   17  O2  UNL     1      51.047  52.555  18.341  1.00  0.00    -0.267 OA
HETATM   18  N3  UNL     1      49.375  53.613  19.473  1.00  0.00    -0.269 N 
HETATM   19  C13 UNL     1      50.084  54.867  19.484  1.00  0.00     0.368 C 
ATOM     20  H3  UNL     1      48.457  53.554  19.912  1.00  0.00     0.174 HD
HETATM   21  O3  UNL     1      51.221  54.982  18.951  1.00  0.00    -0.238 OA
BRANCH  19  22
HETATM   22  O4  UNL     1      49.558  56.001  20.073  1.00  0.00    -0.294 OA
BRANCH  22  23
HETATM   23  C14 UNL     1      49.983  56.456  21.320  1.00  0.00     0.061 C 
HETATM   24  C15 UNL     1      51.079  57.497  21.200  1.00  0.00     0.046 C 
HETATM   25  C16 UNL     1      48.791  57.156  21.987  1.00  0.00     0.046 C 
HETATM   26  C17 UNL     1      50.446  55.394  22.260  1.00  0.00     0.046 C 
ENDBRANCH  22  23
ENDBRANCH  19  22
ENDBRANCH   9  16
ENDBRANCH   1   9
TORSDOF 8
ENDMDL
MODEL 3
REMARK VINA RESULT: -6.670513154      2.276      6.437
REMARK  8 active torsions:
REMARK  status: ('A' for Active; 'I' for Inactive)
REMARK    1  A    between atoms: C2_2  and  N1_3 
REMARK    2  A    between atoms: N1_3  and  C3_5 
REMARK    3  A    between atoms: C3_5  and  C6_9 
REMARK    4  A    between atoms: C6_9  and  C12_16 
REMARK    5  A    between atoms: C7_10  and  C8_11 
REMARK    6  A    between atoms: C8_11  and  C9_12 
REMARK       I    between atoms: C12_16  and  N3_18 
REMARK       I    between atoms: N3_18  and  C13_20 
REMARK    7  A    between atoms: C13_20  and  O4_22 
REMARK    8  A    between atoms: O4_22  and  C14_23 
ROOT
HETATM    1  C3  UNL     1      50.814  50.398  18.479  1.00  0.00     0.145 C 
HETATM    2  C4  UNL     1      51.445  49.392  19.549  1.00  0.00     0.060 C 
HETATM    3  C5  UNL     1      51.579  51.611  18.652  1.00  0.00     0.095 C 
HETATM    4  N2  UNL     1      52.211  52.567  18.806  1.00  0.00    -0.194 NA
ENDROOT
BRANCH   1   5
HETATM    5  N1  UNL     1      51.084  49.784  17.226  1.00  0.00    -0.398 N 
ATOM      6  H1  UNL     1      51.012  48.773  17.115  1.00  0.00     0.155 HD
BRANCH   5   7
HETATM    7  C2  UNL     1      51.453  50.606  16.139  1.00  0.00     0.111 C 
HETATM    8  C1  UNL     1      51.797  49.657  14.973  1.00  0.00     0.026 C 
ENDBRANCH   5   7
ENDBRANCH   1   5
BRANCH   1   9
HETATM    9  C6  UNL     1      49.391  50.439  18.832  1.00  0.00     0.051 C 
HETATM   10  C7  UNL     1      48.382  49.467  18.480  1.00  0.00     0.029 C 
BRANCH  10  11
HETATM   11  C8  UNL     1      47.949  49.035  17.158  1.00  0.00     0.100 A 
HETATM   12  C11 UNL     1      47.945  47.519  16.855  1.00  0.00     0.211 A 
HETATM   13  O1  UNL     1      48.667  48.459  16.176  1.00  0.00    -0.371 OA
BRANCH  11  14
HETATM   14  C9  UNL     1      46.472  49.494  16.801  1.00  0.00     0.040 C 
HETATM   15  C10 UNL     1      46.514  50.406  15.612  1.00  0.00     0.008 C 
ENDBRANCH  11  14
ENDBRANCH  10  11
BRANCH   9  16
HETATM   16  C12 UNL     1      48.853  51.862  18.649  1.00  0.00     0.259 C 
HETATM   17  O2  UNL     1      48.329  52.232  17.585  1.00  0.00    -0.267 OA
HETATM   18  N3  UNL     1      48.946  52.789  19.707  1.00  0.00    -0.269 N 
HETATM   19  C13 UNL     1      48.444  54.132  19.573  1.00  0.00     0.368 C 
ATOM     20  H3  UNL     1      49.378  52.503  20.584  1.00  0.00     0.174 HD
HETATM   21  O3  UNL     1      47.902  54.526  18.505  1.00  0.00    -0.238 OA
BRANCH  19  22
HETATM   22  O4  UNL     1      48.527  55.052  20.602  1.00  0.00    -0.294 OA
BRANCH  22  23
HETATM   23  C14 UNL     1      49.746  55.555  21.052  1.00  0.00     0.061 C 
HETATM   24  C15 UNL     1      50.731  55.753  19.916  1.00  0.00     0.046 C 
HETATM   25  C16 UNL     1      49.481  56.947  21.643  1.00  0.00     0.046 C 
HETATM   26  C17 UNL     1      50.413  54.750  22.115  1.00  0.00     0.046 C 
ENDBRANCH  22  23
ENDBRANCH  19  22
ENDBRANCH   9  16
ENDBRANCH   1   9
TORSDOF 8
ENDMDL
MODEL 4
REMARK VINA RESULT: -6.591289388      2.243      6.129
REMARK  8 active torsions:
REMARK  status: ('A' for Active; 'I' for Inactive)
REMARK    1  A    between atoms: C2_2  and  N1_3 
REMARK    2  A    between atoms: N1_3  and  C3_5 
REMARK    3  A    between atoms: C3_5  and  C6_9 
REMARK    4  A    between atoms: C6_9  and  C12_16 
REMARK    5  A    between atoms: C7_10  and  C8_11 
REMARK    6  A    between atoms: C8_11  and  C9_12 
REMARK       I    between atoms: C12_16  and  N3_18 
REMARK       I    between atoms: N3_18  and  C13_20 
REMARK    7  A    between atoms: C13_20  and  O4_22 
REMARK    8  A    between atoms: O4_22  and  C14_23 
ROOT
HETATM    1  C3  UNL     1      50.510  50.308  18.242  1.00  0.00     0.145 C 
HETATM    2  C4  UNL     1      51.039  51.465  19.209  1.00  0.00     0.060 C 
HETATM    3  C5  UNL     1      51.128  50.611  16.972  1.00  0.00     0.095 C 
HETATM    4  N2  UNL     1      51.641  50.871  15.968  1.00  0.00    -0.194 NA
ENDROOT
BRANCH   1   5
HETATM    5  N1  UNL     1      51.036  49.116  18.808  1.00  0.00    -0.398 N 
ATOM      6  H1  UNL     1      51.124  48.267  18.249  1.00  0.00     0.155 HD
BRANCH   5   7
HETATM    7  C2  UNL     1      51.434  49.133  20.163  1.00  0.00     0.111 C 
HETATM    8  C1  UNL     1      50.323  48.412  20.952  1.00  0.00     0.026 C 
ENDBRANCH   5   7
ENDBRANCH   1   5
BRANCH   1   9
HETATM    9  C6  UNL     1      49.051  50.419  18.328  1.00  0.00     0.051 C 
HETATM   10  C7  UNL     1      48.076  49.561  17.694  1.00  0.00     0.029 C 
BRANCH  10  11
HETATM   11  C8  UNL     1      47.882  49.288  16.276  1.00  0.00     0.100 A 
HETATM   12  C11 UNL     1      48.426  47.956  15.712  1.00  0.00     0.211 A 
HETATM   13  O1  UNL     1      48.798  49.203  15.295  1.00  0.00    -0.371 OA
BRANCH  11  14
HETATM   14  C9  UNL     1      46.355  49.285  15.843  1.00  0.00     0.040 C 
HETATM   15  C10 UNL     1      45.495  49.353  17.069  1.00  0.00     0.008 C 
ENDBRANCH  11  14
ENDBRANCH  10  11
BRANCH   9  16
HETATM   16  C12 UNL     1      48.635  51.888  18.201  1.00  0.00     0.259 C 
HETATM   17  O2  UNL     1      48.211  52.359  17.133  1.00  0.00    -0.267 OA
HETATM   18  N3  UNL     1      48.728  52.743  19.318  1.00  0.00    -0.269 N 
HETATM   19  C13 UNL     1      48.338  54.127  19.238  1.00  0.00     0.368 C 
ATOM     20  H3  UNL     1      49.078  52.373  20.202  1.00  0.00     0.174 HD
HETATM   21  O3  UNL     1      47.899  54.624  18.165  1.00  0.00    -0.238 OA
BRANCH  19  22
HETATM   22  O4  UNL     1      48.422  54.977  20.326  1.00  0.00    -0.294 OA
BRANCH  22  23
HETATM   23  C14 UNL     1      49.644  55.389  20.853  1.00  0.00     0.061 C 
HETATM   24  C15 UNL     1      50.668  55.659  19.767  1.00  0.00     0.046 C 
HETATM   25  C16 UNL     1      49.410  56.726  21.570  1.00  0.00     0.046 C 
HETATM   26  C17 UNL     1      50.252  54.460  21.849  1.00  0.00     0.046 C 
ENDBRANCH  22  23
ENDBRANCH  19  22
ENDBRANCH   9  16
ENDBRANCH   1   9
TORSDOF 8
ENDMDL
MODEL 5
REMARK VINA RESULT: -6.544308121      2.279      6.341
REMARK  8 active torsions:
REMARK  status: ('A' for Active; 'I' for Inactive)
REMARK    1  A    between atoms: C2_2  and  N1_3 
REMARK    2  A    between atoms: N1_3  and  C3_5 
REMARK    3  A    between atoms: C3_5  and  C6_9 
REMARK    4  A    between atoms: C6_9  and  C12_16 
REMARK    5  A    between atoms: C7_10  and  C8_11 
REMARK    6  A    between atoms: C8_11  and  C9_12 
REMARK       I    between atoms: C12_16  and  N3_18 
REMARK       I    between atoms: N3_18  and  C13_20 
REMARK    7  A    between atoms: C13_20  and  O4_22 
REMARK    8  A    between atoms: O4_22  and  C14_23 
ROOT
HETATM    1  C3  UNL     1      45.203  46.448  17.460  1.00  0.00     0.145 C 
HETATM    2  C4  UNL     1      46.602  45.769  17.093  1.00  0.00     0.060 C 
HETATM    3  C5  UNL     1      44.376  46.182  16.306  1.00  0.00     0.095 C 
HETATM    4  N2  UNL     1      43.734  45.950  15.373  1.00  0.00    -0.194 NA
ENDROOT
BRANCH   1   5
HETATM    5  N1  UNL     1      44.757  45.726  18.600  1.00  0.00    -0.398 N 
ATOM      6  H1  UNL     1      45.310  44.959  18.981  1.00  0.00     0.155 HD
BRANCH   5   7
HETATM    7  C2  UNL     1      43.531  46.096  19.194  1.00  0.00     0.111 C 
HETATM    8  C1  UNL     1      43.629  45.700  20.681  1.00  0.00     0.026 C 
ENDBRANCH   5   7
ENDBRANCH   1   5
BRANCH   1   9
HETATM    9  C6  UNL     1      45.553  47.845  17.735  1.00  0.00     0.051 C 
HETATM   10  C7  UNL     1      45.608  48.930  16.782  1.00  0.00     0.029 C 
BRANCH  10  11
HETATM   11  C8  UNL     1      46.427  49.055  15.585  1.00  0.00     0.100 A 
HETATM   12  C11 UNL     1      45.860  48.503  14.257  1.00  0.00     0.211 A 
HETATM   13  O1  UNL     1      47.017  48.090  14.855  1.00  0.00    -0.371 OA
BRANCH  11  14
HETATM   14  C9  UNL     1      46.805  50.557  15.238  1.00  0.00     0.040 C 
HETATM   15  C10 UNL     1      46.273  51.459  16.311  1.00  0.00     0.008 C 
ENDBRANCH  11  14
ENDBRANCH  10  11
BRANCH   9  16
HETATM   16  C12 UNL     1      46.757  47.900  18.682  1.00  0.00     0.259 C 
HETATM   17  O2  UNL     1      46.786  47.256  19.743  1.00  0.00    -0.267 OA
HETATM   18  N3  UNL     1      47.872  48.698  18.353  1.00  0.00    -0.269 N 
HETATM   19  C13 UNL     1      49.024  48.767  19.214  1.00  0.00     0.368 C 
ATOM     20  H3  UNL     1      47.862  49.237  17.488  1.00  0.00     0.174 HD
HETATM   21  O3  UNL     1      49.077  48.116  20.293  1.00  0.00    -0.238 OA
BRANCH  19  22
HETATM   22  O4  UNL     1      50.126  49.544  18.905  1.00  0.00    -0.294 OA
BRANCH  22  23
HETATM   23  C14 UNL     1      50.236  50.872  19.313  1.00  0.00     0.061 C 
HETATM   24  C15 UNL     1      51.500  51.523  18.785  1.00  0.00     0.046 C 
HETATM   25  C16 UNL     1      49.061  51.643  18.696  1.00  0.00     0.046 C 
HETATM   26  C17 UNL     1      50.177  51.091  20.787  1.00  0.00     0.046 C 
ENDBRANCH  22  23
ENDBRANCH  19  22
ENDBRANCH   9  16
ENDBRANCH   1   9
TORSDOF 8
ENDMDL
