MODEL 1
REMARK VINA RESULT: -8.323233297      0.000      0.000
REMARK  13 active torsions:
REMARK  status: ('A' for Active; 'I' for Inactive)
REMARK    1  A    between atoms: O1_2  and  C2_3 
REMARK    2  A    between atoms: C2_3  and  C3_5 
REMARK    3  A    between atoms: C3_5  and  C4_6 
REMARK    4  A    between atoms: C3_5  and  C17_32 
REMARK    5  A    between atoms: C4_6  and  C5_7 
REMARK    6  A    between atoms: C5_7  and  C6_8 
REMARK    7  A    between atoms: N1_12  and  N2_14 
REMARK    8  A    between atoms: N2_14  and  C10_16 
REMARK    9  A    between atoms: C10_16  and  C11_17 
REMARK   10  A    between atoms: C10_16  and  C16_27 
REMARK   11  A    between atoms: C16_27  and  O3_28 
REMARK   12  A    between atoms: C16_27  and  O4_30 
REMARK   13  A    between atoms: C21_46  and  N10_47 
ROOT
HETATM    1  N10 UNL     1     -36.489  74.855  96.693  1.00  0.00    -0.289 N 
ATOM      2  H10 UNL     1     -36.775  75.302  95.821  1.00  0.00     0.178 HD
HETATM    3  C22 UNL     1     -35.202  75.039  97.155  1.00  0.00     0.182 C 
HETATM    4  N11 UNL     1     -34.127  75.207  97.556  1.00  0.00    -0.172 NA
ENDROOT
BRANCH   1   5
HETATM    5  C21 UNL     1     -37.345  74.125  97.344  1.00  0.00     0.105 A 
HETATM    6  C19 UNL     1     -38.141  74.484  98.512  1.00  0.00     0.172 A 
HETATM    7  N7  UNL     1     -38.234  75.610  99.237  1.00  0.00    -0.173 N 
HETATM    8  N8  UNL     1     -38.882  73.408  98.838  1.00  0.00    -0.223 N 
HETATM    9  C18 UNL     1     -39.061  75.665 100.279  1.00  0.00     0.678 A 
ATOM     10  H7  UNL     1     -37.670  76.423  98.990  1.00  0.00     0.186 HD
HETATM   11  N5  UNL     1     -39.791  74.576 100.582  1.00  0.00    -0.178 N 
HETATM   12  N6  UNL     1     -39.119  76.766 100.946  1.00  0.00    -0.234 N 
HETATM   13  C17 UNL     1     -39.726  73.435  99.884  1.00  0.00     0.140 A 
ATOM     14  H5  UNL     1     -40.424  74.623 101.381  1.00  0.00     0.185 HD
ATOM     15  H62 UNL     1     -39.752  76.809 101.744  1.00  0.00     0.174 HD
ATOM     16  H61 UNL     1     -38.565  77.592 100.716  1.00  0.00     0.174 HD
HETATM   17  N9  UNL     1     -38.577  72.420  97.927  1.00  0.00    -0.300 N 
HETATM   18  C20 UNL     1     -37.719  72.747  97.054  1.00  0.00     0.141 A 
ATOM     19  H9  UNL     1     -39.009  71.496  97.954  1.00  0.00     0.186 HD
BRANCH  13  20
HETATM   20  C3  UNL     1     -40.531  72.223 100.213  1.00  0.00     0.202 C 
BRANCH  20  21
HETATM   21  C2  UNL     1     -40.301  71.850 101.650  1.00  0.00     0.275 C 
HETATM   22  O2  UNL     1     -41.045  72.212 102.581  1.00  0.00    -0.264 OA
BRANCH  21  23
HETATM   23  O1  UNL     1     -39.213  71.061 102.002  1.00  0.00    -0.326 OA
HETATM   24  C1  UNL     1     -39.174  70.384 103.259  1.00  0.00     0.213 C 
ENDBRANCH  21  23
ENDBRANCH  20  21
BRANCH  20  25
HETATM   25  C4  UNL     1     -41.965  72.361  99.887  1.00  0.00     0.025 C 
HETATM   26  N1  UNL     1     -42.589  73.460 100.059  1.00  0.00    -0.311 N 
ATOM     27  H1  UNL     1     -42.002  74.205 100.436  1.00  0.00     0.186 HD
BRANCH  25  28
HETATM   28  C5  UNL     1     -42.714  71.220  99.354  1.00  0.00     0.063 C 
BRANCH  28  29
HETATM   29  C6  UNL     1     -43.130  70.132 100.254  1.00  0.00    -0.046 C 
HETATM   30  C7  UNL     1     -42.133  69.189 100.791  1.00  0.00     0.015 C 
HETATM   31  C8  UNL     1     -44.136  69.272  99.444  1.00  0.00     0.015 C 
HETATM   32  C9  UNL     1     -43.991  70.645 101.422  1.00  0.00     0.015 C 
ENDBRANCH  28  29
ENDBRANCH  25  28
BRANCH  26  33
HETATM   33  N2  UNL     1     -43.866  73.838  99.845  1.00  0.00    -0.323 N 
ATOM     34  H2  UNL     1     -44.475  73.249  99.278  1.00  0.00     0.181 HD
BRANCH  33  35
HETATM   35  C10 UNL     1     -44.387  75.072 100.409  1.00  0.00     0.187 C 
BRANCH  35  36
HETATM   36  C11 UNL     1     -45.795  74.917 100.848  1.00  0.00    -0.025 A 
HETATM   37  C12 UNL     1     -46.467  73.772 100.498  1.00  0.00     0.026 A 
HETATM   38  C13 UNL     1     -47.792  73.560 100.875  1.00  0.00     0.090 A 
HETATM   39  N3  UNL     1     -48.440  74.470 101.589  1.00  0.00    -0.353 N 
HETATM   40  C14 UNL     1     -47.804  75.600 101.943  1.00  0.00     0.099 A 
ATOM     41  H3  UNL     1     -49.410  74.316 101.866  1.00  0.00     0.166 HD
HETATM   42  N4  UNL     1     -48.474  76.457 102.636  1.00  0.00    -0.385 N 
HETATM   43  C15 UNL     1     -46.480  75.854 101.588  1.00  0.00     0.057 A 
ATOM     44  H42 UNL     1     -49.442  76.270 102.897  1.00  0.00     0.157 HD
ATOM     45  H41 UNL     1     -47.991  77.314 102.904  1.00  0.00     0.157 HD
ENDBRANCH  35  36
BRANCH  35  46
HETATM   46  C16 UNL     1     -43.580  75.469 101.636  1.00  0.00     0.282 C 
BRANCH  46  47
HETATM   47  O3  UNL     1     -43.362  74.382 102.451  1.00  0.00    -0.369 OA
ATOM     48  H3  UNL     1     -42.432  74.252 102.598  1.00  0.00     0.212 HD
ENDBRANCH  46  47
BRANCH  46  49
HETATM   49  O4  UNL     1     -42.368  76.027 101.274  1.00  0.00    -0.369 OA
ATOM     50  H4  UNL     1     -41.647  75.441 101.478  1.00  0.00     0.212 HD
ENDBRANCH  46  49
ENDBRANCH  35  46
ENDBRANCH  33  35
ENDBRANCH  26  33
ENDBRANCH  20  25
ENDBRANCH  13  20
ENDBRANCH   1   5
TORSDOF 13
ENDMDL
MODEL 2
REMARK VINA RESULT: -8.242044243      1.609      2.262
REMARK  13 active torsions:
REMARK  status: ('A' for Active; 'I' for Inactive)
REMARK    1  A    between atoms: O1_2  and  C2_3 
REMARK    2  A    between atoms: C2_3  and  C3_5 
REMARK    3  A    between atoms: C3_5  and  C4_6 
REMARK    4  A    between atoms: C3_5  and  C17_32 
REMARK    5  A    between atoms: C4_6  and  C5_7 
REMARK    6  A    between atoms: C5_7  and  C6_8 
REMARK    7  A    between atoms: N1_12  and  N2_14 
REMARK    8  A    between atoms: N2_14  and  C10_16 
REMARK    9  A    between atoms: C10_16  and  C11_17 
REMARK   10  A    between atoms: C10_16  and  C16_27 
REMARK   11  A    between atoms: C16_27  and  O3_28 
REMARK   12  A    between atoms: C16_27  and  O4_30 
REMARK   13  A    between atoms: C21_46  and  N10_47 
ROOT
HETATM    1  N10 UNL     1     -35.848  74.203  96.930  1.00  0.00    -0.289 N 
ATOM      2  H10 UNL     1     -34.983  73.669  96.845  1.00  0.00     0.178 HD
HETATM    3  C22 UNL     1     -35.939  75.442  96.329  1.00  0.00     0.182 C 
HETATM    4  N11 UNL     1     -36.025  76.475  95.809  1.00  0.00    -0.172 NA
ENDROOT
BRANCH   1   5
HETATM    5  C21 UNL     1     -36.843  73.702  97.602  1.00  0.00     0.105 A 
HETATM    6  C19 UNL     1     -37.501  74.241  98.786  1.00  0.00     0.172 A 
HETATM    7  N7  UNL     1     -37.300  75.354  99.510  1.00  0.00    -0.173 N 
HETATM    8  N8  UNL     1     -38.475  73.378  99.131  1.00  0.00    -0.223 N 
HETATM    9  C18 UNL     1     -38.066  75.606 100.570  1.00  0.00     0.678 A 
ATOM     10  H7  UNL     1     -36.561  76.006  99.249  1.00  0.00     0.186 HD
HETATM   11  N5  UNL     1     -39.033  74.727 100.891  1.00  0.00    -0.178 N 
HETATM   12  N6  UNL     1     -37.839  76.686 101.235  1.00  0.00    -0.234 N 
HETATM   13  C17 UNL     1     -39.263  73.607 100.195  1.00  0.00     0.140 A 
ATOM     14  H5  UNL     1     -39.618  74.925 101.703  1.00  0.00     0.185 HD
ATOM     15  H62 UNL     1     -38.425  76.880 102.047  1.00  0.00     0.174 HD
ATOM     16  H61 UNL     1     -37.106  77.353 100.991  1.00  0.00     0.174 HD
HETATM   17  N9  UNL     1     -38.441  72.347  98.217  1.00  0.00    -0.300 N 
HETATM   18  C20 UNL     1     -37.547  72.457  97.324  1.00  0.00     0.141 A 
ATOM     19  H9  UNL     1     -39.084  71.557  98.255  1.00  0.00     0.186 HD
BRANCH  13  20
HETATM   20  C3  UNL     1     -40.333  72.627 100.545  1.00  0.00     0.202 C 
BRANCH  20  21
HETATM   21  C2  UNL     1     -40.267  72.325 102.015  1.00  0.00     0.275 C 
HETATM   22  O2  UNL     1     -41.261  72.012 102.697  1.00  0.00    -0.264 OA
BRANCH  21  23
HETATM   23  O1  UNL     1     -39.052  72.385 102.688  1.00  0.00    -0.326 OA
HETATM   24  C1  UNL     1     -38.858  71.678 103.914  1.00  0.00     0.213 C 
ENDBRANCH  21  23
ENDBRANCH  20  21
BRANCH  20  25
HETATM   25  C4  UNL     1     -41.681  73.047 100.113  1.00  0.00     0.025 C 
HETATM   26  N1  UNL     1     -42.151  74.196 100.406  1.00  0.00    -0.311 N 
ATOM     27  H1  UNL     1     -41.510  74.770 100.953  1.00  0.00     0.186 HD
BRANCH  25  28
HETATM   28  C5  UNL     1     -42.523  72.137  99.332  1.00  0.00     0.063 C 
BRANCH  28  29
HETATM   29  C6  UNL     1     -43.159  70.982  99.987  1.00  0.00    -0.046 C 
HETATM   30  C7  UNL     1     -42.407  69.729 100.178  1.00  0.00     0.015 C 
HETATM   31  C8  UNL     1     -44.383  70.615  99.108  1.00  0.00     0.015 C 
HETATM   32  C9  UNL     1     -43.811  71.364 101.328  1.00  0.00     0.015 C 
ENDBRANCH  28  29
ENDBRANCH  25  28
BRANCH  26  33
HETATM   33  N2  UNL     1     -43.324  74.807 100.138  1.00  0.00    -0.323 N 
ATOM     34  H2  UNL     1     -43.436  75.317  99.262  1.00  0.00     0.181 HD
BRANCH  33  35
HETATM   35  C10 UNL     1     -44.431  74.748 101.079  1.00  0.00     0.187 C 
BRANCH  35  36
HETATM   36  C11 UNL     1     -44.627  76.046 101.769  1.00  0.00    -0.025 A 
HETATM   37  C12 UNL     1     -43.516  76.747 102.171  1.00  0.00     0.026 A 
HETATM   38  C13 UNL     1     -43.626  77.974 102.825  1.00  0.00     0.090 A 
HETATM   39  N3  UNL     1     -44.819  78.496 103.076  1.00  0.00    -0.353 N 
HETATM   40  C14 UNL     1     -45.920  77.828 102.692  1.00  0.00     0.099 A 
ATOM     41  H3  UNL     1     -44.900  79.393 103.555  1.00  0.00     0.166 HD
HETATM   42  N4  UNL     1     -47.058  78.374 102.958  1.00  0.00    -0.385 N 
HETATM   43  C15 UNL     1     -45.858  76.599 102.037  1.00  0.00     0.057 A 
ATOM     44  H42 UNL     1     -47.103  79.273 103.437  1.00  0.00     0.157 HD
ATOM     45  H41 UNL     1     -47.894  77.866 102.667  1.00  0.00     0.157 HD
ENDBRANCH  35  36
BRANCH  35  46
HETATM   46  C16 UNL     1     -45.726  74.433 100.346  1.00  0.00     0.282 C 
BRANCH  46  47
HETATM   47  O3  UNL     1     -45.478  74.102  99.034  1.00  0.00    -0.369 OA
ATOM     48  H3  UNL     1     -46.241  74.272  98.493  1.00  0.00     0.212 HD
ENDBRANCH  46  47
BRANCH  46  49
HETATM   49  O4  UNL     1     -46.408  73.401 100.962  1.00  0.00    -0.369 OA
ATOM     50  H4  UNL     1     -47.317  73.634 101.116  1.00  0.00     0.212 HD
ENDBRANCH  46  49
ENDBRANCH  35  46
ENDBRANCH  33  35
ENDBRANCH  26  33
ENDBRANCH  20  25
ENDBRANCH  13  20
ENDBRANCH   1   5
TORSDOF 13
ENDMDL
MODEL 3
REMARK VINA RESULT: -8.206021944      2.425      8.181
REMARK  13 active torsions:
REMARK  status: ('A' for Active; 'I' for Inactive)
REMARK    1  A    between atoms: O1_2  and  C2_3 
REMARK    2  A    between atoms: C2_3  and  C3_5 
REMARK    3  A    between atoms: C3_5  and  C4_6 
REMARK    4  A    between atoms: C3_5  and  C17_32 
REMARK    5  A    between atoms: C4_6  and  C5_7 
REMARK    6  A    between atoms: C5_7  and  C6_8 
REMARK    7  A    between atoms: N1_12  and  N2_14 
REMARK    8  A    between atoms: N2_14  and  C10_16 
REMARK    9  A    between atoms: C10_16  and  C11_17 
REMARK   10  A    between atoms: C10_16  and  C16_27 
REMARK   11  A    between atoms: C16_27  and  O3_28 
REMARK   12  A    between atoms: C16_27  and  O4_30 
REMARK   13  A    between atoms: C21_46  and  N10_47 
ROOT
HETATM    1  N10 UNL     1     -47.619  78.658 103.270  1.00  0.00    -0.289 N 
ATOM      2  H10 UNL     1     -48.437  79.028 102.785  1.00  0.00     0.178 HD
HETATM    3  C22 UNL     1     -47.193  79.263 104.434  1.00  0.00     0.182 C 
HETATM    4  N11 UNL     1     -46.844  79.758 105.423  1.00  0.00    -0.172 NA
ENDROOT
BRANCH   1   5
HETATM    5  C21 UNL     1     -47.001  77.624 102.778  1.00  0.00     0.105 A 
HETATM    6  C19 UNL     1     -45.570  77.435 102.576  1.00  0.00     0.172 A 
HETATM    7  N7  UNL     1     -44.506  78.217 102.818  1.00  0.00    -0.173 N 
HETATM    8  N8  UNL     1     -45.400  76.211 102.040  1.00  0.00    -0.223 N 
HETATM    9  C18 UNL     1     -43.281  77.784 102.530  1.00  0.00     0.678 A 
ATOM     10  H7  UNL     1     -44.637  79.145 103.223  1.00  0.00     0.186 HD
HETATM   11  N5  UNL     1     -43.139  76.557 101.996  1.00  0.00    -0.178 N 
HETATM   12  N6  UNL     1     -42.289  78.569 102.779  1.00  0.00    -0.234 N 
HETATM   13  C17 UNL     1     -44.175  75.747 101.739  1.00  0.00     0.140 A 
ATOM     14  H5  UNL     1     -42.198  76.228 101.777  1.00  0.00     0.185 HD
ATOM     15  H62 UNL     1     -41.350  78.237 102.559  1.00  0.00     0.174 HD
ATOM     16  H61 UNL     1     -42.396  79.498 103.184  1.00  0.00     0.174 HD
HETATM   17  N9  UNL     1     -46.652  75.652 101.910  1.00  0.00    -0.300 N 
HETATM   18  C20 UNL     1     -47.607  76.387 102.303  1.00  0.00     0.141 A 
ATOM     19  H9  UNL     1     -46.800  74.718 101.526  1.00  0.00     0.186 HD
BRANCH  13  20
HETATM   20  C3  UNL     1     -44.026  74.386 101.147  1.00  0.00     0.202 C 
BRANCH  20  21
HETATM   21  C2  UNL     1     -45.058  74.197 100.073  1.00  0.00     0.275 C 
HETATM   22  O2  UNL     1     -45.253  75.017  99.155  1.00  0.00    -0.264 OA
BRANCH  21  23
HETATM   23  O1  UNL     1     -45.859  73.061 100.064  1.00  0.00    -0.326 OA
HETATM   24  C1  UNL     1     -46.572  72.676  98.888  1.00  0.00     0.213 C 
ENDBRANCH  21  23
ENDBRANCH  20  21
BRANCH  20  25
HETATM   25  C4  UNL     1     -42.657  74.094 100.675  1.00  0.00     0.025 C 
HETATM   26  N1  UNL     1     -42.004  74.924  99.960  1.00  0.00    -0.311 N 
ATOM     27  H1  UNL     1     -42.519  75.781  99.759  1.00  0.00     0.186 HD
BRANCH  25  28
HETATM   28  C5  UNL     1     -42.012  72.825 101.021  1.00  0.00     0.063 C 
BRANCH  28  29
HETATM   29  C6  UNL     1     -42.242  71.635 100.184  1.00  0.00    -0.046 C 
HETATM   30  C7  UNL     1     -42.736  71.781  98.803  1.00  0.00     0.015 C 
HETATM   31  C8  UNL     1     -43.307  70.790 100.930  1.00  0.00     0.015 C 
HETATM   32  C9  UNL     1     -41.022  70.697 100.165  1.00  0.00     0.015 C 
ENDBRANCH  28  29
ENDBRANCH  25  28
BRANCH  26  33
HETATM   33  N2  UNL     1     -40.770  74.898  99.415  1.00  0.00    -0.323 N 
ATOM     34  H2  UNL     1     -40.668  74.923  98.401  1.00  0.00     0.181 HD
BRANCH  33  35
HETATM   35  C10 UNL     1     -39.583  74.835 100.252  1.00  0.00     0.187 C 
BRANCH  35  36
HETATM   36  C11 UNL     1     -38.425  74.277  99.513  1.00  0.00    -0.025 A 
HETATM   37  C12 UNL     1     -37.877  73.096  99.952  1.00  0.00     0.026 A 
HETATM   38  C13 UNL     1     -36.787  72.514  99.306  1.00  0.00     0.090 A 
HETATM   39  N3  UNL     1     -36.250  73.094  98.241  1.00  0.00    -0.353 N 
HETATM   40  C14 UNL     1     -36.769  74.250  97.794  1.00  0.00     0.099 A 
ATOM     41  H3  UNL     1     -35.453  72.669  97.768  1.00  0.00     0.166 HD
HETATM   42  N4  UNL     1     -36.214  74.779  96.756  1.00  0.00    -0.385 N 
HETATM   43  C15 UNL     1     -37.857  74.869  98.408  1.00  0.00     0.057 A 
ATOM     44  H42 UNL     1     -35.418  74.326  96.307  1.00  0.00     0.157 HD
ATOM     45  H41 UNL     1     -36.607  75.657  96.417  1.00  0.00     0.157 HD
ENDBRANCH  35  36
BRANCH  35  46
HETATM   46  C16 UNL     1     -39.188  76.232 100.709  1.00  0.00     0.282 C 
BRANCH  46  47
HETATM   47  O3  UNL     1     -40.200  76.812 101.438  1.00  0.00    -0.369 OA
ATOM     48  H3  UNL     1     -40.285  76.397 102.288  1.00  0.00     0.212 HD
ENDBRANCH  46  47
BRANCH  46  49
HETATM   49  O4  UNL     1     -38.032  76.200 101.466  1.00  0.00    -0.369 OA
ATOM     50  H4  UNL     1     -37.679  77.074 101.588  1.00  0.00     0.212 HD
ENDBRANCH  46  49
ENDBRANCH  35  46
ENDBRANCH  33  35
ENDBRANCH  26  33
ENDBRANCH  20  25
ENDBRANCH  13  20
ENDBRANCH   1   5
TORSDOF 13
ENDMDL
MODEL 4
REMARK VINA RESULT: -8.127655554      2.026      7.984
REMARK  13 active torsions:
REMARK  status: ('A' for Active; 'I' for Inactive)
REMARK    1  A    between atoms: O1_2  and  C2_3 
REMARK    2  A    between atoms: C2_3  and  C3_5 
REMARK    3  A    between atoms: C3_5  and  C4_6 
REMARK    4  A    between atoms: C3_5  and  C17_32 
REMARK    5  A    between atoms: C4_6  and  C5_7 
REMARK    6  A    between atoms: C5_7  and  C6_8 
REMARK    7  A    between atoms: N1_12  and  N2_14 
REMARK    8  A    between atoms: N2_14  and  C10_16 
REMARK    9  A    between atoms: C10_16  and  C11_17 
REMARK   10  A    between atoms: C10_16  and  C16_27 
REMARK   11  A    between atoms: C16_27  and  O3_28 
REMARK   12  A    between atoms: C16_27  and  O4_30 
REMARK   13  A    between atoms: C21_46  and  N10_47 
ROOT
HETATM    1  N10 UNL     1     -46.270  78.150 102.136  1.00  0.00    -0.289 N 
ATOM      2  H10 UNL     1     -46.157  78.961 101.528  1.00  0.00     0.178 HD
HETATM    3  C22 UNL     1     -47.365  78.081 102.974  1.00  0.00     0.182 C 
HETATM    4  N11 UNL     1     -48.293  78.012 103.665  1.00  0.00    -0.172 NA
ENDROOT
BRANCH   1   5
HETATM    5  C21 UNL     1     -45.380  77.202 102.106  1.00  0.00     0.105 A 
HETATM    6  C19 UNL     1     -45.482  75.880 101.498  1.00  0.00     0.172 A 
HETATM    7  N7  UNL     1     -46.464  75.264 100.822  1.00  0.00    -0.173 N 
HETATM    8  N8  UNL     1     -44.314  75.247 101.720  1.00  0.00    -0.223 N 
HETATM    9  C18 UNL     1     -46.285  74.026 100.368  1.00  0.00     0.678 A 
ATOM     10  H7  UNL     1     -47.348  75.745 100.656  1.00  0.00     0.186 HD
HETATM   11  N5  UNL     1     -45.108  73.416 100.602  1.00  0.00    -0.178 N 
HETATM   12  N6  UNL     1     -47.255  73.473  99.723  1.00  0.00    -0.234 N 
HETATM   13  C17 UNL     1     -44.105  73.996 101.273  1.00  0.00     0.140 A 
ATOM     14  H5  UNL     1     -44.975  72.467 100.253  1.00  0.00     0.185 HD
ATOM     15  H62 UNL     1     -47.117  72.524  99.375  1.00  0.00     0.174 HD
ATOM     16  H61 UNL     1     -48.146  73.935  99.545  1.00  0.00     0.174 HD
HETATM   17  N9  UNL     1     -43.513  76.116 102.428  1.00  0.00    -0.300 N 
HETATM   18  C20 UNL     1     -44.043  77.239 102.685  1.00  0.00     0.141 A 
ATOM     19  H9  UNL     1     -42.567  75.875 102.723  1.00  0.00     0.186 HD
BRANCH  13  20
HETATM   20  C3  UNL     1     -42.799  73.327 101.538  1.00  0.00     0.202 C 
BRANCH  20  21
HETATM   21  C2  UNL     1     -43.035  71.872 101.822  1.00  0.00     0.275 C 
HETATM   22  O2  UNL     1     -43.791  71.153 101.141  1.00  0.00    -0.264 OA
BRANCH  21  23
HETATM   23  O1  UNL     1     -42.396  71.255 102.890  1.00  0.00    -0.326 OA
HETATM   24  C1  UNL     1     -42.276  69.832 102.951  1.00  0.00     0.213 C 
ENDBRANCH  21  23
ENDBRANCH  20  21
BRANCH  20  25
HETATM   25  C4  UNL     1     -41.799  73.542 100.472  1.00  0.00     0.025 C 
HETATM   26  N1  UNL     1     -41.164  74.642 100.360  1.00  0.00    -0.311 N 
ATOM     27  H1  UNL     1     -41.419  75.332 101.067  1.00  0.00     0.186 HD
BRANCH  25  28
HETATM   28  C5  UNL     1     -41.513  72.480  99.503  1.00  0.00     0.063 C 
BRANCH  28  29
HETATM   29  C6  UNL     1     -40.347  71.603  99.700  1.00  0.00    -0.046 C 
HETATM   30  C7  UNL     1     -39.429  71.829 100.830  1.00  0.00     0.015 C 
HETATM   31  C8  UNL     1     -39.487  71.746  98.417  1.00  0.00     0.015 C 
HETATM   32  C9  UNL     1     -40.734  70.114  99.681  1.00  0.00     0.015 C 
ENDBRANCH  28  29
ENDBRANCH  25  28
BRANCH  26  33
HETATM   33  N2  UNL     1     -40.224  75.080  99.497  1.00  0.00    -0.323 N 
ATOM     34  H2  UNL     1     -40.487  75.297  98.536  1.00  0.00     0.181 HD
BRANCH  33  35
HETATM   35  C10 UNL     1     -38.842  75.246  99.916  1.00  0.00     0.187 C 
BRANCH  35  36
HETATM   36  C11 UNL     1     -37.915  75.211  98.759  1.00  0.00    -0.025 A 
HETATM   37  C12 UNL     1     -38.071  76.149  97.768  1.00  0.00     0.026 A 
HETATM   38  C13 UNL     1     -37.236  76.176  96.651  1.00  0.00     0.090 A 
HETATM   39  N3  UNL     1     -36.262  75.286  96.521  1.00  0.00    -0.353 N 
HETATM   40  C14 UNL     1     -36.091  74.358  97.478  1.00  0.00     0.099 A 
ATOM     41  H3  UNL     1     -35.651  75.304  95.704  1.00  0.00     0.166 HD
HETATM   42  N4  UNL     1     -35.131  73.512  97.308  1.00  0.00    -0.385 N 
HETATM   43  C15 UNL     1     -36.901  74.293  98.610  1.00  0.00     0.057 A 
ATOM     44  H42 UNL     1     -34.538  73.560  96.480  1.00  0.00     0.157 HD
ATOM     45  H41 UNL     1     -35.002  72.807  98.034  1.00  0.00     0.157 HD
ENDBRANCH  35  36
BRANCH  35  46
HETATM   46  C16 UNL     1     -38.658  76.596 100.593  1.00  0.00     0.282 C 
BRANCH  46  47
HETATM   47  O3  UNL     1     -39.729  76.884 101.408  1.00  0.00    -0.369 OA
ATOM     48  H3  UNL     1     -39.454  76.957 102.315  1.00  0.00     0.212 HD
ENDBRANCH  46  47
BRANCH  46  49
HETATM   49  O4  UNL     1     -37.492  76.625 101.335  1.00  0.00    -0.369 OA
ATOM     50  H4  UNL     1     -36.905  77.304 101.022  1.00  0.00     0.212 HD
ENDBRANCH  46  49
ENDBRANCH  35  46
ENDBRANCH  33  35
ENDBRANCH  26  33
ENDBRANCH  20  25
ENDBRANCH  13  20
ENDBRANCH   1   5
TORSDOF 13
ENDMDL
MODEL 5
REMARK VINA RESULT: -8.038844702      1.528      1.981
REMARK  13 active torsions:
REMARK  status: ('A' for Active; 'I' for Inactive)
REMARK    1  A    between atoms: O1_2  and  C2_3 
REMARK    2  A    between atoms: C2_3  and  C3_5 
REMARK    3  A    between atoms: C3_5  and  C4_6 
REMARK    4  A    between atoms: C3_5  and  C17_32 
REMARK    5  A    between atoms: C4_6  and  C5_7 
REMARK    6  A    between atoms: C5_7  and  C6_8 
REMARK    7  A    between atoms: N1_12  and  N2_14 
REMARK    8  A    between atoms: N2_14  and  C10_16 
REMARK    9  A    between atoms: C10_16  and  C11_17 
REMARK   10  A    between atoms: C10_16  and  C16_27 
REMARK   11  A    between atoms: C16_27  and  O3_28 
REMARK   12  A    between atoms: C16_27  and  O4_30 
REMARK   13  A    between atoms: C21_46  and  N10_47 
ROOT
HETATM    1  N10 UNL     1     -36.621  73.641  97.152  1.00  0.00    -0.289 N 
ATOM      2  H10 UNL     1     -36.693  73.818  96.150  1.00  0.00     0.178 HD
HETATM    3  C22 UNL     1     -35.405  73.806  97.782  1.00  0.00     0.182 C 
HETATM    4  N11 UNL     1     -34.389  73.963  98.318  1.00  0.00    -0.172 NA
ENDROOT
BRANCH   1   5
HETATM    5  C21 UNL     1     -37.679  73.263  97.809  1.00  0.00     0.105 A 
HETATM    6  C19 UNL     1     -38.452  74.013  98.792  1.00  0.00     0.172 A 
HETATM    7  N7  UNL     1     -38.324  75.250  99.297  1.00  0.00    -0.173 N 
HETATM    8  N8  UNL     1     -39.457  73.216  99.202  1.00  0.00    -0.223 N 
HETATM    9  C18 UNL     1     -39.192  75.691 100.205  1.00  0.00     0.678 A 
ATOM     10  H7  UNL     1     -37.561  75.851  98.986  1.00  0.00     0.186 HD
HETATM   11  N5  UNL     1     -40.188  74.875 100.597  1.00  0.00    -0.178 N 
HETATM   12  N6  UNL     1     -39.032  76.886 100.663  1.00  0.00    -0.234 N 
HETATM   13  C17 UNL     1     -40.348  73.635 100.117  1.00  0.00     0.140 A 
ATOM     14  H5  UNL     1     -40.851  75.217 101.292  1.00  0.00     0.185 HD
ATOM     15  H62 UNL     1     -39.697  77.224 101.358  1.00  0.00     0.174 HD
ATOM     16  H61 UNL     1     -38.278  77.504 100.365  1.00  0.00     0.174 HD
HETATM   17  N9  UNL     1     -39.332  72.026  98.518  1.00  0.00    -0.300 N 
HETATM   18  C20 UNL     1     -38.353  71.975  97.714  1.00  0.00     0.141 A 
ATOM     19  H9  UNL     1     -39.977  71.247  98.649  1.00  0.00     0.186 HD
BRANCH  13  20
HETATM   20  C3  UNL     1     -41.448  72.724 100.547  1.00  0.00     0.202 C 
BRANCH  20  21
HETATM   21  C2  UNL     1     -41.019  71.970 101.772  1.00  0.00     0.275 C 
HETATM   22  O2  UNL     1     -41.772  71.745 102.739  1.00  0.00    -0.264 OA
BRANCH  21  23
HETATM   23  O1  UNL     1     -39.722  71.482 101.875  1.00  0.00    -0.326 OA
HETATM   24  C1  UNL     1     -38.958  71.671 103.067  1.00  0.00     0.213 C 
ENDBRANCH  21  23
ENDBRANCH  20  21
BRANCH  20  25
HETATM   25  C4  UNL     1     -42.744  73.408 100.728  1.00  0.00     0.025 C 
HETATM   26  N1  UNL     1     -43.009  74.073 101.784  1.00  0.00    -0.311 N 
ATOM     27  H1  UNL     1     -42.249  74.075 102.464  1.00  0.00     0.186 HD
BRANCH  25  28
HETATM   28  C5  UNL     1     -43.771  73.335  99.685  1.00  0.00     0.063 C 
BRANCH  28  29
HETATM   29  C6  UNL     1     -44.767  72.250  99.713  1.00  0.00    -0.046 C 
HETATM   30  C7  UNL     1     -44.900  71.393 100.904  1.00  0.00     0.015 C 
HETATM   31  C8  UNL     1     -44.393  71.301  98.545  1.00  0.00     0.015 C 
HETATM   32  C9  UNL     1     -46.168  72.742  99.311  1.00  0.00     0.015 C 
ENDBRANCH  28  29
ENDBRANCH  25  28
BRANCH  26  33
HETATM   33  N2  UNL     1     -44.090  74.773 102.185  1.00  0.00    -0.323 N 
ATOM     34  H2  UNL     1     -44.762  74.341 102.819  1.00  0.00     0.181 HD
BRANCH  33  35
HETATM   35  C10 UNL     1     -44.313  76.135 101.727  1.00  0.00     0.187 C 
BRANCH  35  36
HETATM   36  C11 UNL     1     -45.631  76.649 102.169  1.00  0.00    -0.025 A 
HETATM   37  C12 UNL     1     -46.743  75.874 101.948  1.00  0.00     0.026 A 
HETATM   38  C13 UNL     1     -48.014  76.294 102.337  1.00  0.00     0.090 A 
HETATM   39  N3  UNL     1     -48.179  77.465 102.936  1.00  0.00    -0.353 N 
HETATM   40  C14 UNL     1     -47.106  78.242 103.163  1.00  0.00     0.099 A 
ATOM     41  H3  UNL     1     -49.109  77.774 103.221  1.00  0.00     0.166 HD
HETATM   42  N4  UNL     1     -47.315  79.373 103.747  1.00  0.00    -0.385 N 
HETATM   43  C15 UNL     1     -45.817  77.863 102.791  1.00  0.00     0.057 A 
ATOM     44  H42 UNL     1     -48.258  79.650 104.020  1.00  0.00     0.157 HD
ATOM     45  H41 UNL     1     -46.500  79.962 103.919  1.00  0.00     0.157 HD
ENDBRANCH  35  36
BRANCH  35  46
HETATM   46  C16 UNL     1     -43.256  77.063 102.308  1.00  0.00     0.282 C 
BRANCH  46  47
HETATM   47  O3  UNL     1     -43.130  76.872 103.665  1.00  0.00    -0.369 OA
ATOM     48  H3  UNL     1     -42.476  76.209 103.853  1.00  0.00     0.212 HD
ENDBRANCH  46  47
BRANCH  46  49
HETATM   49  O4  UNL     1     -42.031  76.865 101.697  1.00  0.00    -0.369 OA
ATOM     50  H4  UNL     1     -41.548  76.163 102.119  1.00  0.00     0.212 HD
ENDBRANCH  46  49
ENDBRANCH  35  46
ENDBRANCH  33  35
ENDBRANCH  26  33
ENDBRANCH  20  25
ENDBRANCH  13  20
ENDBRANCH   1   5
TORSDOF 13
ENDMDL
