MODEL 1
REMARK VINA RESULT: -8.817289397      0.000      0.000
REMARK  13 active torsions:
REMARK  status: ('A' for Active; 'I' for Inactive)
REMARK    1  A    between atoms: C2_2  and  O1_4 
REMARK    2  A    between atoms: C2_2  and  C17_42 
REMARK    3  A    between atoms: O1_4  and  C4_5 
REMARK    4  A    between atoms: C6_8  and  O3_9 
REMARK    5  A    between atoms: C7_11  and  C8_12 
REMARK    6  A    between atoms: N1_13  and  N2_15 
REMARK       I    between atoms: N2_15  and  C9_17 
REMARK    7  A    between atoms: C9_17  and  C10_19 
REMARK    8  A    between atoms: N3_21  and  C12_22 
REMARK    9  A    between atoms: C15_28  and  N6_29 
REMARK   10  A    between atoms: C16_34  and  N8_35 
REMARK   11  A    between atoms: C17_42  and  O5_43 
REMARK   12  A    between atoms: C17_42  and  C18_45 
REMARK   13  A    between atoms: C18_45  and  N11_46 
ROOT
HETATM    1  C12 UNL     1     -36.406  73.824  99.019  1.00  0.00     0.139 A 
HETATM    2  C13 UNL     1     -35.960  74.185  97.777  1.00  0.00     0.162 A 
HETATM    3  C14 UNL     1     -36.638  75.210  97.065  1.00  0.00     0.120 C 
HETATM    4  N4  UNL     1     -37.177  76.052  96.483  1.00  0.00    -0.190 NA
HETATM    5  N5  UNL     1     -34.890  73.565  97.254  1.00  0.00    -0.180 N 
ATOM      6  H5  UNL     1     -34.560  73.839  96.328  1.00  0.00     0.185 HD
HETATM    7  C15 UNL     1     -34.243  72.595  97.919  1.00  0.00     0.678 A 
HETATM    8  N7  UNL     1     -34.680  72.249  99.123  1.00  0.00    -0.175 N 
ATOM      9  H7  UNL     1     -34.188  71.512  99.628  1.00  0.00     0.186 HD
HETATM   10  C16 UNL     1     -35.744  72.829  99.704  1.00  0.00     0.146 A 
ENDROOT
BRANCH   1  11
HETATM   11  N3  UNL     1     -37.542  74.491  99.561  1.00  0.00    -0.244 N 
HETATM   12  C11 UNL     1     -38.836  74.102  99.500  1.00  0.00     0.155 A 
HETATM   13  C10 UNL     1     -39.627  75.027 100.149  1.00  0.00     0.136 A 
HETATM   14  N10 UNL     1     -38.773  75.966 100.594  1.00  0.00    -0.279 N 
HETATM   15  N9  UNL     1     -37.527  75.623 100.229  1.00  0.00    -0.235 N 
ATOM     16  H10 UNL     1     -39.029  76.800 101.122  1.00  0.00     0.189 HD
ATOM     17  H9  UNL     1     -36.688  76.163 100.440  1.00  0.00     0.209 HD
BRANCH  13  18
HETATM   18  C9  UNL     1     -41.075  74.989 100.315  1.00  0.00     0.289 C 
HETATM   19  N2  UNL     1     -41.744  76.068 100.952  1.00  0.00    -0.265 N 
ATOM     20  H2  UNL     1     -41.213  76.870 101.292  1.00  0.00     0.190 HD
HETATM   21  O4  UNL     1     -41.733  74.005  99.898  1.00  0.00    -0.264 OA
BRANCH  19  22
HETATM   22  N1  UNL     1     -43.128  76.029 101.109  1.00  0.00    -0.308 N 
HETATM   23  C8  UNL     1     -43.691  76.797 101.946  1.00  0.00     0.126 C 
ATOM     24  H1  UNL     1     -43.687  75.383 100.552  1.00  0.00     0.186 HD
BRANCH  23  25
HETATM   25  C7  UNL     1     -45.147  76.743 102.098  1.00  0.00     0.074 A 
HETATM   26  C4  UNL     1     -46.048  75.835 101.551  1.00  0.00     0.108 A 
HETATM   27  C5  UNL     1     -47.284  76.208 102.011  1.00  0.00     0.182 A 
HETATM   28  O2  UNL     1     -47.146  77.250 102.770  1.00  0.00    -0.297 OA
HETATM   29  C6  UNL     1     -45.901  77.611 102.857  1.00  0.00     0.197 A 
BRANCH  26  30
HETATM   30  O1  UNL     1     -45.785  74.805 100.743  1.00  0.00    -0.335 OA
BRANCH  30  31
HETATM   31  C2  UNL     1     -46.167  73.523 100.538  1.00  0.00     0.088 C 
HETATM   32  C1  UNL     1     -46.787  73.505  99.093  1.00  0.00     0.049 C 
HETATM   33  C3  UNL     1     -47.277  73.033 101.453  1.00  0.00     0.049 C 
BRANCH  31  34
HETATM   34  C17 UNL     1     -45.130  72.447 100.447  1.00  0.00     0.180 C 
BRANCH  34  35
HETATM   35  O5  UNL     1     -44.327  72.763  99.323  1.00  0.00    -0.391 OA
ATOM     36  H5  UNL     1     -43.605  72.146  99.331  1.00  0.00     0.210 HD
ENDBRANCH  34  35
BRANCH  34  37
HETATM   37  C18 UNL     1     -44.283  72.169 101.616  1.00  0.00     0.306 C 
BRANCH  37  38
HETATM   38  N11 UNL     1     -43.066  71.427 101.368  1.00  0.00     0.091 N 
HETATM   39  C19 UNL     1     -43.257  70.062 101.892  1.00  0.00     0.274 C 
HETATM   40  C20 UNL     1     -42.645  70.462 103.214  1.00  0.00     0.060 C 
HETATM   41  C21 UNL     1     -42.046  71.580 102.390  1.00  0.00     0.274 C 
ENDBRANCH  37  38
ENDBRANCH  34  37
ENDBRANCH  31  34
ENDBRANCH  30  31
ENDBRANCH  26  30
BRANCH  29  42
HETATM   42  O3  UNL     1     -45.430  78.693 103.596  1.00  0.00    -0.340 OA
ATOM     43  H3  UNL     1     -44.557  78.764 103.964  1.00  0.00     0.220 HD
ENDBRANCH  29  42
ENDBRANCH  23  25
ENDBRANCH  19  22
ENDBRANCH  13  18
ENDBRANCH   1  11
BRANCH  10  44
HETATM   44  N8  UNL     1     -36.131  72.466 100.863  1.00  0.00    -0.383 N 
ATOM     45  H82 UNL     1     -36.901  72.946 101.330  1.00  0.00     0.157 HD
ATOM     46  H81 UNL     1     -35.680  71.688 101.344  1.00  0.00     0.157 HD
ENDBRANCH  10  44
BRANCH   7  47
HETATM   47  N6  UNL     1     -33.208  72.021  97.371  1.00  0.00    -0.234 N 
ATOM     48  H62 UNL     1     -32.333  72.522  97.217  1.00  0.00     0.174 HD
ATOM     49  H61 UNL     1     -33.268  71.044  97.086  1.00  0.00     0.174 HD
ENDBRANCH   7  47
TORSDOF 13
ENDMDL
MODEL 2
REMARK VINA RESULT: -8.744392508      0.938      2.007
REMARK  13 active torsions:
REMARK  status: ('A' for Active; 'I' for Inactive)
REMARK    1  A    between atoms: C2_2  and  O1_4 
REMARK    2  A    between atoms: C2_2  and  C17_42 
REMARK    3  A    between atoms: O1_4  and  C4_5 
REMARK    4  A    between atoms: C6_8  and  O3_9 
REMARK    5  A    between atoms: C7_11  and  C8_12 
REMARK    6  A    between atoms: N1_13  and  N2_15 
REMARK       I    between atoms: N2_15  and  C9_17 
REMARK    7  A    between atoms: C9_17  and  C10_19 
REMARK    8  A    between atoms: N3_21  and  C12_22 
REMARK    9  A    between atoms: C15_28  and  N6_29 
REMARK   10  A    between atoms: C16_34  and  N8_35 
REMARK   11  A    between atoms: C17_42  and  O5_43 
REMARK   12  A    between atoms: C17_42  and  C18_45 
REMARK   13  A    between atoms: C18_45  and  N11_46 
ROOT
HETATM    1  C12 UNL     1     -36.435  73.710  99.009  1.00  0.00     0.139 A 
HETATM    2  C13 UNL     1     -35.729  72.898  99.855  1.00  0.00     0.162 A 
HETATM    3  C14 UNL     1     -36.132  72.789 101.212  1.00  0.00     0.120 C 
HETATM    4  N4  UNL     1     -36.461  72.685 102.317  1.00  0.00    -0.190 NA
HETATM    5  N5  UNL     1     -34.669  72.220  99.388  1.00  0.00    -0.180 N 
ATOM      6  H5  UNL     1     -34.146  71.615 100.022  1.00  0.00     0.185 HD
HETATM    7  C15 UNL     1     -34.279  72.316  98.106  1.00  0.00     0.678 A 
HETATM    8  N7  UNL     1     -34.967  73.105  97.291  1.00  0.00    -0.175 N 
ATOM      9  H7  UNL     1     -34.671  73.178  96.318  1.00  0.00     0.186 HD
HETATM   10  C16 UNL     1     -36.038  73.811  97.693  1.00  0.00     0.146 A 
ENDROOT
BRANCH   1  11
HETATM   11  N3  UNL     1     -37.557  74.423  99.519  1.00  0.00    -0.244 N 
HETATM   12  C11 UNL     1     -38.848  74.022  99.546  1.00  0.00     0.155 A 
HETATM   13  C10 UNL     1     -39.626  75.006 100.122  1.00  0.00     0.136 A 
HETATM   14  N10 UNL     1     -38.765  75.991 100.435  1.00  0.00    -0.279 N 
HETATM   15  N9  UNL     1     -37.529  75.619 100.064  1.00  0.00    -0.235 N 
ATOM     16  H10 UNL     1     -39.011  76.874 100.881  1.00  0.00     0.189 HD
ATOM     17  H9  UNL     1     -36.689  76.183 100.186  1.00  0.00     0.209 HD
BRANCH  13  18
HETATM   18  C9  UNL     1     -41.066  74.976 100.343  1.00  0.00     0.289 C 
HETATM   19  N2  UNL     1     -41.716  76.093 100.932  1.00  0.00    -0.265 N 
ATOM     20  H2  UNL     1     -41.176  76.917 101.200  1.00  0.00     0.190 HD
HETATM   21  O4  UNL     1     -41.735  73.966 100.016  1.00  0.00    -0.264 OA
BRANCH  19  22
HETATM   22  N1  UNL     1     -43.093  76.063 101.142  1.00  0.00    -0.308 N 
HETATM   23  C8  UNL     1     -43.633  76.908 101.917  1.00  0.00     0.126 C 
ATOM     24  H1  UNL     1     -43.665  75.362 100.673  1.00  0.00     0.186 HD
BRANCH  23  25
HETATM   25  C7  UNL     1     -45.082  76.861 102.127  1.00  0.00     0.074 A 
HETATM   26  C4  UNL     1     -46.014  75.982 101.585  1.00  0.00     0.108 A 
HETATM   27  C5  UNL     1     -47.227  76.348 102.107  1.00  0.00     0.182 A 
HETATM   28  O2  UNL     1     -47.048  77.361 102.897  1.00  0.00    -0.297 OA
HETATM   29  C6  UNL     1     -45.796  77.708 102.945  1.00  0.00     0.197 A 
BRANCH  26  30
HETATM   30  O1  UNL     1     -45.794  74.978 100.730  1.00  0.00    -0.335 OA
BRANCH  30  31
HETATM   31  C2  UNL     1     -45.847  73.627 100.681  1.00  0.00     0.088 C 
HETATM   32  C1  UNL     1     -46.120  73.281  99.172  1.00  0.00     0.049 C 
HETATM   33  C3  UNL     1     -47.002  73.005 101.448  1.00  0.00     0.049 C 
BRANCH  31  34
HETATM   34  C17 UNL     1     -44.614  72.828 100.968  1.00  0.00     0.180 C 
BRANCH  34  35
HETATM   35  O5  UNL     1     -44.052  73.374 102.149  1.00  0.00    -0.391 OA
ATOM     36  H5  UNL     1     -43.987  74.311 102.003  1.00  0.00     0.210 HD
ENDBRANCH  34  35
BRANCH  34  37
HETATM   37  C18 UNL     1     -44.720  71.366 101.085  1.00  0.00     0.306 C 
BRANCH  37  38
HETATM   38  N11 UNL     1     -43.581  70.599 100.628  1.00  0.00     0.091 N 
HETATM   39  C19 UNL     1     -44.071  69.596  99.665  1.00  0.00     0.274 C 
HETATM   40  C20 UNL     1     -44.212  68.575 100.770  1.00  0.00     0.060 C 
HETATM   41  C21 UNL     1     -43.228  69.477 101.480  1.00  0.00     0.274 C 
ENDBRANCH  37  38
ENDBRANCH  34  37
ENDBRANCH  31  34
ENDBRANCH  30  31
ENDBRANCH  26  30
BRANCH  29  42
HETATM   42  O3  UNL     1     -45.284  78.758 103.703  1.00  0.00    -0.340 OA
ATOM     43  H3  UNL     1     -44.885  79.544 103.348  1.00  0.00     0.220 HD
ENDBRANCH  29  42
ENDBRANCH  23  25
ENDBRANCH  19  22
ENDBRANCH  13  18
ENDBRANCH   1  11
BRANCH  10  44
HETATM   44  N8  UNL     1     -36.670  74.557  96.877  1.00  0.00    -0.383 N 
ATOM     45  H82 UNL     1     -37.389  75.201  97.208  1.00  0.00     0.157 HD
ATOM     46  H81 UNL     1     -36.470  74.524  95.877  1.00  0.00     0.157 HD
ENDBRANCH  10  44
BRANCH   7  47
HETATM   47  N6  UNL     1     -33.243  71.639  97.697  1.00  0.00    -0.234 N 
ATOM     48  H62 UNL     1     -32.289  71.945  97.890  1.00  0.00     0.174 HD
ATOM     49  H61 UNL     1     -33.383  70.778  97.169  1.00  0.00     0.174 HD
ENDBRANCH   7  47
TORSDOF 13
ENDMDL
MODEL 3
REMARK VINA RESULT: -8.496003855      3.547      9.546
REMARK  13 active torsions:
REMARK  status: ('A' for Active; 'I' for Inactive)
REMARK    1  A    between atoms: C2_2  and  O1_4 
REMARK    2  A    between atoms: C2_2  and  C17_42 
REMARK    3  A    between atoms: O1_4  and  C4_5 
REMARK    4  A    between atoms: C6_8  and  O3_9 
REMARK    5  A    between atoms: C7_11  and  C8_12 
REMARK    6  A    between atoms: N1_13  and  N2_15 
REMARK       I    between atoms: N2_15  and  C9_17 
REMARK    7  A    between atoms: C9_17  and  C10_19 
REMARK    8  A    between atoms: N3_21  and  C12_22 
REMARK    9  A    between atoms: C15_28  and  N6_29 
REMARK   10  A    between atoms: C16_34  and  N8_35 
REMARK   11  A    between atoms: C17_42  and  O5_43 
REMARK   12  A    between atoms: C17_42  and  C18_45 
REMARK   13  A    between atoms: C18_45  and  N11_46 
ROOT
HETATM    1  C12 UNL     1     -43.821  76.154 101.459  1.00  0.00     0.139 A 
HETATM    2  C13 UNL     1     -45.136  75.888 101.190  1.00  0.00     0.162 A 
HETATM    3  C14 UNL     1     -45.464  74.830 100.303  1.00  0.00     0.120 C 
HETATM    4  N4  UNL     1     -45.742  73.962  99.589  1.00  0.00    -0.190 NA
HETATM    5  N5  UNL     1     -46.092  76.632 101.770  1.00  0.00    -0.180 N 
ATOM      6  H5  UNL     1     -47.071  76.430 101.567  1.00  0.00     0.185 HD
HETATM    7  C15 UNL     1     -45.792  77.635 102.610  1.00  0.00     0.678 A 
HETATM    8  N7  UNL     1     -44.515  77.888 102.868  1.00  0.00    -0.175 N 
ATOM      9  H7  UNL     1     -44.287  78.650 103.506  1.00  0.00     0.186 HD
HETATM   10  C16 UNL     1     -43.510  77.183 102.322  1.00  0.00     0.146 A 
ENDROOT
BRANCH   1  11
HETATM   11  N3  UNL     1     -42.818  75.356 100.838  1.00  0.00    -0.244 N 
HETATM   12  C11 UNL     1     -41.566  75.728 100.487  1.00  0.00     0.155 A 
HETATM   13  C10 UNL     1     -40.912  74.659  99.910  1.00  0.00     0.136 A 
HETATM   14  N10 UNL     1     -41.803  73.653  99.929  1.00  0.00    -0.279 N 
HETATM   15  N9  UNL     1     -42.941  74.094 100.491  1.00  0.00    -0.235 N 
ATOM     16  H10 UNL     1     -41.642  72.710  99.576  1.00  0.00     0.189 HD
ATOM     17  H9  UNL     1     -43.780  73.532 100.628  1.00  0.00     0.209 HD
BRANCH  13  18
HETATM   18  C9  UNL     1     -39.549  74.633  99.394  1.00  0.00     0.289 C 
HETATM   19  N2  UNL     1     -38.997  75.794  98.791  1.00  0.00    -0.265 N 
ATOM     20  H2  UNL     1     -39.552  76.646  98.717  1.00  0.00     0.190 HD
HETATM   21  O4  UNL     1     -38.861  73.587  99.481  1.00  0.00    -0.264 OA
BRANCH  19  22
HETATM   22  N1  UNL     1     -37.694  75.766  98.298  1.00  0.00    -0.308 N 
HETATM   23  C8  UNL     1     -37.485  75.892  97.054  1.00  0.00     0.126 C 
ATOM     24  H1  UNL     1     -36.909  75.645  98.938  1.00  0.00     0.186 HD
BRANCH  23  25
HETATM   25  C7  UNL     1     -36.108  75.860  96.554  1.00  0.00     0.074 A 
HETATM   26  C4  UNL     1     -35.012  75.170  97.061  1.00  0.00     0.108 A 
HETATM   27  C5  UNL     1     -33.965  75.458  96.224  1.00  0.00     0.182 A 
HETATM   28  O2  UNL     1     -34.389  76.254  95.291  1.00  0.00    -0.297 OA
HETATM   29  C6  UNL     1     -35.651  76.525  95.439  1.00  0.00     0.197 A 
BRANCH  26  30
HETATM   30  O1  UNL     1     -34.965  74.382  98.139  1.00  0.00    -0.335 OA
BRANCH  30  31
HETATM   31  C2  UNL     1     -35.235  73.107  98.504  1.00  0.00     0.088 C 
HETATM   32  C1  UNL     1     -33.918  72.305  98.200  1.00  0.00     0.049 C 
HETATM   33  C3  UNL     1     -36.317  72.423  97.685  1.00  0.00     0.049 C 
BRANCH  31  34
HETATM   34  C17 UNL     1     -35.471  72.786  99.947  1.00  0.00     0.180 C 
BRANCH  34  35
HETATM   35  O5  UNL     1     -36.175  73.890 100.490  1.00  0.00    -0.391 OA
ATOM     36  H5  UNL     1     -36.826  73.526 101.079  1.00  0.00     0.210 HD
ENDBRANCH  34  35
BRANCH  34  37
HETATM   37  C18 UNL     1     -36.147  71.528 100.299  1.00  0.00     0.306 C 
BRANCH  37  38
HETATM   38  N11 UNL     1     -36.923  71.534 101.521  1.00  0.00     0.091 N 
HETATM   39  C19 UNL     1     -36.343  70.525 102.426  1.00  0.00     0.274 C 
HETATM   40  C20 UNL     1     -37.308  69.482 101.915  1.00  0.00     0.060 C 
HETATM   41  C21 UNL     1     -38.107  70.693 101.487  1.00  0.00     0.274 C 
ENDBRANCH  37  38
ENDBRANCH  34  37
ENDBRANCH  31  34
ENDBRANCH  30  31
ENDBRANCH  26  30
BRANCH  29  42
HETATM   42  O3  UNL     1     -36.396  77.350  94.600  1.00  0.00    -0.340 OA
ATOM     43  H3  UNL     1     -37.342  77.326  94.509  1.00  0.00     0.220 HD
ENDBRANCH  29  42
ENDBRANCH  23  25
ENDBRANCH  19  22
ENDBRANCH  13  18
ENDBRANCH   1  11
BRANCH  10  44
HETATM   44  N8  UNL     1     -42.296  77.459 102.596  1.00  0.00    -0.383 N 
ATOM     45  H82 UNL     1     -41.537  76.865 102.262  1.00  0.00     0.157 HD
ATOM     46  H81 UNL     1     -42.062  78.280 103.154  1.00  0.00     0.157 HD
ENDBRANCH  10  44
BRANCH   7  47
HETATM   47  N6  UNL     1     -46.754  78.330 103.150  1.00  0.00    -0.234 N 
ATOM     48  H62 UNL     1     -47.117  78.117 104.080  1.00  0.00     0.174 HD
ATOM     49  H61 UNL     1     -47.160  79.111 102.634  1.00  0.00     0.174 HD
ENDBRANCH   7  47
TORSDOF 13
ENDMDL
MODEL 4
REMARK VINA RESULT: -8.460269012      3.306      9.386
REMARK  13 active torsions:
REMARK  status: ('A' for Active; 'I' for Inactive)
REMARK    1  A    between atoms: C2_2  and  O1_4 
REMARK    2  A    between atoms: C2_2  and  C17_42 
REMARK    3  A    between atoms: O1_4  and  C4_5 
REMARK    4  A    between atoms: C6_8  and  O3_9 
REMARK    5  A    between atoms: C7_11  and  C8_12 
REMARK    6  A    between atoms: N1_13  and  N2_15 
REMARK       I    between atoms: N2_15  and  C9_17 
REMARK    7  A    between atoms: C9_17  and  C10_19 
REMARK    8  A    between atoms: N3_21  and  C12_22 
REMARK    9  A    between atoms: C15_28  and  N6_29 
REMARK   10  A    between atoms: C16_34  and  N8_35 
REMARK   11  A    between atoms: C17_42  and  O5_43 
REMARK   12  A    between atoms: C17_42  and  C18_45 
REMARK   13  A    between atoms: C18_45  and  N11_46 
ROOT
HETATM    1  C12 UNL     1     -44.499  76.073 101.884  1.00  0.00     0.139 A 
HETATM    2  C13 UNL     1     -45.834  75.842 101.689  1.00  0.00     0.162 A 
HETATM    3  C14 UNL     1     -46.246  74.648 101.041  1.00  0.00     0.120 C 
HETATM    4  N4  UNL     1     -46.591  73.671 100.525  1.00  0.00    -0.190 NA
HETATM    5  N5  UNL     1     -46.729  76.749 102.112  1.00  0.00    -0.180 N 
ATOM      6  H5  UNL     1     -47.723  76.572 101.965  1.00  0.00     0.185 HD
HETATM    7  C15 UNL     1     -46.350  77.881 102.725  1.00  0.00     0.678 A 
HETATM    8  N7  UNL     1     -45.055  78.099 102.912  1.00  0.00    -0.175 N 
ATOM      9  H7  UNL     1     -44.766  78.960 103.378  1.00  0.00     0.186 HD
HETATM   10  C16 UNL     1     -44.107  77.234 102.514  1.00  0.00     0.146 A 
ENDROOT
BRANCH   1  11
HETATM   11  N3  UNL     1     -43.561  75.102 101.430  1.00  0.00    -0.244 N 
HETATM   12  C11 UNL     1     -42.451  75.310 100.687  1.00  0.00     0.155 A 
HETATM   13  C10 UNL     1     -41.814  74.107 100.461  1.00  0.00     0.136 A 
HETATM   14  N10 UNL     1     -42.571  73.189 101.087  1.00  0.00    -0.279 N 
HETATM   15  N9  UNL     1     -43.615  73.809 101.662  1.00  0.00    -0.235 N 
ATOM     16  H10 UNL     1     -42.384  72.187 101.120  1.00  0.00     0.189 HD
ATOM     17  H9  UNL     1     -44.345  73.344 102.201  1.00  0.00     0.209 HD
BRANCH  13  18
HETATM   18  C9  UNL     1     -40.587  73.886  99.707  1.00  0.00     0.289 C 
HETATM   19  N2  UNL     1     -39.645  74.939  99.562  1.00  0.00    -0.265 N 
ATOM     20  H2  UNL     1     -39.826  75.850  99.985  1.00  0.00     0.190 HD
HETATM   21  O4  UNL     1     -40.359  72.768  99.185  1.00  0.00    -0.264 OA
BRANCH  19  22
HETATM   22  N1  UNL     1     -38.472  74.725  98.841  1.00  0.00    -0.308 N 
HETATM   23  C8  UNL     1     -37.783  75.714  98.446  1.00  0.00     0.126 C 
ATOM     24  H1  UNL     1     -38.167  73.775  98.632  1.00  0.00     0.186 HD
BRANCH  23  25
HETATM   25  C7  UNL     1     -36.553  75.470  97.689  1.00  0.00     0.074 A 
HETATM   26  C4  UNL     1     -35.441  74.716  98.049  1.00  0.00     0.108 A 
HETATM   27  C5  UNL     1     -34.574  74.791  96.991  1.00  0.00     0.182 A 
HETATM   28  O2  UNL     1     -35.112  75.526  96.067  1.00  0.00    -0.297 OA
HETATM   29  C6  UNL     1     -36.284  75.956  96.428  1.00  0.00     0.197 A 
BRANCH  26  30
HETATM   30  O1  UNL     1     -35.239  74.047  99.188  1.00  0.00    -0.335 OA
BRANCH  30  31
HETATM   31  C2  UNL     1     -35.624  72.904  99.802  1.00  0.00     0.088 C 
HETATM   32  C1  UNL     1     -34.287  72.190 100.217  1.00  0.00     0.049 C 
HETATM   33  C3  UNL     1     -36.346  71.911  98.908  1.00  0.00     0.049 C 
BRANCH  31  34
HETATM   34  C17 UNL     1     -36.358  72.976 101.105  1.00  0.00     0.180 C 
BRANCH  34  35
HETATM   35  O5  UNL     1     -36.775  74.322 101.253  1.00  0.00    -0.391 OA
ATOM     36  H5  UNL     1     -37.088  74.407 102.146  1.00  0.00     0.210 HD
ENDBRANCH  34  35
BRANCH  34  37
HETATM   37  C18 UNL     1     -37.488  72.065 101.341  1.00  0.00     0.306 C 
BRANCH  37  38
HETATM   38  N11 UNL     1     -38.515  72.533 102.246  1.00  0.00     0.091 N 
HETATM   39  C19 UNL     1     -38.029  72.327 103.623  1.00  0.00     0.274 C 
HETATM   40  C20 UNL     1     -38.707  70.979 103.682  1.00  0.00     0.060 C 
HETATM   41  C21 UNL     1     -39.540  71.552 102.557  1.00  0.00     0.274 C 
ENDBRANCH  37  38
ENDBRANCH  34  37
ENDBRANCH  31  34
ENDBRANCH  30  31
ENDBRANCH  26  30
BRANCH  29  42
HETATM   42  O3  UNL     1     -37.112  76.768  95.657  1.00  0.00    -0.340 OA
ATOM     43  H3  UNL     1     -37.699  76.460  94.976  1.00  0.00     0.220 HD
ENDBRANCH  29  42
ENDBRANCH  23  25
ENDBRANCH  19  22
ENDBRANCH  13  18
ENDBRANCH   1  11
BRANCH  10  44
HETATM   44  N8  UNL     1     -42.873  77.483 102.713  1.00  0.00    -0.383 N 
ATOM     45  H82 UNL     1     -42.205  77.460 101.941  1.00  0.00     0.157 HD
ATOM     46  H81 UNL     1     -42.530  77.708 103.646  1.00  0.00     0.157 HD
ENDBRANCH  10  44
BRANCH   7  47
HETATM   47  N6  UNL     1     -47.255  78.732 103.119  1.00  0.00    -0.234 N 
ATOM     48  H62 UNL     1     -47.211  79.180 104.035  1.00  0.00     0.174 HD
ATOM     49  H61 UNL     1     -48.032  78.962 102.500  1.00  0.00     0.174 HD
ENDBRANCH   7  47
TORSDOF 13
ENDMDL
MODEL 5
REMARK VINA RESULT: -8.403915848      1.674      2.470
REMARK  13 active torsions:
REMARK  status: ('A' for Active; 'I' for Inactive)
REMARK    1  A    between atoms: C2_2  and  O1_4 
REMARK    2  A    between atoms: C2_2  and  C17_42 
REMARK    3  A    between atoms: O1_4  and  C4_5 
REMARK    4  A    between atoms: C6_8  and  O3_9 
REMARK    5  A    between atoms: C7_11  and  C8_12 
REMARK    6  A    between atoms: N1_13  and  N2_15 
REMARK       I    between atoms: N2_15  and  C9_17 
REMARK    7  A    between atoms: C9_17  and  C10_19 
REMARK    8  A    between atoms: N3_21  and  C12_22 
REMARK    9  A    between atoms: C15_28  and  N6_29 
REMARK   10  A    between atoms: C16_34  and  N8_35 
REMARK   11  A    between atoms: C17_42  and  O5_43 
REMARK   12  A    between atoms: C17_42  and  C18_45 
REMARK   13  A    between atoms: C18_45  and  N11_46 
ROOT
HETATM    1  C12 UNL     1     -36.126  72.106  98.664  1.00  0.00     0.139 A 
HETATM    2  C13 UNL     1     -35.266  71.527  99.558  1.00  0.00     0.162 A 
HETATM    3  C14 UNL     1     -35.020  72.167 100.800  1.00  0.00     0.120 C 
HETATM    4  N4  UNL     1     -34.821  72.676 101.821  1.00  0.00    -0.190 NA
HETATM    5  N5  UNL     1     -34.672  70.364  99.243  1.00  0.00    -0.180 N 
ATOM      6  H5  UNL     1     -34.033  69.936  99.913  1.00  0.00     0.185 HD
HETATM    7  C15 UNL     1     -34.899  69.751  98.071  1.00  0.00     0.678 A 
HETATM    8  N7  UNL     1     -35.733  70.318  97.208  1.00  0.00    -0.175 N 
ATOM      9  H7  UNL     1     -35.905  69.852  96.317  1.00  0.00     0.186 HD
HETATM   10  C16 UNL     1     -36.361  71.479  97.459  1.00  0.00     0.146 A 
ENDROOT
BRANCH   1  11
HETATM   11  N3  UNL     1     -36.749  73.339  99.011  1.00  0.00    -0.244 N 
HETATM   12  C11 UNL     1     -37.953  73.520  99.598  1.00  0.00     0.155 A 
HETATM   13  C10 UNL     1     -38.189  74.869  99.762  1.00  0.00     0.136 A 
HETATM   14  N10 UNL     1     -37.099  75.477  99.261  1.00  0.00    -0.279 N 
HETATM   15  N9  UNL     1     -36.248  74.539  98.816  1.00  0.00    -0.235 N 
ATOM     16  H10 UNL     1     -36.945  76.484  99.225  1.00  0.00     0.189 HD
ATOM     17  H9  UNL     1     -35.343  74.729  98.387  1.00  0.00     0.209 HD
BRANCH  13  18
HETATM   18  C9  UNL     1     -39.366  75.494 100.352  1.00  0.00     0.289 C 
HETATM   19  N2  UNL     1     -40.661  75.160  99.875  1.00  0.00    -0.265 N 
ATOM     20  H2  UNL     1     -40.769  74.483  99.119  1.00  0.00     0.190 HD
HETATM   21  O4  UNL     1     -39.239  76.328 101.282  1.00  0.00    -0.264 OA
BRANCH  19  22
HETATM   22  N1  UNL     1     -41.785  75.759 100.441  1.00  0.00    -0.308 N 
HETATM   23  C8  UNL     1     -42.812  75.061 100.698  1.00  0.00     0.126 C 
ATOM     24  H1  UNL     1     -41.781  76.757 100.649  1.00  0.00     0.186 HD
BRANCH  23  25
HETATM   25  C7  UNL     1     -43.984  75.708 101.294  1.00  0.00     0.074 A 
HETATM   26  C4  UNL     1     -45.332  75.462 101.054  1.00  0.00     0.108 A 
HETATM   27  C5  UNL     1     -46.022  76.317 101.872  1.00  0.00     0.182 A 
HETATM   28  O2  UNL     1     -45.169  77.021 102.550  1.00  0.00    -0.297 OA
HETATM   29  C6  UNL     1     -43.946  76.702 102.246  1.00  0.00     0.197 A 
BRANCH  26  30
HETATM   30  O1  UNL     1     -45.866  74.578 100.206  1.00  0.00    -0.335 OA
BRANCH  30  31
HETATM   31  C2  UNL     1     -46.316  73.302 100.185  1.00  0.00     0.088 C 
HETATM   32  C1  UNL     1     -47.141  73.179  98.853  1.00  0.00     0.049 C 
HETATM   33  C3  UNL     1     -47.295  72.952 101.293  1.00  0.00     0.049 C 
BRANCH  31  34
HETATM   34  C17 UNL     1     -45.339  72.175 100.054  1.00  0.00     0.180 C 
BRANCH  34  35
HETATM   35  O5  UNL     1     -44.512  72.493  98.948  1.00  0.00    -0.391 OA
ATOM     36  H5  UNL     1     -44.756  73.370  98.678  1.00  0.00     0.210 HD
ENDBRANCH  34  35
BRANCH  34  37
HETATM   37  C18 UNL     1     -44.517  71.802 101.215  1.00  0.00     0.306 C 
BRANCH  37  38
HETATM   38  N11 UNL     1     -43.286  71.095 100.932  1.00  0.00     0.091 N 
HETATM   39  C19 UNL     1     -43.288  69.853 101.726  1.00  0.00     0.274 C 
HETATM   40  C20 UNL     1     -42.540  70.541 102.842  1.00  0.00     0.060 C 
HETATM   41  C21 UNL     1     -42.154  71.506 101.743  1.00  0.00     0.274 C 
ENDBRANCH  37  38
ENDBRANCH  34  37
ENDBRANCH  31  34
ENDBRANCH  30  31
ENDBRANCH  26  30
BRANCH  29  42
HETATM   42  O3  UNL     1     -42.807  77.279 102.800  1.00  0.00    -0.340 OA
ATOM     43  H3  UNL     1     -42.470  78.140 102.584  1.00  0.00     0.220 HD
ENDBRANCH  29  42
ENDBRANCH  23  25
ENDBRANCH  19  22
ENDBRANCH  13  18
ENDBRANCH   1  11
BRANCH  10  44
HETATM   44  N8  UNL     1     -37.154  71.989  96.603  1.00  0.00    -0.383 N 
ATOM     45  H82 UNL     1     -37.762  72.770  96.854  1.00  0.00     0.157 HD
ATOM     46  H81 UNL     1     -37.197  71.627  95.650  1.00  0.00     0.157 HD
ENDBRANCH  10  44
BRANCH   7  47
HETATM   47  N6  UNL     1     -34.299  68.624  97.809  1.00  0.00    -0.234 N 
ATOM     48  H62 UNL     1     -34.435  67.794  98.388  1.00  0.00     0.174 HD
ATOM     49  H61 UNL     1     -33.675  68.561  97.005  1.00  0.00     0.174 HD
ENDBRANCH   7  47
TORSDOF 13
ENDMDL
