MODEL 1
REMARK VINA RESULT: -4.515692453      0.000      0.000
REMARK  2 active torsions:
REMARK  status: ('A' for Active; 'I' for Inactive)
REMARK    1  A    between atoms: S1_2  and  C2_3 
REMARK    2  A    between atoms: N2_5  and  C3_7 
ROOT
HETATM    1  C2  UNL     1      71.937  46.824  51.117  1.00  0.00     0.155 C 
HETATM    2  N1  UNL     1      72.247  47.834  50.167  1.00  0.00    -0.075 NA
HETATM    3  N2  UNL     1      70.956  47.029  51.929  1.00  0.00    -0.330 N 
ATOM      4  H2  UNL     1      70.431  47.901  51.872  1.00  0.00     0.168 HD
ENDROOT
BRANCH   3   5
HETATM    5  C3  UNL     1      70.597  46.060  52.901  1.00  0.00     0.072 C 
HETATM    6  C4  UNL     1      71.063  46.109  54.304  1.00  0.00     0.088 C 
HETATM    7  N3  UNL     1      69.834  45.095  52.555  1.00  0.00    -0.389 N 
ATOM      8  H32 UNL     1      69.513  45.061  51.588  1.00  0.00     0.157 HD
ATOM      9  H31 UNL     1      69.576  44.399  53.254  1.00  0.00     0.157 HD
ENDBRANCH   3   5
BRANCH   1  10
HETATM   10  S1  UNL     1      72.847  45.298  51.224  1.00  0.00    -0.102 SA
HETATM   11  C1  UNL     1      74.281  45.413  52.282  1.00  0.00     0.098 C 
ENDBRANCH   1  10
TORSDOF 2
ENDMDL
MODEL 2
REMARK VINA RESULT: -4.377769202      2.183      2.406
REMARK  2 active torsions:
REMARK  status: ('A' for Active; 'I' for Inactive)
REMARK    1  A    between atoms: S1_2  and  C2_3 
REMARK    2  A    between atoms: N2_5  and  C3_7 
ROOT
HETATM    1  C2  UNL     1      72.783  48.416  50.407  1.00  0.00     0.155 C 
HETATM    2  N1  UNL     1      72.780  49.791  50.044  1.00  0.00    -0.075 NA
HETATM    3  N2  UNL     1      71.785  47.961  51.083  1.00  0.00    -0.330 N 
ATOM      4  H2  UNL     1      71.024  48.589  51.340  1.00  0.00     0.168 HD
ENDROOT
BRANCH   3   5
HETATM    5  C3  UNL     1      71.729  46.599  51.477  1.00  0.00     0.072 C 
HETATM    6  C4  UNL     1      72.237  46.110  52.777  1.00  0.00     0.088 C 
HETATM    7  N3  UNL     1      71.214  45.747  50.674  1.00  0.00    -0.389 N 
ATOM      8  H32 UNL     1      70.864  46.084  49.778  1.00  0.00     0.157 HD
ATOM      9  H31 UNL     1      71.174  44.769  50.957  1.00  0.00     0.157 HD
ENDBRANCH   3   5
BRANCH   1  10
HETATM   10  S1  UNL     1      74.107  47.312  49.962  1.00  0.00    -0.102 SA
HETATM   11  C1  UNL     1      75.675  48.144  49.767  1.00  0.00     0.098 C 
ENDBRANCH   1  10
TORSDOF 2
ENDMDL
MODEL 3
REMARK VINA RESULT: -4.364154465      1.788      1.988
REMARK  2 active torsions:
REMARK  status: ('A' for Active; 'I' for Inactive)
REMARK    1  A    between atoms: S1_2  and  C2_3 
REMARK    2  A    between atoms: N2_5  and  C3_7 
ROOT
HETATM    1  C2  UNL     1      71.441  45.488  51.837  1.00  0.00     0.155 C 
HETATM    2  N1  UNL     1      71.245  45.853  50.477  1.00  0.00    -0.075 NA
HETATM    3  N2  UNL     1      70.406  45.184  52.544  1.00  0.00    -0.330 N 
ATOM      4  H2  UNL     1      69.480  45.212  52.116  1.00  0.00     0.168 HD
ENDROOT
BRANCH   3   5
HETATM    5  C3  UNL     1      70.534  44.813  53.907  1.00  0.00     0.072 C 
HETATM    6  C4  UNL     1      70.785  43.423  54.347  1.00  0.00     0.088 C 
HETATM    7  N3  UNL     1      70.428  45.717  54.804  1.00  0.00    -0.389 N 
ATOM      8  H32 UNL     1      70.255  46.675  54.500  1.00  0.00     0.157 HD
ATOM      9  H31 UNL     1      70.519  45.450  55.783  1.00  0.00     0.157 HD
ENDBRANCH   3   5
BRANCH   1  10
HETATM   10  S1  UNL     1      73.052  45.435  52.592  1.00  0.00    -0.102 SA
HETATM   11  C1  UNL     1      73.931  43.917  52.257  1.00  0.00     0.098 C 
ENDBRANCH   1  10
TORSDOF 2
ENDMDL
MODEL 4
REMARK VINA RESULT: -4.278018330      4.605      5.378
REMARK  2 active torsions:
REMARK  status: ('A' for Active; 'I' for Inactive)
REMARK    1  A    between atoms: S1_2  and  C2_3 
REMARK    2  A    between atoms: N2_5  and  C3_7 
ROOT
HETATM    1  C2  UNL     1      75.461  42.577  49.501  1.00  0.00     0.155 C 
HETATM    2  N1  UNL     1      76.056  42.399  48.223  1.00  0.00    -0.075 NA
HETATM    3  N2  UNL     1      74.887  43.703  49.757  1.00  0.00    -0.330 N 
ATOM      4  H2  UNL     1      74.873  44.433  49.044  1.00  0.00     0.168 HD
ENDROOT
BRANCH   3   5
HETATM    5  C3  UNL     1      74.276  43.944  51.014  1.00  0.00     0.072 C 
HETATM    6  C4  UNL     1      74.971  44.604  52.140  1.00  0.00     0.088 C 
HETATM    7  N3  UNL     1      73.064  43.575  51.190  1.00  0.00    -0.389 N 
ATOM      8  H32 UNL     1      72.585  43.120  50.414  1.00  0.00     0.157 HD
ATOM      9  H31 UNL     1      72.625  43.748  52.094  1.00  0.00     0.157 HD
ENDBRANCH   3   5
BRANCH   1  10
HETATM   10  S1  UNL     1      75.480  41.310  50.751  1.00  0.00    -0.102 SA
HETATM   11  C1  UNL     1      75.024  39.702  50.121  1.00  0.00     0.098 C 
ENDBRANCH   1  10
TORSDOF 2
ENDMDL
MODEL 5
REMARK VINA RESULT: -4.195530810      2.484      3.290
REMARK  2 active torsions:
REMARK  status: ('A' for Active; 'I' for Inactive)
REMARK    1  A    between atoms: S1_2  and  C2_3 
REMARK    2  A    between atoms: N2_5  and  C3_7 
ROOT
HETATM    1  C2  UNL     1      74.497  45.067  50.714  1.00  0.00     0.155 C 
HETATM    2  N1  UNL     1      75.583  44.363  50.126  1.00  0.00    -0.075 NA
HETATM    3  N2  UNL     1      73.560  45.501  49.943  1.00  0.00    -0.330 N 
ATOM      4  H2  UNL     1      73.618  45.331  48.938  1.00  0.00     0.168 HD
ENDROOT
BRANCH   3   5
HETATM    5  C3  UNL     1      72.450  46.211  50.468  1.00  0.00     0.072 C 
HETATM    6  C4  UNL     1      72.446  47.677  50.663  1.00  0.00     0.088 C 
HETATM    7  N3  UNL     1      71.399  45.559  50.790  1.00  0.00    -0.389 N 
ATOM      8  H32 UNL     1      71.402  44.548  50.656  1.00  0.00     0.157 HD
ATOM      9  H31 UNL     1      70.602  46.069  51.168  1.00  0.00     0.157 HD
ENDBRANCH   3   5
BRANCH   1  10
HETATM   10  S1  UNL     1      74.388  45.366  52.466  1.00  0.00    -0.102 SA
HETATM   11  C1  UNL     1      74.787  43.928  53.446  1.00  0.00     0.098 C 
ENDBRANCH   1  10
TORSDOF 2
ENDMDL
