MODEL 1
REMARK VINA RESULT: -8.613298625      0.000      0.000
REMARK  12 active torsions:
REMARK  status: ('A' for Active; 'I' for Inactive)
REMARK    1  A    between atoms: N3_5  and  O1_6 
REMARK    2  A    between atoms: C3_9  and  C4_10 
REMARK    3  A    between atoms: C4_10  and  N4_11 
REMARK    4  A    between atoms: N4_11  and  N5_12 
REMARK    5  A    between atoms: N5_12  and  C5_14 
REMARK    6  A    between atoms: C6_15  and  O2_16 
REMARK    7  A    between atoms: C8_19  and  O3_20 
REMARK    8  A    between atoms: C9_22  and  C10_23 
REMARK    9  A    between atoms: C10_23  and  S1_24 
REMARK   10  A    between atoms: S1_24  and  N6_25 
REMARK   11  A    between atoms: C11_30  and  O6_31 
REMARK   12  A    between atoms: N7_37  and  O7_38 
ROOT
HETATM    1  N5  UNL     1      85.665  36.220  60.282  1.00  0.00    -0.299 N 
ATOM      2  H5  UNL     1      84.819  36.531  60.758  1.00  0.00     0.182 HD
ENDROOT
BRANCH   1   3
HETATM    3  N4  UNL     1      86.707  36.021  61.130  1.00  0.00    -0.136 NA
BRANCH   3   4
HETATM    4  C4  UNL     1      87.861  36.897  60.820  1.00  0.00     0.175 C 
BRANCH   4   5
HETATM    5  C3  UNL     1      88.841  36.805  61.939  1.00  0.00    -0.009 A 
HETATM    6  C2  UNL     1      89.921  35.939  61.854  1.00  0.00     0.118 A 
HETATM    7  N3  UNL     1      90.167  35.241  60.765  1.00  0.00    -0.158 N 
HETATM    8  C15 UNL     1      90.782  35.754  62.912  1.00  0.00     0.097 A 
HETATM    9  N2  UNL     1      91.195  34.416  60.689  1.00  0.00    -0.245 N 
HETATM   10  C1  UNL     1      92.030  34.234  61.711  1.00  0.00     0.236 A 
ATOM     11  H2  UNL     1      91.354  33.903  59.822  1.00  0.00     0.192 HD
HETATM   12  N1  UNL     1      93.122  33.306  61.618  1.00  0.00    -0.060 NA
HETATM   13  N7  UNL     1      91.836  34.916  62.881  1.00  0.00    -0.191 N 
HETATM   14  C14 UNL     1      90.593  36.405  64.108  1.00  0.00     0.034 A 
HETATM   15  C13 UNL     1      89.549  37.258  64.226  1.00  0.00     0.003 A 
HETATM   16  C12 UNL     1      88.699  37.451  63.146  1.00  0.00     0.011 A 
BRANCH   7  17
HETATM   17  O1  UNL     1      89.413  35.349  59.650  1.00  0.00    -0.267 OA
ATOM     18  H1  UNL     1      88.506  35.599  59.784  1.00  0.00     0.247 HD
ENDBRANCH   7  17
BRANCH  13  19
HETATM   19  O7  UNL     1      92.700  34.684  63.907  1.00  0.00    -0.280 OA
ATOM     20  H7  UNL     1      92.337  34.441  64.750  1.00  0.00     0.245 HD
ENDBRANCH  13  19
ENDBRANCH   4   5
ENDBRANCH   3   4
ENDBRANCH   1   3
BRANCH   1  21
HETATM   21  C5  UNL     1      85.498  36.094  58.899  1.00  0.00     0.112 A 
HETATM   22  C6  UNL     1      84.894  37.038  58.152  1.00  0.00     0.098 A 
HETATM   23  C7  UNL     1      84.798  36.889  56.783  1.00  0.00     0.076 A 
HETATM   24  C8  UNL     1      85.281  35.846  56.140  1.00  0.00     0.082 A 
HETATM   25  C9  UNL     1      85.949  34.774  56.912  1.00  0.00     0.045 A 
HETATM   26  C11 UNL     1      86.028  34.942  58.245  1.00  0.00     0.110 A 
BRANCH  22  27
HETATM   27  O2  UNL     1      84.330  38.228  58.687  1.00  0.00    -0.358 OA
ATOM     28  H2  UNL     1      84.626  39.101  58.459  1.00  0.00     0.217 HD
ENDBRANCH  22  27
BRANCH  24  29
HETATM   29  O3  UNL     1      85.261  35.614  54.787  1.00  0.00    -0.360 OA
ATOM     30  H3  UNL     1      84.573  35.838  54.171  1.00  0.00     0.217 HD
ENDBRANCH  24  29
BRANCH  25  31
HETATM   31  C10 UNL     1      86.249  33.650  56.015  1.00  0.00     0.148 C 
BRANCH  31  32
HETATM   32  S1  UNL     1      85.144  32.440  55.506  1.00  0.00     0.247 S 
HETATM   33  O4  UNL     1      85.404  31.195  56.543  1.00  0.00    -0.202 OA
HETATM   34  O5  UNL     1      85.704  31.759  54.212  1.00  0.00    -0.202 OA
BRANCH  32  35
HETATM   35  N6  UNL     1      83.489  32.518  55.407  1.00  0.00    -0.325 N 
ATOM     36  H62 UNL     1      83.112  32.314  54.481  1.00  0.00     0.169 HD
ATOM     37  H61 UNL     1      82.815  32.739  56.140  1.00  0.00     0.169 HD
ENDBRANCH  32  35
ENDBRANCH  31  32
ENDBRANCH  25  31
BRANCH  26  38
HETATM   38  O6  UNL     1      86.618  33.990  59.022  1.00  0.00    -0.357 OA
ATOM     39  H6  UNL     1      87.545  33.831  58.896  1.00  0.00     0.217 HD
ENDBRANCH  26  38
ENDBRANCH   1  21
TORSDOF 12
ENDMDL
MODEL 2
REMARK VINA RESULT: -7.864799066      1.878      2.128
REMARK  12 active torsions:
REMARK  status: ('A' for Active; 'I' for Inactive)
REMARK    1  A    between atoms: N3_5  and  O1_6 
REMARK    2  A    between atoms: C3_9  and  C4_10 
REMARK    3  A    between atoms: C4_10  and  N4_11 
REMARK    4  A    between atoms: N4_11  and  N5_12 
REMARK    5  A    between atoms: N5_12  and  C5_14 
REMARK    6  A    between atoms: C6_15  and  O2_16 
REMARK    7  A    between atoms: C8_19  and  O3_20 
REMARK    8  A    between atoms: C9_22  and  C10_23 
REMARK    9  A    between atoms: C10_23  and  S1_24 
REMARK   10  A    between atoms: S1_24  and  N6_25 
REMARK   11  A    between atoms: C11_30  and  O6_31 
REMARK   12  A    between atoms: N7_37  and  O7_38 
ROOT
HETATM    1  N5  UNL     1      86.865  36.908  58.615  1.00  0.00    -0.299 N 
ATOM      2  H5  UNL     1      86.158  37.220  59.282  1.00  0.00     0.182 HD
ENDROOT
BRANCH   1   3
HETATM    3  N4  UNL     1      88.067  36.661  59.195  1.00  0.00    -0.136 NA
BRANCH   3   4
HETATM    4  C4  UNL     1      88.027  35.483  60.093  1.00  0.00     0.175 C 
BRANCH   4   5
HETATM    5  C3  UNL     1      88.792  35.804  61.331  1.00  0.00    -0.009 A 
HETATM    6  C2  UNL     1      90.050  35.260  61.538  1.00  0.00     0.118 A 
HETATM    7  N3  UNL     1      90.646  34.520  60.625  1.00  0.00    -0.158 N 
HETATM    8  C15 UNL     1      90.735  35.451  62.716  1.00  0.00     0.097 A 
HETATM    9  N2  UNL     1      91.842  34.002  60.826  1.00  0.00    -0.245 N 
HETATM   10  C1  UNL     1      92.507  34.186  61.966  1.00  0.00     0.236 A 
ATOM     11  H2  UNL     1      92.271  33.444  60.088  1.00  0.00     0.192 HD
HETATM   12  N1  UNL     1      93.794  33.583  62.177  1.00  0.00    -0.060 NA
HETATM   13  N7  UNL     1      91.952  34.933  62.968  1.00  0.00    -0.191 N 
HETATM   14  C14 UNL     1      90.187  36.175  63.750  1.00  0.00     0.034 A 
HETATM   15  C13 UNL     1      88.961  36.722  63.582  1.00  0.00     0.003 A 
HETATM   16  C12 UNL     1      88.289  36.538  62.382  1.00  0.00     0.011 A 
BRANCH   7  17
HETATM   17  O1  UNL     1      90.092  34.277  59.418  1.00  0.00    -0.267 OA
ATOM     18  H1  UNL     1      89.816  35.041  58.925  1.00  0.00     0.247 HD
ENDBRANCH   7  17
BRANCH  13  19
HETATM   19  O7  UNL     1      92.657  35.078  64.124  1.00  0.00    -0.280 OA
ATOM     20  H7  UNL     1      92.587  35.903  64.589  1.00  0.00     0.245 HD
ENDBRANCH  13  19
ENDBRANCH   4   5
ENDBRANCH   3   4
ENDBRANCH   1   3
BRANCH   1  21
HETATM   21  C5  UNL     1      86.381  36.831  57.305  1.00  0.00     0.112 A 
HETATM   22  C6  UNL     1      87.054  37.333  56.252  1.00  0.00     0.098 A 
HETATM   23  C7  UNL     1      86.558  37.187  54.972  1.00  0.00     0.076 A 
HETATM   24  C8  UNL     1      85.429  36.562  54.708  1.00  0.00     0.082 A 
HETATM   25  C9  UNL     1      84.644  35.996  55.828  1.00  0.00     0.045 A 
HETATM   26  C11 UNL     1      85.148  36.153  57.067  1.00  0.00     0.110 A 
BRANCH  22  27
HETATM   27  O2  UNL     1      88.291  38.025  56.362  1.00  0.00    -0.358 OA
ATOM     28  H2  UNL     1      88.543  38.747  55.797  1.00  0.00     0.217 HD
ENDBRANCH  22  27
BRANCH  24  29
HETATM   29  O3  UNL     1      84.863  36.340  53.478  1.00  0.00    -0.360 OA
ATOM     30  H3  UNL     1      84.831  35.524  52.993  1.00  0.00     0.217 HD
ENDBRANCH  24  29
BRANCH  25  31
HETATM   31  C10 UNL     1      83.358  35.504  55.316  1.00  0.00     0.148 C 
BRANCH  31  32
HETATM   32  S1  UNL     1      82.709  33.933  55.554  1.00  0.00     0.247 S 
HETATM   33  O4  UNL     1      82.026  34.001  57.043  1.00  0.00    -0.202 OA
HETATM   34  O5  UNL     1      83.880  32.953  55.901  1.00  0.00    -0.202 OA
BRANCH  32  35
HETATM   35  N6  UNL     1      81.576  33.127  54.648  1.00  0.00    -0.325 N 
ATOM     36  H62 UNL     1      80.956  33.734  54.110  1.00  0.00     0.169 HD
ATOM     37  H61 UNL     1      81.422  32.122  54.563  1.00  0.00     0.169 HD
ENDBRANCH  32  35
ENDBRANCH  31  32
ENDBRANCH  25  31
BRANCH  26  38
HETATM   38  O6  UNL     1      84.473  35.670  58.148  1.00  0.00    -0.357 OA
ATOM     39  H6  UNL     1      83.717  36.159  58.449  1.00  0.00     0.217 HD
ENDBRANCH  26  38
ENDBRANCH   1  21
TORSDOF 12
ENDMDL
MODEL 3
REMARK VINA RESULT: -7.797631485      2.003      2.833
REMARK  12 active torsions:
REMARK  status: ('A' for Active; 'I' for Inactive)
REMARK    1  A    between atoms: N3_5  and  O1_6 
REMARK    2  A    between atoms: C3_9  and  C4_10 
REMARK    3  A    between atoms: C4_10  and  N4_11 
REMARK    4  A    between atoms: N4_11  and  N5_12 
REMARK    5  A    between atoms: N5_12  and  C5_14 
REMARK    6  A    between atoms: C6_15  and  O2_16 
REMARK    7  A    between atoms: C8_19  and  O3_20 
REMARK    8  A    between atoms: C9_22  and  C10_23 
REMARK    9  A    between atoms: C10_23  and  S1_24 
REMARK   10  A    between atoms: S1_24  and  N6_25 
REMARK   11  A    between atoms: C11_30  and  O6_31 
REMARK   12  A    between atoms: N7_37  and  O7_38 
ROOT
HETATM    1  N5  UNL     1      86.551  34.647  59.942  1.00  0.00    -0.299 N 
ATOM      2  H5  UNL     1      86.082  34.410  60.816  1.00  0.00     0.182 HD
ENDROOT
BRANCH   1   3
HETATM    3  N4  UNL     1      87.843  34.232  59.906  1.00  0.00    -0.136 NA
BRANCH   3   4
HETATM    4  C4  UNL     1      88.799  35.364  59.909  1.00  0.00     0.175 C 
BRANCH   4   5
HETATM    5  C3  UNL     1      89.960  35.003  60.771  1.00  0.00    -0.009 A 
HETATM    6  C2  UNL     1      90.044  35.482  62.069  1.00  0.00     0.118 A 
HETATM    7  N3  UNL     1      89.076  36.191  62.612  1.00  0.00    -0.158 N 
HETATM    8  C15 UNL     1      91.153  35.254  62.853  1.00  0.00     0.097 A 
HETATM    9  N2  UNL     1      89.161  36.648  63.847  1.00  0.00    -0.245 N 
HETATM   10  C1  UNL     1      90.232  36.429  64.608  1.00  0.00     0.236 A 
ATOM     11  H2  UNL     1      88.383  37.184  64.231  1.00  0.00     0.192 HD
HETATM   12  N1  UNL     1      90.317  36.964  65.938  1.00  0.00    -0.060 NA
HETATM   13  N7  UNL     1      91.286  35.709  64.113  1.00  0.00    -0.191 N 
HETATM   14  C14 UNL     1      92.236  34.558  62.370  1.00  0.00     0.034 A 
HETATM   15  C13 UNL     1      92.188  34.075  61.107  1.00  0.00     0.003 A 
HETATM   16  C12 UNL     1      91.057  34.295  60.334  1.00  0.00     0.011 A 
BRANCH   7  17
HETATM   17  O1  UNL     1      87.926  36.464  61.959  1.00  0.00    -0.267 OA
ATOM     18  H1  UNL     1      87.151  36.017  62.278  1.00  0.00     0.247 HD
ENDBRANCH   7  17
BRANCH  13  19
HETATM   19  O7  UNL     1      92.369  35.527  64.916  1.00  0.00    -0.280 OA
ATOM     20  H7  UNL     1      92.977  36.250  65.017  1.00  0.00     0.245 HD
ENDBRANCH  13  19
ENDBRANCH   4   5
ENDBRANCH   3   4
ENDBRANCH   1   3
BRANCH   1  21
HETATM   21  C5  UNL     1      85.722  35.328  59.045  1.00  0.00     0.112 A 
HETATM   22  C6  UNL     1      85.193  36.536  59.319  1.00  0.00     0.098 A 
HETATM   23  C7  UNL     1      84.422  37.191  58.380  1.00  0.00     0.076 A 
HETATM   24  C8  UNL     1      84.164  36.690  57.190  1.00  0.00     0.082 A 
HETATM   25  C9  UNL     1      84.714  35.361  56.837  1.00  0.00     0.045 A 
HETATM   26  C11 UNL     1      85.461  34.743  57.770  1.00  0.00     0.110 A 
BRANCH  22  27
HETATM   27  O2  UNL     1      85.383  37.220  60.551  1.00  0.00    -0.358 OA
ATOM     28  H2  UNL     1      84.726  37.264  61.236  1.00  0.00     0.217 HD
ENDBRANCH  22  27
BRANCH  24  29
HETATM   29  O3  UNL     1      83.434  37.265  56.180  1.00  0.00    -0.360 OA
ATOM     30  H3  UNL     1      83.699  37.972  55.604  1.00  0.00     0.217 HD
ENDBRANCH  24  29
BRANCH  25  31
HETATM   31  C10 UNL     1      84.161  34.939  55.542  1.00  0.00     0.148 C 
BRANCH  31  32
HETATM   32  S1  UNL     1      83.082  33.630  55.283  1.00  0.00     0.247 S 
HETATM   33  O4  UNL     1      82.044  33.707  56.550  1.00  0.00    -0.202 OA
HETATM   34  O5  UNL     1      83.804  32.298  55.680  1.00  0.00    -0.202 OA
BRANCH  32  35
HETATM   35  N6  UNL     1      82.086  33.344  53.986  1.00  0.00    -0.325 N 
ATOM     36  H62 UNL     1      82.435  33.706  53.099  1.00  0.00     0.169 HD
ATOM     37  H61 UNL     1      81.188  32.862  53.965  1.00  0.00     0.169 HD
ENDBRANCH  32  35
ENDBRANCH  31  32
ENDBRANCH  25  31
BRANCH  26  38
HETATM   38  O6  UNL     1      85.990  33.511  57.520  1.00  0.00    -0.357 OA
ATOM     39  H6  UNL     1      86.618  33.437  56.812  1.00  0.00     0.217 HD
ENDBRANCH  26  38
ENDBRANCH   1  21
TORSDOF 12
ENDMDL
MODEL 4
REMARK VINA RESULT: -7.729303909      1.552      1.650
REMARK  12 active torsions:
REMARK  status: ('A' for Active; 'I' for Inactive)
REMARK    1  A    between atoms: N3_5  and  O1_6 
REMARK    2  A    between atoms: C3_9  and  C4_10 
REMARK    3  A    between atoms: C4_10  and  N4_11 
REMARK    4  A    between atoms: N4_11  and  N5_12 
REMARK    5  A    between atoms: N5_12  and  C5_14 
REMARK    6  A    between atoms: C6_15  and  O2_16 
REMARK    7  A    between atoms: C8_19  and  O3_20 
REMARK    8  A    between atoms: C9_22  and  C10_23 
REMARK    9  A    between atoms: C10_23  and  S1_24 
REMARK   10  A    between atoms: S1_24  and  N6_25 
REMARK   11  A    between atoms: C11_30  and  O6_31 
REMARK   12  A    between atoms: N7_37  and  O7_38 
ROOT
HETATM    1  N5  UNL     1      88.162  37.525  58.472  1.00  0.00    -0.299 N 
ATOM      2  H5  UNL     1      89.022  37.227  58.012  1.00  0.00     0.182 HD
ENDROOT
BRANCH   1   3
HETATM    3  N4  UNL     1      88.335  37.806  59.789  1.00  0.00    -0.136 NA
BRANCH   3   4
HETATM    4  C4  UNL     1      87.923  36.684  60.663  1.00  0.00     0.175 C 
BRANCH   4   5
HETATM    5  C3  UNL     1      88.853  36.621  61.825  1.00  0.00    -0.009 A 
HETATM    6  C2  UNL     1      89.963  35.790  61.789  1.00  0.00     0.118 A 
HETATM    7  N3  UNL     1      90.281  35.102  60.710  1.00  0.00    -0.158 N 
HETATM    8  C15 UNL     1      90.781  35.629  62.883  1.00  0.00     0.097 A 
HETATM    9  N2  UNL     1      91.336  34.311  60.680  1.00  0.00    -0.245 N 
HETATM   10  C1  UNL     1      92.130  34.153  61.738  1.00  0.00     0.236 A 
ATOM     11  H2  UNL     1      91.551  33.805  59.821  1.00  0.00     0.192 HD
HETATM   12  N1  UNL     1      93.254  33.261  61.693  1.00  0.00    -0.060 NA
HETATM   13  N7  UNL     1      91.862  34.825  62.900  1.00  0.00    -0.191 N 
HETATM   14  C14 UNL     1      90.518  36.271  64.071  1.00  0.00     0.034 A 
HETATM   15  C13 UNL     1      89.443  37.090  64.142  1.00  0.00     0.003 A 
HETATM   16  C12 UNL     1      88.637  37.259  63.026  1.00  0.00     0.011 A 
BRANCH   7  17
HETATM   17  O1  UNL     1      89.575  35.190  59.563  1.00  0.00    -0.267 OA
ATOM     18  H1  UNL     1      89.366  34.365  59.140  1.00  0.00     0.247 HD
ENDBRANCH   7  17
BRANCH  13  19
HETATM   19  O7  UNL     1      92.686  34.619  63.963  1.00  0.00    -0.280 OA
ATOM     20  H7  UNL     1      92.580  35.176  64.725  1.00  0.00     0.245 HD
ENDBRANCH  13  19
ENDBRANCH   4   5
ENDBRANCH   3   4
ENDBRANCH   1   3
BRANCH   1  21
HETATM   21  C5  UNL     1      87.063  37.554  57.607  1.00  0.00     0.112 A 
HETATM   22  C6  UNL     1      86.307  38.654  57.430  1.00  0.00     0.098 A 
HETATM   23  C7  UNL     1      85.263  38.646  56.526  1.00  0.00     0.076 A 
HETATM   24  C8  UNL     1      84.953  37.593  55.799  1.00  0.00     0.082 A 
HETATM   25  C9  UNL     1      85.747  36.353  55.958  1.00  0.00     0.045 A 
HETATM   26  C11 UNL     1      86.757  36.386  56.846  1.00  0.00     0.110 A 
BRANCH  22  27
HETATM   27  O2  UNL     1      86.514  39.875  58.127  1.00  0.00    -0.358 OA
ATOM     28  H2  UNL     1      85.862  40.563  58.191  1.00  0.00     0.217 HD
ENDBRANCH  22  27
BRANCH  24  29
HETATM   29  O3  UNL     1      83.958  37.488  54.860  1.00  0.00    -0.360 OA
ATOM     30  H3  UNL     1      84.017  37.674  53.931  1.00  0.00     0.217 HD
ENDBRANCH  24  29
BRANCH  25  31
HETATM   31  C10 UNL     1      85.118  35.276  55.181  1.00  0.00     0.148 C 
BRANCH  31  32
HETATM   32  S1  UNL     1      84.935  33.644  55.680  1.00  0.00     0.247 S 
HETATM   33  O4  UNL     1      84.900  33.726  57.318  1.00  0.00    -0.202 OA
HETATM   34  O5  UNL     1      86.314  32.916  55.533  1.00  0.00    -0.202 OA
BRANCH  32  35
HETATM   35  N6  UNL     1      83.715  32.577  55.323  1.00  0.00    -0.325 N 
ATOM     36  H62 UNL     1      83.939  31.913  54.582  1.00  0.00     0.169 HD
ATOM     37  H61 UNL     1      82.788  32.504  55.742  1.00  0.00     0.169 HD
ENDBRANCH  32  35
ENDBRANCH  31  32
ENDBRANCH  25  31
BRANCH  26  38
HETATM   38  O6  UNL     1      87.523  35.277  57.055  1.00  0.00    -0.357 OA
ATOM     39  H6  UNL     1      87.757  34.755  56.298  1.00  0.00     0.217 HD
ENDBRANCH  26  38
ENDBRANCH   1  21
TORSDOF 12
ENDMDL
MODEL 5
REMARK VINA RESULT: -7.668770866      2.224      2.916
REMARK  12 active torsions:
REMARK  status: ('A' for Active; 'I' for Inactive)
REMARK    1  A    between atoms: N3_5  and  O1_6 
REMARK    2  A    between atoms: C3_9  and  C4_10 
REMARK    3  A    between atoms: C4_10  and  N4_11 
REMARK    4  A    between atoms: N4_11  and  N5_12 
REMARK    5  A    between atoms: N5_12  and  C5_14 
REMARK    6  A    between atoms: C6_15  and  O2_16 
REMARK    7  A    between atoms: C8_19  and  O3_20 
REMARK    8  A    between atoms: C9_22  and  C10_23 
REMARK    9  A    between atoms: C10_23  and  S1_24 
REMARK   10  A    between atoms: S1_24  and  N6_25 
REMARK   11  A    between atoms: C11_30  and  O6_31 
REMARK   12  A    between atoms: N7_37  and  O7_38 
ROOT
HETATM    1  N5  UNL     1      86.561  36.553  57.442  1.00  0.00    -0.299 N 
ATOM      2  H5  UNL     1      86.275  37.436  57.020  1.00  0.00     0.182 HD
ENDROOT
BRANCH   1   3
HETATM    3  N4  UNL     1      87.455  36.714  58.452  1.00  0.00    -0.136 NA
BRANCH   3   4
HETATM    4  C4  UNL     1      87.152  35.850  59.616  1.00  0.00     0.175 C 
BRANCH   4   5
HETATM    5  C3  UNL     1      88.045  36.240  60.743  1.00  0.00    -0.009 A 
HETATM    6  C2  UNL     1      89.260  35.597  60.929  1.00  0.00     0.118 A 
HETATM    7  N3  UNL     1      89.703  34.692  60.080  1.00  0.00    -0.158 N 
HETATM    8  C15 UNL     1      90.057  35.861  62.019  1.00  0.00     0.097 A 
HETATM    9  N2  UNL     1      90.858  34.081  60.262  1.00  0.00    -0.245 N 
HETATM   10  C1  UNL     1      91.632  34.334  61.316  1.00  0.00     0.236 A 
ATOM     11  H2  UNL     1      91.168  33.394  59.574  1.00  0.00     0.192 HD
HETATM   12  N1  UNL     1      92.870  33.632  61.511  1.00  0.00    -0.060 NA
HETATM   13  N7  UNL     1      91.237  35.254  62.248  1.00  0.00    -0.191 N 
HETATM   14  C14 UNL     1      89.670  36.761  62.984  1.00  0.00     0.034 A 
HETATM   15  C13 UNL     1      88.491  37.407  62.835  1.00  0.00     0.003 A 
HETATM   16  C12 UNL     1      87.705  37.147  61.721  1.00  0.00     0.011 A 
BRANCH   7  17
HETATM   17  O1  UNL     1      89.029  34.360  58.959  1.00  0.00    -0.267 OA
ATOM     18  H1  UNL     1      88.603  35.077  58.502  1.00  0.00     0.247 HD
ENDBRANCH   7  17
BRANCH  13  19
HETATM   19  O7  UNL     1      92.048  35.467  63.321  1.00  0.00    -0.280 OA
ATOM     20  H7  UNL     1      92.766  34.863  63.465  1.00  0.00     0.245 HD
ENDBRANCH  13  19
ENDBRANCH   4   5
ENDBRANCH   3   4
ENDBRANCH   1   3
BRANCH   1  21
HETATM   21  C5  UNL     1      85.947  35.443  56.854  1.00  0.00     0.112 A 
HETATM   22  C6  UNL     1      86.647  34.431  56.305  1.00  0.00     0.098 A 
HETATM   23  C7  UNL     1      85.994  33.333  55.782  1.00  0.00     0.076 A 
HETATM   24  C8  UNL     1      84.683  33.208  55.789  1.00  0.00     0.082 A 
HETATM   25  C9  UNL     1      83.863  34.293  56.374  1.00  0.00     0.045 A 
HETATM   26  C11 UNL     1      84.523  35.354  56.876  1.00  0.00     0.110 A 
BRANCH  22  27
HETATM   27  O2  UNL     1      88.066  34.404  56.226  1.00  0.00    -0.358 OA
ATOM     28  H2  UNL     1      88.561  33.676  55.869  1.00  0.00     0.217 HD
ENDBRANCH  22  27
BRANCH  24  29
HETATM   29  O3  UNL     1      83.941  32.154  55.320  1.00  0.00    -0.360 OA
ATOM     30  H3  UNL     1      83.313  31.628  55.802  1.00  0.00     0.217 HD
ENDBRANCH  24  29
BRANCH  25  31
HETATM   31  C10 UNL     1      82.443  34.015  56.119  1.00  0.00     0.148 C 
BRANCH  31  32
HETATM   32  S1  UNL     1      81.570  34.430  54.700  1.00  0.00     0.247 S 
HETATM   33  O4  UNL     1      80.437  33.252  54.566  1.00  0.00    -0.202 OA
HETATM   34  O5  UNL     1      82.430  34.042  53.450  1.00  0.00    -0.202 OA
BRANCH  32  35
HETATM   35  N6  UNL     1      80.723  35.818  54.368  1.00  0.00    -0.325 N 
ATOM     36  H62 UNL     1      81.176  36.438  53.697  1.00  0.00     0.169 HD
ATOM     37  H61 UNL     1      79.825  36.123  54.744  1.00  0.00     0.169 HD
ENDBRANCH  32  35
ENDBRANCH  31  32
ENDBRANCH  25  31
BRANCH  26  38
HETATM   38  O6  UNL     1      83.833  36.397  57.418  1.00  0.00    -0.357 OA
ATOM     39  H6  UNL     1      82.963  36.221  57.756  1.00  0.00     0.217 HD
ENDBRANCH  26  38
ENDBRANCH   1  21
TORSDOF 12
ENDMDL
