MODEL 1
REMARK VINA RESULT: -8.299400176      0.000      0.000
REMARK  10 active torsions:
REMARK  status: ('A' for Active; 'I' for Inactive)
REMARK       I    between atoms: N1_2  and  C2_4 
REMARK    1  A    between atoms: C2_4  and  C3_6 
REMARK    2  A    between atoms: C3_6  and  C4_11 
REMARK    3  A    between atoms: N2_7  and  O2_9 
REMARK    4  A    between atoms: C6_15  and  C7_16 
REMARK    5  A    between atoms: C8_22  and  N6_23 
REMARK    6  A    between atoms: C9_28  and  N8_29 
REMARK    7  A    between atoms: N8_29  and  C10_31 
REMARK    8  A    between atoms: C10_31  and  C11_32 
REMARK    9  A    between atoms: C11_32  and  C12_33 
REMARK   10  A    between atoms: C14_37  and  C15_38 
ROOT
HETATM    1  C4  UNL     1      87.997  37.051  61.734  1.00  0.00     0.058 A 
HETATM    2  C5  UNL     1      88.524  36.748  62.947  1.00  0.00     0.107 A 
HETATM    3  N3  UNL     1      89.672  35.997  63.031  1.00  0.00    -0.349 N 
ATOM      4  H3  UNL     1      90.049  35.783  63.954  1.00  0.00     0.167 HD
HETATM    5  C6  UNL     1      90.315  35.538  61.962  1.00  0.00     0.139 A 
HETATM    6  N7  UNL     1      89.779  35.848  60.761  1.00  0.00    -0.326 N 
ATOM      7  H7  UNL     1      90.260  35.504  59.930  1.00  0.00     0.169 HD
HETATM    8  C9  UNL     1      88.664  36.572  60.572  1.00  0.00     0.120 A 
ENDROOT
BRANCH   8   9
HETATM    9  N8  UNL     1      88.162  36.862  59.502  1.00  0.00    -0.355 N 
ATOM     10  H8  UNL     1      87.604  36.046  59.250  1.00  0.00     0.166 HD
BRANCH   9  11
HETATM   11  C10 UNL     1      87.972  37.755  58.455  1.00  0.00     0.068 C 
BRANCH  11  12
HETATM   12  C11 UNL     1      86.700  37.584  57.742  1.00  0.00     0.106 C 
BRANCH  12  13
HETATM   13  C12 UNL     1      86.320  36.254  57.268  1.00  0.00     0.064 A 
HETATM   14  N9  UNL     1      87.297  35.490  56.709  1.00  0.00    -0.365 N 
HETATM   15  C13 UNL     1      87.083  34.253  56.239  1.00  0.00     0.106 A 
ATOM     16  H9  UNL     1      88.238  35.877  56.644  1.00  0.00     0.165 HD
HETATM   17  C14 UNL     1      85.841  33.657  56.289  1.00  0.00     0.060 A 
HETATM   18  C16 UNL     1      84.836  34.387  56.841  1.00  0.00     0.076 A 
HETATM   19  C17 UNL     1      85.059  35.707  57.343  1.00  0.00     0.195 A 
HETATM   20  O6  UNL     1      84.068  36.364  57.862  1.00  0.00    -0.286 OA
BRANCH  17  21
HETATM   21  C15 UNL     1      85.610  32.306  55.776  1.00  0.00     0.210 C 
HETATM   22  O4  UNL     1      85.564  32.058  54.544  1.00  0.00    -0.644 OA
HETATM   23  O5  UNL     1      85.433  31.244  56.638  1.00  0.00    -0.644 OA
ENDBRANCH  17  21
ENDBRANCH  12  13
ENDBRANCH  11  12
ENDBRANCH   9  11
ENDBRANCH   8   9
BRANCH   1  24
HETATM   24  C3  UNL     1      86.761  37.858  61.551  1.00  0.00     0.137 C 
HETATM   25  N2  UNL     1      86.877  39.127  61.611  1.00  0.00    -0.263 N 
ATOM     26  H2  UNL     1      87.844  39.405  61.780  1.00  0.00     0.194 HD
BRANCH  24  27
HETATM   27  C2  UNL     1      85.450  37.309  61.317  1.00  0.00     0.270 C 
HETATM   28  N1  UNL     1      84.220  37.971  61.510  1.00  0.00    -0.360 N 
HETATM   29  C1  UNL     1      82.965  37.288  61.230  1.00  0.00     0.149 C 
ATOM     30  H1  UNL     1      84.209  38.934  61.847  1.00  0.00     0.162 HD
HETATM   31  O1  UNL     1      85.333  36.100  60.888  1.00  0.00    -0.266 OA
ENDBRANCH  24  27
BRANCH  25  32
HETATM   32  O2  UNL     1      86.096  40.164  61.517  1.00  0.00    -0.289 OA
ATOM     33  H2  UNL     1      85.697  40.676  60.823  1.00  0.00     0.244 HD
ENDBRANCH  25  32
ENDBRANCH   1  24
BRANCH   5  34
HETATM   34  C7  UNL     1      91.536  34.742  62.053  1.00  0.00     0.145 A 
HETATM   35  N4  UNL     1      92.029  33.976  61.033  1.00  0.00    -0.234 N 
HETATM   36  O3  UNL     1      93.118  33.395  61.423  1.00  0.00    -0.155 OA
ATOM     37  H4  UNL     1      91.607  33.879  60.110  1.00  0.00     0.197 HD
HETATM   38  N5  UNL     1      93.370  33.734  62.646  1.00  0.00    -0.224 N 
HETATM   39  C8  UNL     1      92.389  34.590  63.084  1.00  0.00     0.154 A 
ATOM     40  H5  UNL     1      94.169  33.417  63.196  1.00  0.00     0.198 HD
BRANCH  39  41
HETATM   41  N6  UNL     1      92.333  35.115  64.250  1.00  0.00    -0.382 N 
ATOM     42  H62 UNL     1      91.743  35.905  64.512  1.00  0.00     0.157 HD
ATOM     43  H61 UNL     1      92.845  34.852  65.091  1.00  0.00     0.157 HD
ENDBRANCH  39  41
ENDBRANCH   5  34
TORSDOF 10
ENDMDL
MODEL 2
REMARK VINA RESULT: -8.016577515      3.046      8.064
REMARK  10 active torsions:
REMARK  status: ('A' for Active; 'I' for Inactive)
REMARK       I    between atoms: N1_2  and  C2_4 
REMARK    1  A    between atoms: C2_4  and  C3_6 
REMARK    2  A    between atoms: C3_6  and  C4_11 
REMARK    3  A    between atoms: N2_7  and  O2_9 
REMARK    4  A    between atoms: C6_15  and  C7_16 
REMARK    5  A    between atoms: C8_22  and  N6_23 
REMARK    6  A    between atoms: C9_28  and  N8_29 
REMARK    7  A    between atoms: N8_29  and  C10_31 
REMARK    8  A    between atoms: C10_31  and  C11_32 
REMARK    9  A    between atoms: C11_32  and  C12_33 
REMARK   10  A    between atoms: C14_37  and  C15_38 
ROOT
HETATM    1  C4  UNL     1      87.017  37.813  55.731  1.00  0.00     0.058 A 
HETATM    2  C5  UNL     1      86.337  37.518  54.595  1.00  0.00     0.107 A 
HETATM    3  N3  UNL     1      85.526  36.409  54.546  1.00  0.00    -0.349 N 
ATOM      4  H3  UNL     1      85.025  36.209  53.680  1.00  0.00     0.167 HD
HETATM    5  C6  UNL     1      85.367  35.585  55.576  1.00  0.00     0.139 A 
HETATM    6  N7  UNL     1      86.051  35.891  56.701  1.00  0.00    -0.326 N 
ATOM      7  H7  UNL     1      85.939  35.270  57.502  1.00  0.00     0.169 HD
HETATM    8  C9  UNL     1      86.866  36.948  56.850  1.00  0.00     0.120 A 
ENDROOT
BRANCH   8   9
HETATM    9  N8  UNL     1      87.492  37.243  57.851  1.00  0.00    -0.355 N 
ATOM     10  H8  UNL     1      88.432  37.452  57.514  1.00  0.00     0.166 HD
BRANCH   9  11
HETATM   11  C10 UNL     1      87.561  37.437  59.225  1.00  0.00     0.068 C 
BRANCH  11  12
HETATM   12  C11 UNL     1      87.539  36.196  60.009  1.00  0.00     0.106 C 
BRANCH  12  13
HETATM   13  C12 UNL     1      88.772  35.731  60.643  1.00  0.00     0.064 A 
HETATM   14  N9  UNL     1      89.579  34.915  59.912  1.00  0.00    -0.365 N 
HETATM   15  C13 UNL     1      90.737  34.422  60.373  1.00  0.00     0.106 A 
ATOM     16  H9  UNL     1      89.288  34.667  58.966  1.00  0.00     0.165 HD
HETATM   17  C14 UNL     1      91.201  34.710  61.639  1.00  0.00     0.060 A 
HETATM   18  C16 UNL     1      90.424  35.522  62.403  1.00  0.00     0.076 A 
HETATM   19  C17 UNL     1      89.188  36.051  61.916  1.00  0.00     0.195 A 
HETATM   20  O6  UNL     1      88.481  36.822  62.682  1.00  0.00    -0.286 OA
BRANCH  17  21
HETATM   21  C15 UNL     1      92.466  34.171  62.139  1.00  0.00     0.210 C 
HETATM   22  O4  UNL     1      93.160  33.365  61.470  1.00  0.00    -0.644 OA
HETATM   23  O5  UNL     1      92.945  34.535  63.381  1.00  0.00    -0.644 OA
ENDBRANCH  17  21
ENDBRANCH  12  13
ENDBRANCH  11  12
ENDBRANCH   9  11
ENDBRANCH   8   9
BRANCH   1  24
HETATM   24  C3  UNL     1      87.912  38.992  55.872  1.00  0.00     0.137 C 
HETATM   25  N2  UNL     1      87.359  40.133  56.015  1.00  0.00    -0.263 N 
ATOM     26  H2  UNL     1      86.342  40.056  56.015  1.00  0.00     0.194 HD
BRANCH  24  27
HETATM   27  C2  UNL     1      89.352  38.936  55.854  1.00  0.00     0.270 C 
HETATM   28  N1  UNL     1      90.163  38.643  54.737  1.00  0.00    -0.360 N 
HETATM   29  C1  UNL     1      91.613  38.622  54.867  1.00  0.00     0.149 C 
ATOM     30  H1  UNL     1      89.731  38.446  53.835  1.00  0.00     0.162 HD
HETATM   31  O1  UNL     1      90.013  39.169  56.934  1.00  0.00    -0.266 OA
ENDBRANCH  24  27
BRANCH  25  32
HETATM   32  O2  UNL     1      87.740  41.369  56.162  1.00  0.00    -0.289 OA
ATOM     33  H2  UNL     1      88.445  41.835  56.597  1.00  0.00     0.244 HD
ENDBRANCH  25  32
ENDBRANCH   1  24
BRANCH   5  34
HETATM   34  C7  UNL     1      84.504  34.407  55.523  1.00  0.00     0.145 A 
HETATM   35  N4  UNL     1      84.954  33.122  55.650  1.00  0.00    -0.234 N 
HETATM   36  O3  UNL     1      83.951  32.308  55.558  1.00  0.00    -0.155 OA
ATOM     37  H4  UNL     1      85.925  32.848  55.795  1.00  0.00     0.197 HD
HETATM   38  N5  UNL     1      82.865  32.985  55.376  1.00  0.00    -0.224 N 
HETATM   39  C8  UNL     1      83.172  34.324  55.348  1.00  0.00     0.154 A 
ATOM     40  H5  UNL     1      81.930  32.590  55.271  1.00  0.00     0.198 HD
BRANCH  39  41
HETATM   41  N6  UNL     1      82.328  35.273  55.184  1.00  0.00    -0.382 N 
ATOM     42  H62 UNL     1      82.563  36.235  54.938  1.00  0.00     0.157 HD
ATOM     43  H61 UNL     1      81.312  35.242  55.266  1.00  0.00     0.157 HD
ENDBRANCH  39  41
ENDBRANCH   5  34
TORSDOF 10
ENDMDL
MODEL 3
REMARK VINA RESULT: -8.012640830      2.978      7.788
REMARK  10 active torsions:
REMARK  status: ('A' for Active; 'I' for Inactive)
REMARK       I    between atoms: N1_2  and  C2_4 
REMARK    1  A    between atoms: C2_4  and  C3_6 
REMARK    2  A    between atoms: C3_6  and  C4_11 
REMARK    3  A    between atoms: N2_7  and  O2_9 
REMARK    4  A    between atoms: C6_15  and  C7_16 
REMARK    5  A    between atoms: C8_22  and  N6_23 
REMARK    6  A    between atoms: C9_28  and  N8_29 
REMARK    7  A    between atoms: N8_29  and  C10_31 
REMARK    8  A    between atoms: C10_31  and  C11_32 
REMARK    9  A    between atoms: C11_32  and  C12_33 
REMARK   10  A    between atoms: C14_37  and  C15_38 
ROOT
HETATM    1  C4  UNL     1      85.722  35.441  55.765  1.00  0.00     0.058 A 
HETATM    2  C5  UNL     1      85.408  36.222  54.701  1.00  0.00     0.107 A 
HETATM    3  N3  UNL     1      86.150  37.347  54.430  1.00  0.00    -0.349 N 
ATOM      4  H3  UNL     1      85.895  37.918  53.625  1.00  0.00     0.167 HD
HETATM    5  C6  UNL     1      87.187  37.724  55.172  1.00  0.00     0.139 A 
HETATM    6  N7  UNL     1      87.487  36.936  56.228  1.00  0.00    -0.326 N 
ATOM      7  H7  UNL     1      88.280  37.211  56.807  1.00  0.00     0.169 HD
HETATM    8  C9  UNL     1      86.826  35.820  56.577  1.00  0.00     0.120 A 
ENDROOT
BRANCH   8   9
HETATM    9  N8  UNL     1      87.076  35.097  57.522  1.00  0.00    -0.355 N 
ATOM     10  H8  UNL     1      87.438  34.240  57.103  1.00  0.00     0.166 HD
BRANCH   9  11
HETATM   11  C10 UNL     1      87.113  34.860  58.891  1.00  0.00     0.068 C 
BRANCH  11  12
HETATM   12  C11 UNL     1      87.784  35.912  59.665  1.00  0.00     0.106 C 
BRANCH  12  13
HETATM   13  C12 UNL     1      88.956  35.570  60.470  1.00  0.00     0.064 A 
HETATM   14  N9  UNL     1      89.864  34.722  59.917  1.00  0.00    -0.365 N 
HETATM   15  C13 UNL     1      90.982  34.331  60.545  1.00  0.00     0.106 A 
ATOM     16  H9  UNL     1      89.687  34.366  58.978  1.00  0.00     0.165 HD
HETATM   17  C14 UNL     1      91.296  34.767  61.815  1.00  0.00     0.060 A 
HETATM   18  C16 UNL     1      90.414  35.616  62.404  1.00  0.00     0.076 A 
HETATM   19  C17 UNL     1      89.220  36.036  61.738  1.00  0.00     0.195 A 
HETATM   20  O6  UNL     1      88.409  36.848  62.341  1.00  0.00    -0.286 OA
BRANCH  17  21
HETATM   21  C15 UNL     1      92.517  34.340  62.499  1.00  0.00     0.210 C 
HETATM   22  O4  UNL     1      92.740  34.618  63.704  1.00  0.00    -0.644 OA
HETATM   23  O5  UNL     1      93.479  33.607  61.834  1.00  0.00    -0.644 OA
ENDBRANCH  17  21
ENDBRANCH  12  13
ENDBRANCH  11  12
ENDBRANCH   9  11
ENDBRANCH   8   9
BRANCH   1  24
HETATM   24  C3  UNL     1      84.975  34.207  56.129  1.00  0.00     0.137 C 
HETATM   25  N2  UNL     1      85.643  33.124  56.219  1.00  0.00    -0.263 N 
ATOM     26  H2  UNL     1      86.632  33.280  56.023  1.00  0.00     0.194 HD
BRANCH  24  27
HETATM   27  C2  UNL     1      83.557  34.150  56.380  1.00  0.00     0.270 C 
HETATM   28  N1  UNL     1      82.816  35.034  57.192  1.00  0.00    -0.360 N 
HETATM   29  C1  UNL     1      81.380  34.853  57.354  1.00  0.00     0.149 C 
ATOM     30  H1  UNL     1      83.288  35.803  57.667  1.00  0.00     0.162 HD
HETATM   31  O1  UNL     1      82.850  33.222  55.834  1.00  0.00    -0.266 OA
ENDBRANCH  24  27
BRANCH  25  32
HETATM   32  O2  UNL     1      85.406  31.874  56.494  1.00  0.00    -0.289 OA
ATOM     33  H2  UNL     1      85.447  31.307  57.256  1.00  0.00     0.244 HD
ENDBRANCH  25  32
ENDBRANCH   1  24
BRANCH   5  34
HETATM   34  C7  UNL     1      87.975  38.919  54.882  1.00  0.00     0.145 A 
HETATM   35  N4  UNL     1      87.549  40.196  55.126  1.00  0.00    -0.234 N 
HETATM   36  O3  UNL     1      88.470  41.030  54.762  1.00  0.00    -0.155 OA
ATOM     37  H4  UNL     1      86.649  40.451  55.532  1.00  0.00     0.197 HD
HETATM   38  N5  UNL     1      89.480  40.374  54.289  1.00  0.00    -0.224 N 
HETATM   39  C8  UNL     1      89.206  39.029  54.348  1.00  0.00     0.154 A 
ATOM     40  H5  UNL     1      90.340  40.788  53.931  1.00  0.00     0.198 HD
BRANCH  39  41
HETATM   41  N6  UNL     1      89.993  38.097  53.959  1.00  0.00    -0.382 N 
ATOM     42  H62 UNL     1      90.042  37.161  54.362  1.00  0.00     0.157 HD
ATOM     43  H61 UNL     1      90.685  38.120  53.210  1.00  0.00     0.157 HD
ENDBRANCH  39  41
ENDBRANCH   5  34
TORSDOF 10
ENDMDL
MODEL 4
REMARK VINA RESULT: -7.856056102      3.285      8.485
REMARK  10 active torsions:
REMARK  status: ('A' for Active; 'I' for Inactive)
REMARK       I    between atoms: N1_2  and  C2_4 
REMARK    1  A    between atoms: C2_4  and  C3_6 
REMARK    2  A    between atoms: C3_6  and  C4_11 
REMARK    3  A    between atoms: N2_7  and  O2_9 
REMARK    4  A    between atoms: C6_15  and  C7_16 
REMARK    5  A    between atoms: C8_22  and  N6_23 
REMARK    6  A    between atoms: C9_28  and  N8_29 
REMARK    7  A    between atoms: N8_29  and  C10_31 
REMARK    8  A    between atoms: C10_31  and  C11_32 
REMARK    9  A    between atoms: C11_32  and  C12_33 
REMARK   10  A    between atoms: C14_37  and  C15_38 
ROOT
HETATM    1  C4  UNL     1      86.418  36.986  55.373  1.00  0.00     0.058 A 
HETATM    2  C5  UNL     1      85.541  37.200  54.360  1.00  0.00     0.107 A 
HETATM    3  N3  UNL     1      84.386  36.460  54.281  1.00  0.00    -0.349 N 
ATOM      4  H3  UNL     1      83.743  36.641  53.510  1.00  0.00     0.167 HD
HETATM    5  C6  UNL     1      84.069  35.519  55.164  1.00  0.00     0.139 A 
HETATM    6  N7  UNL     1      84.952  35.316  56.167  1.00  0.00    -0.326 N 
ATOM      7  H7  UNL     1      84.724  34.598  56.854  1.00  0.00     0.169 HD
HETATM    8  C9  UNL     1      86.105  35.984  56.333  1.00  0.00     0.120 A 
ENDROOT
BRANCH   8   9
HETATM    9  N8  UNL     1      86.915  35.818  57.226  1.00  0.00    -0.355 N 
ATOM     10  H8  UNL     1      87.610  36.551  57.083  1.00  0.00     0.166 HD
BRANCH   9  11
HETATM   11  C10 UNL     1      87.362  35.125  58.344  1.00  0.00     0.068 C 
BRANCH  11  12
HETATM   12  C11 UNL     1      87.675  35.979  59.496  1.00  0.00     0.106 C 
BRANCH  12  13
HETATM   13  C12 UNL     1      88.829  35.654  60.334  1.00  0.00     0.064 A 
HETATM   14  N9  UNL     1      89.730  34.766  59.834  1.00  0.00    -0.365 N 
HETATM   15  C13 UNL     1      90.831  34.385  60.498  1.00  0.00     0.106 A 
ATOM     16  H9  UNL     1      89.561  34.371  58.909  1.00  0.00     0.165 HD
HETATM   17  C14 UNL     1      91.134  34.872  61.751  1.00  0.00     0.060 A 
HETATM   18  C16 UNL     1      90.258  35.762  62.287  1.00  0.00     0.076 A 
HETATM   19  C17 UNL     1      89.082  36.172  61.584  1.00  0.00     0.195 A 
HETATM   20  O6  UNL     1      88.276  37.025  62.137  1.00  0.00    -0.286 OA
BRANCH  17  21
HETATM   21  C15 UNL     1      92.336  34.455  62.473  1.00  0.00     0.210 C 
HETATM   22  O4  UNL     1      92.487  34.673  63.702  1.00  0.00    -0.644 OA
HETATM   23  O5  UNL     1      93.360  33.801  61.820  1.00  0.00    -0.644 OA
ENDBRANCH  17  21
ENDBRANCH  12  13
ENDBRANCH  11  12
ENDBRANCH   9  11
ENDBRANCH   8   9
BRANCH   1  24
HETATM   24  C3  UNL     1      87.689  37.741  55.537  1.00  0.00     0.137 C 
HETATM   25  N2  UNL     1      88.688  37.365  54.838  1.00  0.00    -0.263 N 
ATOM     26  H2  UNL     1      88.448  36.570  54.245  1.00  0.00     0.194 HD
BRANCH  24  27
HETATM   27  C2  UNL     1      87.870  38.858  56.429  1.00  0.00     0.270 C 
HETATM   28  N1  UNL     1      87.230  40.112  56.339  1.00  0.00    -0.360 N 
HETATM   29  C1  UNL     1      87.513  41.153  57.317  1.00  0.00     0.149 C 
ATOM     30  H1  UNL     1      86.567  40.290  55.585  1.00  0.00     0.162 HD
HETATM   31  O1  UNL     1      88.684  38.755  57.422  1.00  0.00    -0.266 OA
ENDBRANCH  24  27
BRANCH  25  32
HETATM   32  O2  UNL     1      89.929  37.719  54.676  1.00  0.00    -0.289 OA
ATOM     33  H2  UNL     1      90.780  37.451  55.003  1.00  0.00     0.244 HD
ENDBRANCH  25  32
ENDBRANCH   1  24
BRANCH   5  34
HETATM   34  C7  UNL     1      82.840  34.734  55.079  1.00  0.00     0.145 A 
HETATM   35  N4  UNL     1      81.586  35.277  55.026  1.00  0.00    -0.234 N 
HETATM   36  O3  UNL     1      80.711  34.325  54.956  1.00  0.00    -0.155 OA
ATOM     37  H4  UNL     1      81.373  36.274  55.040  1.00  0.00     0.197 HD
HETATM   38  N5  UNL     1      81.319  33.183  54.960  1.00  0.00    -0.224 N 
HETATM   39  C8  UNL     1      82.675  33.398  55.037  1.00  0.00     0.154 A 
ATOM     40  H5  UNL     1      80.866  32.270  54.914  1.00  0.00     0.198 HD
BRANCH  39  41
HETATM   41  N6  UNL     1      83.568  32.482  55.063  1.00  0.00    -0.382 N 
ATOM     42  H62 UNL     1      84.032  32.088  54.244  1.00  0.00     0.157 HD
ATOM     43  H61 UNL     1      83.960  31.999  55.871  1.00  0.00     0.157 HD
ENDBRANCH  39  41
ENDBRANCH   5  34
TORSDOF 10
ENDMDL
MODEL 5
REMARK VINA RESULT: -7.855689911      5.017      7.255
REMARK  10 active torsions:
REMARK  status: ('A' for Active; 'I' for Inactive)
REMARK       I    between atoms: N1_2  and  C2_4 
REMARK    1  A    between atoms: C2_4  and  C3_6 
REMARK    2  A    between atoms: C3_6  and  C4_11 
REMARK    3  A    between atoms: N2_7  and  O2_9 
REMARK    4  A    between atoms: C6_15  and  C7_16 
REMARK    5  A    between atoms: C8_22  and  N6_23 
REMARK    6  A    between atoms: C9_28  and  N8_29 
REMARK    7  A    between atoms: N8_29  and  C10_31 
REMARK    8  A    between atoms: C10_31  and  C11_32 
REMARK    9  A    between atoms: C11_32  and  C12_33 
REMARK   10  A    between atoms: C14_37  and  C15_38 
ROOT
HETATM    1  C4  UNL     1      86.474  39.149  53.058  1.00  0.00     0.058 A 
HETATM    2  C5  UNL     1      87.625  39.411  52.390  1.00  0.00     0.107 A 
HETATM    3  N3  UNL     1      88.834  39.310  53.035  1.00  0.00    -0.349 N 
ATOM      4  H3  UNL     1      89.685  39.512  52.510  1.00  0.00     0.167 HD
HETATM    5  C6  UNL     1      88.944  38.959  54.312  1.00  0.00     0.139 A 
HETATM    6  N7  UNL     1      87.790  38.700  54.965  1.00  0.00    -0.326 N 
ATOM      7  H7  UNL     1      87.856  38.429  55.945  1.00  0.00     0.169 HD
HETATM    8  C9  UNL     1      86.561  38.771  54.427  1.00  0.00     0.120 A 
ENDROOT
BRANCH   8   9
HETATM    9  N8  UNL     1      85.509  38.545  54.994  1.00  0.00    -0.355 N 
ATOM     10  H8  UNL     1      84.988  37.955  54.345  1.00  0.00     0.166 HD
BRANCH   9  11
HETATM   11  C10 UNL     1      84.665  38.693  56.088  1.00  0.00     0.068 C 
BRANCH  11  12
HETATM   12  C11 UNL     1      84.872  37.696  57.145  1.00  0.00     0.106 C 
BRANCH  12  13
HETATM   13  C12 UNL     1      85.136  36.306  56.775  1.00  0.00     0.064 A 
HETATM   14  N9  UNL     1      84.058  35.513  56.525  1.00  0.00    -0.365 N 
HETATM   15  C13 UNL     1      84.161  34.224  56.172  1.00  0.00     0.106 A 
ATOM     16  H9  UNL     1      83.127  35.920  56.609  1.00  0.00     0.165 HD
HETATM   17  C14 UNL     1      85.382  33.599  56.036  1.00  0.00     0.060 A 
HETATM   18  C16 UNL     1      86.485  34.356  56.276  1.00  0.00     0.076 A 
HETATM   19  C17 UNL     1      86.381  35.732  56.653  1.00  0.00     0.195 A 
HETATM   20  O6  UNL     1      87.462  36.414  56.872  1.00  0.00    -0.286 OA
BRANCH  17  21
HETATM   21  C15 UNL     1      85.492  32.192  55.650  1.00  0.00     0.210 C 
HETATM   22  O4  UNL     1      85.612  31.835  54.451  1.00  0.00    -0.644 OA
HETATM   23  O5  UNL     1      85.466  31.195  56.604  1.00  0.00    -0.644 OA
ENDBRANCH  17  21
ENDBRANCH  12  13
ENDBRANCH  11  12
ENDBRANCH   9  11
ENDBRANCH   8   9
BRANCH   1  24
HETATM   24  C3  UNL     1      85.124  39.232  52.439  1.00  0.00     0.137 C 
HETATM   25  N2  UNL     1      84.307  40.082  52.926  1.00  0.00    -0.263 N 
ATOM     26  H2  UNL     1      84.728  40.600  53.699  1.00  0.00     0.194 HD
BRANCH  24  27
HETATM   27  C2  UNL     1      84.676  38.419  51.336  1.00  0.00     0.270 C 
HETATM   28  N1  UNL     1      84.258  37.073  51.405  1.00  0.00    -0.360 N 
HETATM   29  C1  UNL     1      83.829  36.375  50.202  1.00  0.00     0.149 C 
ATOM     30  H1  UNL     1      84.258  36.588  52.302  1.00  0.00     0.162 HD
HETATM   31  O1  UNL     1      84.631  38.922  50.151  1.00  0.00    -0.266 OA
ENDBRANCH  24  27
BRANCH  25  32
HETATM   32  O2  UNL     1      83.084  40.469  52.707  1.00  0.00    -0.289 OA
ATOM     33  H2  UNL     1      82.462  41.070  53.098  1.00  0.00     0.244 HD
ENDBRANCH  25  32
ENDBRANCH   1  24
BRANCH   5  34
HETATM   34  C7  UNL     1      90.231  38.850  54.995  1.00  0.00     0.145 A 
HETATM   35  N4  UNL     1      91.411  38.561  54.367  1.00  0.00    -0.234 N 
HETATM   36  O3  UNL     1      92.365  38.536  55.241  1.00  0.00    -0.155 OA
ATOM     37  H4  UNL     1      91.522  38.393  53.367  1.00  0.00     0.197 HD
HETATM   38  N5  UNL     1      91.880  38.790  56.413  1.00  0.00    -0.224 N 
HETATM   39  C8  UNL     1      90.526  38.997  56.301  1.00  0.00     0.154 A 
ATOM     40  H5  UNL     1      92.415  38.831  57.280  1.00  0.00     0.198 HD
BRANCH  39  41
HETATM   41  N6  UNL     1      89.737  39.271  57.271  1.00  0.00    -0.382 N 
ATOM     42  H62 UNL     1      88.790  38.909  57.380  1.00  0.00     0.157 HD
ATOM     43  H61 UNL     1      89.904  39.875  58.076  1.00  0.00     0.157 HD
ENDBRANCH  39  41
ENDBRANCH   5  34
TORSDOF 10
ENDMDL
