MODEL 1
REMARK VINA RESULT: -8.370525758      0.000      0.000
REMARK  10 active torsions:
REMARK  status: ('A' for Active; 'I' for Inactive)
REMARK    1  A    between atoms: C2_2  and  C7_17 
REMARK    2  A    between atoms: N1_3  and  N2_5 
REMARK       I    between atoms: N2_5  and  C3_7 
REMARK    3  A    between atoms: C3_7  and  C4_9 
REMARK    4  A    between atoms: C7_17  and  C8_19 
REMARK    5  A    between atoms: C10_22  and  N5_23 
REMARK    6  A    between atoms: N5_23  and  C11_25 
REMARK    7  A    between atoms: C11_25  and  C12_29 
REMARK    8  A    between atoms: C12_29  and  C13_31 
REMARK    9  A    between atoms: C14_37  and  N9_38 
REMARK   10  A    between atoms: N10_41  and  O6_42 
ROOT
HETATM    1  C8  UNL     1      85.605  36.037  56.539  1.00  0.00     0.123 A 
HETATM    2  C9  UNL     1      85.920  37.344  56.777  1.00  0.00     0.089 A 
HETATM    3  S1  UNL     1      85.645  38.098  55.261  1.00  0.00    -0.061 SA
HETATM    4  C10 UNL     1      85.144  36.721  54.403  1.00  0.00     0.177 A 
HETATM    5  N10 UNL     1      85.206  35.750  55.295  1.00  0.00    -0.197 N 
ENDROOT
BRANCH   1   6
HETATM    6  C7  UNL     1      85.727  34.985  57.575  1.00  0.00     0.225 C 
HETATM    7  O3  UNL     1      85.076  33.912  57.447  1.00  0.00    -0.284 OA
BRANCH   6   8
HETATM    8  C2  UNL     1      86.555  35.093  58.747  1.00  0.00     0.074 C 
HETATM    9  C1  UNL     1      85.938  35.706  60.003  1.00  0.00     0.074 C 
HETATM   10  N1  UNL     1      87.726  34.703  58.772  1.00  0.00    -0.298 N 
ATOM     11  H1  UNL     1      87.977  34.324  57.859  1.00  0.00     0.186 HD
BRANCH  10  12
HETATM   12  N2  UNL     1      88.778  34.611  59.601  1.00  0.00    -0.264 N 
HETATM   13  C3  UNL     1      89.569  35.552  60.253  1.00  0.00     0.288 C 
HETATM   14  O1  UNL     1      89.399  36.773  60.138  1.00  0.00    -0.264 OA
ATOM     15  H2  UNL     1      89.056  33.648  59.793  1.00  0.00     0.190 HD
BRANCH  13  16
HETATM   16  C4  UNL     1      90.680  35.107  61.140  1.00  0.00     0.121 A 
HETATM   17  C5  UNL     1      90.866  35.426  62.466  1.00  0.00     0.128 A 
HETATM   18  N3  UNL     1      91.986  34.782  62.856  1.00  0.00    -0.316 N 
HETATM   19  C6  UNL     1      92.513  34.078  61.857  1.00  0.00     0.324 A 
ATOM     20  H3  UNL     1      92.378  34.828  63.797  1.00  0.00     0.170 HD
HETATM   21  O2  UNL     1      93.556  33.346  61.831  1.00  0.00    -0.247 OA
HETATM   22  N4  UNL     1      91.680  34.293  60.791  1.00  0.00    -0.303 N 
ATOM     23  H4  UNL     1      91.806  33.889  59.863  1.00  0.00     0.171 HD
ENDBRANCH  13  16
ENDBRANCH  10  12
ENDBRANCH   6   8
ENDBRANCH   1   6
BRANCH   5  24
HETATM   24  O6  UNL     1      84.843  34.425  54.914  1.00  0.00    -0.280 OA
ATOM     25  H6  UNL     1      85.247  33.993  54.171  1.00  0.00     0.245 HD
ENDBRANCH   5  24
BRANCH   4  26
HETATM   26  N5  UNL     1      84.775  36.641  53.141  1.00  0.00    -0.318 N 
ATOM     27  H5  UNL     1      85.527  36.497  52.467  1.00  0.00     0.169 HD
BRANCH  26  28
HETATM   28  C11 UNL     1      83.504  36.727  52.613  1.00  0.00     0.154 C 
HETATM   29  N6  UNL     1      82.540  37.395  53.170  1.00  0.00    -0.382 N 
ATOM     30  H62 UNL     1      82.750  37.891  54.036  1.00  0.00     0.157 HD
ATOM     31  H61 UNL     1      81.600  37.460  52.779  1.00  0.00     0.157 HD
BRANCH  28  32
HETATM   32  C12 UNL     1      83.204  36.020  51.379  1.00  0.00     0.247 C 
HETATM   33  O4  UNL     1      83.165  34.758  51.395  1.00  0.00    -0.282 OA
BRANCH  32  34
HETATM   34  C13 UNL     1      82.956  36.772  50.155  1.00  0.00     0.155 A 
HETATM   35  N7  UNL     1      83.855  37.280  49.307  1.00  0.00    -0.234 N 
HETATM   36  O5  UNL     1      83.233  37.898  48.336  1.00  0.00    -0.155 OA
ATOM     37  H7  UNL     1      84.868  37.199  49.401  1.00  0.00     0.197 HD
HETATM   38  N8  UNL     1      81.947  37.816  48.511  1.00  0.00    -0.224 N 
HETATM   39  C14 UNL     1      81.700  37.123  49.634  1.00  0.00     0.154 A 
ATOM     40  H8  UNL     1      81.240  38.214  47.894  1.00  0.00     0.198 HD
BRANCH  39  41
HETATM   41  N9  UNL     1      80.586  36.809  50.174  1.00  0.00    -0.382 N 
ATOM     42  H92 UNL     1      80.351  36.021  50.776  1.00  0.00     0.157 HD
ATOM     43  H91 UNL     1      79.725  37.344  50.065  1.00  0.00     0.157 HD
ENDBRANCH  39  41
ENDBRANCH  32  34
ENDBRANCH  28  32
ENDBRANCH  26  28
ENDBRANCH   4  26
TORSDOF 10
ENDMDL
MODEL 2
REMARK VINA RESULT: -8.360536644      1.675     11.489
REMARK  10 active torsions:
REMARK  status: ('A' for Active; 'I' for Inactive)
REMARK    1  A    between atoms: C2_2  and  C7_17 
REMARK    2  A    between atoms: N1_3  and  N2_5 
REMARK       I    between atoms: N2_5  and  C3_7 
REMARK    3  A    between atoms: C3_7  and  C4_9 
REMARK    4  A    between atoms: C7_17  and  C8_19 
REMARK    5  A    between atoms: C10_22  and  N5_23 
REMARK    6  A    between atoms: N5_23  and  C11_25 
REMARK    7  A    between atoms: C11_25  and  C12_29 
REMARK    8  A    between atoms: C12_29  and  C13_31 
REMARK    9  A    between atoms: C14_37  and  N9_38 
REMARK   10  A    between atoms: N10_41  and  O6_42 
ROOT
HETATM    1  C8  UNL     1      85.618  35.173  57.197  1.00  0.00     0.123 A 
HETATM    2  C9  UNL     1      84.750  35.451  58.214  1.00  0.00     0.089 A 
HETATM    3  S1  UNL     1      85.769  35.545  59.590  1.00  0.00    -0.061 SA
HETATM    4  C10 UNL     1      87.244  35.229  58.808  1.00  0.00     0.177 A 
HETATM    5  N10 UNL     1      86.906  35.065  57.543  1.00  0.00    -0.197 N 
ENDROOT
BRANCH   1   6
HETATM    6  C7  UNL     1      85.172  34.967  55.800  1.00  0.00     0.225 C 
HETATM    7  O3  UNL     1      84.944  33.795  55.389  1.00  0.00    -0.284 OA
BRANCH   6   8
HETATM    8  C2  UNL     1      84.972  36.027  54.848  1.00  0.00     0.074 C 
HETATM    9  C1  UNL     1      85.446  37.429  55.229  1.00  0.00     0.074 C 
HETATM   10  N1  UNL     1      84.446  35.841  53.747  1.00  0.00    -0.298 N 
ATOM     11  H1  UNL     1      84.191  34.858  53.654  1.00  0.00     0.186 HD
BRANCH  10  12
HETATM   12  N2  UNL     1      84.100  36.502  52.630  1.00  0.00    -0.264 N 
HETATM   13  C3  UNL     1      83.600  36.100  51.395  1.00  0.00     0.288 C 
HETATM   14  O1  UNL     1      83.386  34.916  51.106  1.00  0.00    -0.264 OA
ATOM     15  H2  UNL     1      84.229  37.511  52.703  1.00  0.00     0.190 HD
BRANCH  13  16
HETATM   16  C4  UNL     1      83.297  37.114  50.347  1.00  0.00     0.121 A 
HETATM   17  C5  UNL     1      83.375  36.952  48.982  1.00  0.00     0.128 A 
HETATM   18  N3  UNL     1      82.988  38.125  48.440  1.00  0.00    -0.316 N 
HETATM   19  C6  UNL     1      82.671  39.013  49.380  1.00  0.00     0.324 A 
ATOM     20  H3  UNL     1      82.943  38.308  47.437  1.00  0.00     0.170 HD
HETATM   21  O2  UNL     1      82.266  40.217  49.267  1.00  0.00    -0.247 OA
HETATM   22  N4  UNL     1      82.870  38.361  50.567  1.00  0.00    -0.303 N 
ATOM     23  H4  UNL     1      82.713  38.769  51.489  1.00  0.00     0.171 HD
ENDBRANCH  13  16
ENDBRANCH  10  12
ENDBRANCH   6   8
ENDBRANCH   1   6
BRANCH   5  24
HETATM   24  O6  UNL     1      87.917  34.783  56.579  1.00  0.00    -0.280 OA
ATOM     25  H6  UNL     1      88.268  35.460  56.012  1.00  0.00     0.245 HD
ENDBRANCH   5  24
BRANCH   4  26
HETATM   26  N5  UNL     1      88.447  35.167  59.341  1.00  0.00    -0.318 N 
ATOM     27  H5  UNL     1      88.975  34.315  59.148  1.00  0.00     0.169 HD
BRANCH  26  28
HETATM   28  C11 UNL     1      89.086  36.103  60.127  1.00  0.00     0.154 C 
HETATM   29  N6  UNL     1      89.313  37.324  59.747  1.00  0.00    -0.382 N 
ATOM     30  H62 UNL     1      88.984  37.597  58.821  1.00  0.00     0.157 HD
ATOM     31  H61 UNL     1      89.784  38.017  60.328  1.00  0.00     0.157 HD
BRANCH  28  32
HETATM   32  C12 UNL     1      89.555  35.714  61.447  1.00  0.00     0.247 C 
HETATM   33  O4  UNL     1      88.861  36.026  62.455  1.00  0.00    -0.282 OA
BRANCH  32  34
HETATM   34  C13 UNL     1      90.805  34.977  61.583  1.00  0.00     0.155 A 
HETATM   35  N7  UNL     1      91.321  34.073  60.744  1.00  0.00    -0.234 N 
HETATM   36  O5  UNL     1      92.452  33.630  61.228  1.00  0.00    -0.155 OA
ATOM     37  H7  UNL     1      90.898  33.775  59.864  1.00  0.00     0.197 HD
HETATM   38  N8  UNL     1      92.707  34.212  62.363  1.00  0.00    -0.224 N 
HETATM   39  C14 UNL     1      91.715  35.071  62.649  1.00  0.00     0.154 A 
ATOM     40  H8  UNL     1      93.528  34.043  62.943  1.00  0.00     0.198 HD
BRANCH  39  41
HETATM   41  N9  UNL     1      91.564  35.842  63.655  1.00  0.00    -0.382 N 
ATOM     42  H92 UNL     1      91.515  36.860  63.697  1.00  0.00     0.157 HD
ATOM     43  H91 UNL     1      91.467  35.517  64.617  1.00  0.00     0.157 HD
ENDBRANCH  39  41
ENDBRANCH  32  34
ENDBRANCH  28  32
ENDBRANCH  26  28
ENDBRANCH   4  26
TORSDOF 10
ENDMDL
MODEL 3
REMARK VINA RESULT: -8.311982333      1.849      2.199
REMARK  10 active torsions:
REMARK  status: ('A' for Active; 'I' for Inactive)
REMARK    1  A    between atoms: C2_2  and  C7_17 
REMARK    2  A    between atoms: N1_3  and  N2_5 
REMARK       I    between atoms: N2_5  and  C3_7 
REMARK    3  A    between atoms: C3_7  and  C4_9 
REMARK    4  A    between atoms: C7_17  and  C8_19 
REMARK    5  A    between atoms: C10_22  and  N5_23 
REMARK    6  A    between atoms: N5_23  and  C11_25 
REMARK    7  A    between atoms: C11_25  and  C12_29 
REMARK    8  A    between atoms: C12_29  and  C13_31 
REMARK    9  A    between atoms: C14_37  and  N9_38 
REMARK   10  A    between atoms: N10_41  and  O6_42 
ROOT
HETATM    1  C8  UNL     1      85.527  35.116  55.991  1.00  0.00     0.123 A 
HETATM    2  C9  UNL     1      84.522  34.261  56.343  1.00  0.00     0.089 A 
HETATM    3  S1  UNL     1      83.227  34.730  55.321  1.00  0.00    -0.061 SA
HETATM    4  C10 UNL     1      84.023  35.984  54.498  1.00  0.00     0.177 A 
HETATM    5  N10 UNL     1      85.231  35.997  55.028  1.00  0.00    -0.197 N 
ENDROOT
BRANCH   1   6
HETATM    6  C7  UNL     1      86.854  35.103  56.648  1.00  0.00     0.225 C 
HETATM    7  O3  UNL     1      87.836  34.585  56.049  1.00  0.00    -0.284 OA
BRANCH   6   8
HETATM    8  C2  UNL     1      87.119  35.653  57.951  1.00  0.00     0.074 C 
HETATM    9  C1  UNL     1      86.212  36.777  58.450  1.00  0.00     0.074 C 
HETATM   10  N1  UNL     1      88.034  35.244  58.671  1.00  0.00    -0.298 N 
ATOM     11  H1  UNL     1      88.538  34.499  58.190  1.00  0.00     0.186 HD
BRANCH  10  12
HETATM   12  N2  UNL     1      88.588  35.454  59.876  1.00  0.00    -0.264 N 
HETATM   13  C3  UNL     1      89.808  35.102  60.445  1.00  0.00     0.288 C 
HETATM   14  O1  UNL     1      90.669  34.447  59.844  1.00  0.00    -0.264 OA
ATOM     15  H2  UNL     1      87.987  35.985  60.508  1.00  0.00     0.190 HD
BRANCH  13  16
HETATM   16  C4  UNL     1      90.128  35.516  61.840  1.00  0.00     0.121 A 
HETATM   17  C5  UNL     1      89.412  36.379  62.638  1.00  0.00     0.128 A 
HETATM   18  N3  UNL     1      90.067  36.434  63.817  1.00  0.00    -0.316 N 
HETATM   19  C6  UNL     1      91.150  35.659  63.806  1.00  0.00     0.324 A 
ATOM     20  H3  UNL     1      89.771  36.997  64.614  1.00  0.00     0.170 HD
HETATM   21  O2  UNL     1      92.014  35.447  64.719  1.00  0.00    -0.247 OA
HETATM   22  N4  UNL     1      91.170  35.092  62.560  1.00  0.00    -0.303 N 
ATOM     23  H4  UNL     1      91.880  34.438  62.230  1.00  0.00     0.171 HD
ENDBRANCH  13  16
ENDBRANCH  10  12
ENDBRANCH   6   8
ENDBRANCH   1   6
BRANCH   5  24
HETATM   24  O6  UNL     1      86.191  36.943  54.562  1.00  0.00    -0.280 OA
ATOM     25  H6  UNL     1      85.996  37.872  54.526  1.00  0.00     0.245 HD
ENDBRANCH   5  24
BRANCH   4  26
HETATM   26  N5  UNL     1      83.546  36.761  53.546  1.00  0.00    -0.318 N 
ATOM     27  H5  UNL     1      82.824  37.422  53.834  1.00  0.00     0.169 HD
BRANCH  26  28
HETATM   28  C11 UNL     1      83.896  36.795  52.213  1.00  0.00     0.154 C 
HETATM   29  N6  UNL     1      84.854  37.534  51.741  1.00  0.00    -0.382 N 
ATOM     30  H62 UNL     1      85.378  38.104  52.405  1.00  0.00     0.157 HD
ATOM     31  H61 UNL     1      85.113  37.559  50.755  1.00  0.00     0.157 HD
BRANCH  28  32
HETATM   32  C12 UNL     1      83.148  35.983  51.267  1.00  0.00     0.247 C 
HETATM   33  O4  UNL     1      83.412  34.751  51.183  1.00  0.00    -0.282 OA
BRANCH  32  34
HETATM   34  C13 UNL     1      82.117  36.598  50.441  1.00  0.00     0.155 A 
HETATM   35  N7  UNL     1      80.826  36.780  50.738  1.00  0.00    -0.234 N 
HETATM   36  O5  UNL     1      80.227  37.357  49.728  1.00  0.00    -0.155 OA
ATOM     37  H7  UNL     1      80.379  36.511  51.614  1.00  0.00     0.197 HD
HETATM   38  N8  UNL     1      81.080  37.567  48.768  1.00  0.00    -0.224 N 
HETATM   39  C14 UNL     1      82.287  37.115  49.146  1.00  0.00     0.154 A 
ATOM     40  H8  UNL     1      80.865  38.004  47.872  1.00  0.00     0.198 HD
BRANCH  39  41
HETATM   41  N9  UNL     1      83.397  37.122  48.515  1.00  0.00    -0.382 N 
ATOM     42  H92 UNL     1      84.231  36.552  48.655  1.00  0.00     0.157 HD
ATOM     43  H91 UNL     1      83.609  37.742  47.734  1.00  0.00     0.157 HD
ENDBRANCH  39  41
ENDBRANCH  32  34
ENDBRANCH  28  32
ENDBRANCH  26  28
ENDBRANCH   4  26
TORSDOF 10
ENDMDL
MODEL 4
REMARK VINA RESULT: -8.299111378      2.201      3.025
REMARK  10 active torsions:
REMARK  status: ('A' for Active; 'I' for Inactive)
REMARK    1  A    between atoms: C2_2  and  C7_17 
REMARK    2  A    between atoms: N1_3  and  N2_5 
REMARK       I    between atoms: N2_5  and  C3_7 
REMARK    3  A    between atoms: C3_7  and  C4_9 
REMARK    4  A    between atoms: C7_17  and  C8_19 
REMARK    5  A    between atoms: C10_22  and  N5_23 
REMARK    6  A    between atoms: N5_23  and  C11_25 
REMARK    7  A    between atoms: C11_25  and  C12_29 
REMARK    8  A    between atoms: C12_29  and  C13_31 
REMARK    9  A    between atoms: C14_37  and  N9_38 
REMARK   10  A    between atoms: N10_41  and  O6_42 
ROOT
HETATM    1  C8  UNL     1      85.647  34.589  56.856  1.00  0.00     0.123 A 
HETATM    2  C9  UNL     1      86.326  33.562  56.265  1.00  0.00     0.089 A 
HETATM    3  S1  UNL     1      85.087  32.662  55.493  1.00  0.00    -0.061 SA
HETATM    4  C10 UNL     1      83.772  33.633  55.955  1.00  0.00     0.177 A 
HETATM    5  N10 UNL     1      84.321  34.594  56.673  1.00  0.00    -0.197 N 
ENDROOT
BRANCH   1   6
HETATM    6  C7  UNL     1      86.318  35.621  57.680  1.00  0.00     0.225 C 
HETATM    7  O3  UNL     1      86.266  36.830  57.320  1.00  0.00    -0.284 OA
BRANCH   6   8
HETATM    8  C2  UNL     1      87.042  35.346  58.892  1.00  0.00     0.074 C 
HETATM    9  C1  UNL     1      86.238  35.152  60.177  1.00  0.00     0.074 C 
HETATM   10  N1  UNL     1      88.272  35.253  58.925  1.00  0.00    -0.298 N 
ATOM     11  H1  UNL     1      88.650  35.409  57.990  1.00  0.00     0.186 HD
BRANCH  10  12
HETATM   12  N2  UNL     1      89.279  35.015  59.781  1.00  0.00    -0.264 N 
HETATM   13  C3  UNL     1      89.727  35.652  60.934  1.00  0.00     0.288 C 
HETATM   14  O1  UNL     1      89.197  36.673  61.391  1.00  0.00    -0.264 OA
ATOM     15  H2  UNL     1      89.832  34.194  59.534  1.00  0.00     0.190 HD
BRANCH  13  16
HETATM   16  C4  UNL     1      90.895  35.108  61.681  1.00  0.00     0.121 A 
HETATM   17  C5  UNL     1      91.230  35.350  62.995  1.00  0.00     0.128 A 
HETATM   18  N3  UNL     1      92.347  34.632  63.237  1.00  0.00    -0.316 N 
HETATM   19  C6  UNL     1      92.733  33.955  62.158  1.00  0.00     0.324 A 
ATOM     20  H3  UNL     1      92.833  34.610  64.134  1.00  0.00     0.170 HD
HETATM   21  O2  UNL     1      93.727  33.175  61.992  1.00  0.00    -0.247 OA
HETATM   22  N4  UNL     1      91.810  34.266  61.194  1.00  0.00    -0.303 N 
ATOM     23  H4  UNL     1      91.821  33.904  60.240  1.00  0.00     0.171 HD
ENDBRANCH  13  16
ENDBRANCH  10  12
ENDBRANCH   6   8
ENDBRANCH   1   6
BRANCH   5  24
HETATM   24  O6  UNL     1      83.494  35.612  57.231  1.00  0.00    -0.280 OA
ATOM     25  H6  UNL     1      82.854  36.077  56.705  1.00  0.00     0.245 HD
ENDBRANCH   5  24
BRANCH   4  26
HETATM   26  N5  UNL     1      82.498  33.467  55.661  1.00  0.00    -0.318 N 
ATOM     27  H5  UNL     1      81.978  32.840  56.276  1.00  0.00     0.169 HD
BRANCH  26  28
HETATM   28  C11 UNL     1      81.777  34.030  54.629  1.00  0.00     0.154 C 
HETATM   29  N6  UNL     1      80.918  33.372  53.911  1.00  0.00    -0.382 N 
ATOM     30  H62 UNL     1      80.766  32.391  54.142  1.00  0.00     0.157 HD
ATOM     31  H61 UNL     1      80.384  33.789  53.149  1.00  0.00     0.157 HD
BRANCH  28  32
HETATM   32  C12 UNL     1      81.993  35.430  54.301  1.00  0.00     0.247 C 
HETATM   33  O4  UNL     1      81.373  36.311  54.959  1.00  0.00    -0.282 OA
BRANCH  32  34
HETATM   34  C13 UNL     1      82.913  35.788  53.228  1.00  0.00     0.155 A 
HETATM   35  N7  UNL     1      82.820  35.483  51.930  1.00  0.00    -0.234 N 
HETATM   36  O5  UNL     1      83.851  35.977  51.295  1.00  0.00    -0.155 OA
ATOM     37  H7  UNL     1      82.064  34.948  51.502  1.00  0.00     0.197 HD
HETATM   38  N8  UNL     1      84.627  36.604  52.130  1.00  0.00    -0.224 N 
HETATM   39  C14 UNL     1      84.101  36.526  53.362  1.00  0.00     0.154 A 
ATOM     40  H8  UNL     1      85.496  37.078  51.886  1.00  0.00     0.198 HD
BRANCH  39  41
HETATM   41  N9  UNL     1      84.531  36.999  54.467  1.00  0.00    -0.382 N 
ATOM     42  H92 UNL     1      84.025  37.468  55.219  1.00  0.00     0.157 HD
ATOM     43  H91 UNL     1      85.506  36.966  54.764  1.00  0.00     0.157 HD
ENDBRANCH  39  41
ENDBRANCH  32  34
ENDBRANCH  28  32
ENDBRANCH  26  28
ENDBRANCH   4  26
TORSDOF 10
ENDMDL
MODEL 5
REMARK VINA RESULT: -8.238497518      1.623      2.033
REMARK  10 active torsions:
REMARK  status: ('A' for Active; 'I' for Inactive)
REMARK    1  A    between atoms: C2_2  and  C7_17 
REMARK    2  A    between atoms: N1_3  and  N2_5 
REMARK       I    between atoms: N2_5  and  C3_7 
REMARK    3  A    between atoms: C3_7  and  C4_9 
REMARK    4  A    between atoms: C7_17  and  C8_19 
REMARK    5  A    between atoms: C10_22  and  N5_23 
REMARK    6  A    between atoms: N5_23  and  C11_25 
REMARK    7  A    between atoms: C11_25  and  C12_29 
REMARK    8  A    between atoms: C12_29  and  C13_31 
REMARK    9  A    between atoms: C14_37  and  N9_38 
REMARK   10  A    between atoms: N10_41  and  O6_42 
ROOT
HETATM    1  C8  UNL     1      86.272  36.183  56.207  1.00  0.00     0.123 A 
HETATM    2  C9  UNL     1      86.307  37.522  56.469  1.00  0.00     0.089 A 
HETATM    3  S1  UNL     1      85.176  38.173  55.356  1.00  0.00    -0.061 SA
HETATM    4  C10 UNL     1      84.714  36.716  54.615  1.00  0.00     0.177 A 
HETATM    5  N10 UNL     1      85.432  35.800  55.237  1.00  0.00    -0.197 N 
ENDROOT
BRANCH   1   6
HETATM    6  C7  UNL     1      87.129  35.206  56.918  1.00  0.00     0.225 C 
HETATM    7  O3  UNL     1      87.722  34.308  56.260  1.00  0.00    -0.284 OA
BRANCH   6   8
HETATM    8  C2  UNL     1      87.345  35.203  58.341  1.00  0.00     0.074 C 
HETATM    9  C1  UNL     1      86.137  34.972  59.247  1.00  0.00     0.074 C 
HETATM   10  N1  UNL     1      88.460  35.370  58.843  1.00  0.00    -0.298 N 
ATOM     11  H1  UNL     1      89.149  35.510  58.104  1.00  0.00     0.186 HD
BRANCH  10  12
HETATM   12  N2  UNL     1      89.069  35.427  60.039  1.00  0.00    -0.264 N 
HETATM   13  C3  UNL     1      90.192  34.803  60.574  1.00  0.00     0.288 C 
HETATM   14  O1  UNL     1      90.877  33.989  59.942  1.00  0.00    -0.264 OA
ATOM     15  H2  UNL     1      88.611  36.062  60.693  1.00  0.00     0.190 HD
BRANCH  13  16
HETATM   16  C4  UNL     1      90.621  35.106  61.967  1.00  0.00     0.121 A 
HETATM   17  C5  UNL     1      91.847  34.845  62.537  1.00  0.00     0.128 A 
HETATM   18  N3  UNL     1      91.782  35.311  63.802  1.00  0.00    -0.316 N 
HETATM   19  C6  UNL     1      90.592  35.848  64.060  1.00  0.00     0.324 A 
ATOM     20  H3  UNL     1      92.548  35.258  64.474  1.00  0.00     0.170 HD
HETATM   21  O2  UNL     1      90.151  36.387  65.128  1.00  0.00    -0.247 OA
HETATM   22  N4  UNL     1      89.880  35.712  62.899  1.00  0.00    -0.303 N 
ATOM     23  H4  UNL     1      88.919  36.028  62.764  1.00  0.00     0.171 HD
ENDBRANCH  13  16
ENDBRANCH  10  12
ENDBRANCH   6   8
ENDBRANCH   1   6
BRANCH   5  24
HETATM   24  O6  UNL     1      85.294  34.430  54.867  1.00  0.00    -0.280 OA
ATOM     25  H6  UNL     1      84.560  33.906  55.165  1.00  0.00     0.245 HD
ENDBRANCH   5  24
BRANCH   4  26
HETATM   26  N5  UNL     1      83.838  36.540  53.647  1.00  0.00    -0.318 N 
ATOM     27  H5  UNL     1      82.898  36.272  53.941  1.00  0.00     0.169 HD
BRANCH  26  28
HETATM   28  C11 UNL     1      84.027  36.672  52.287  1.00  0.00     0.154 C 
HETATM   29  N6  UNL     1      84.916  37.457  51.759  1.00  0.00    -0.382 N 
ATOM     30  H62 UNL     1      85.510  37.989  52.394  1.00  0.00     0.157 HD
ATOM     31  H61 UNL     1      85.056  37.554  50.753  1.00  0.00     0.157 HD
BRANCH  28  32
HETATM   32  C12 UNL     1      83.179  35.914  51.382  1.00  0.00     0.247 C 
HETATM   33  O4  UNL     1      83.327  34.661  51.316  1.00  0.00    -0.282 OA
BRANCH  32  34
HETATM   34  C13 UNL     1      82.183  36.605  50.573  1.00  0.00     0.155 A 
HETATM   35  N7  UNL     1      80.917  36.891  50.895  1.00  0.00    -0.234 N 
HETATM   36  O5  UNL     1      80.345  37.509  49.894  1.00  0.00    -0.155 OA
ATOM     37  H7  UNL     1      80.468  36.662  51.782  1.00  0.00     0.197 HD
HETATM   38  N8  UNL     1      81.191  37.645  48.916  1.00  0.00    -0.224 N 
HETATM   39  C14 UNL     1      82.365  37.101  49.271  1.00  0.00     0.154 A 
ATOM     40  H8  UNL     1      80.993  38.094  48.022  1.00  0.00     0.198 HD
BRANCH  39  41
HETATM   41  N9  UNL     1      83.459  37.016  48.618  1.00  0.00    -0.382 N 
ATOM     42  H92 UNL     1      84.334  37.527  48.739  1.00  0.00     0.157 HD
ATOM     43  H91 UNL     1      83.612  36.382  47.834  1.00  0.00     0.157 HD
ENDBRANCH  39  41
ENDBRANCH  32  34
ENDBRANCH  28  32
ENDBRANCH  26  28
ENDBRANCH   4  26
TORSDOF 10
ENDMDL
