MODEL 1
REMARK VINA RESULT: -8.839877608      0.000      0.000
REMARK  9 active torsions:
REMARK  status: ('A' for Active; 'I' for Inactive)
REMARK    1  A    between atoms: C1_2  and  C2_4 
REMARK    2  A    between atoms: C2_4  and  N2_5 
REMARK    3  A    between atoms: C2_4  and  N3_9 
REMARK    4  A    between atoms: N3_9  and  N4_11 
REMARK    5  A    between atoms: N5_13  and  C3_15 
REMARK    6  A    between atoms: C4_16  and  C5_17 
REMARK    7  A    between atoms: N8_23  and  N9_25 
REMARK    8  A    between atoms: C7_27  and  C8_28 
REMARK    9  A    between atoms: C11_31  and  O2_32 
ROOT
HETATM    1  C3  UNL     1      85.783  35.923  56.205  1.00  0.00     0.147 A 
HETATM    2  C4  UNL     1      86.414  35.355  57.284  1.00  0.00     0.105 A 
HETATM    3  N10 UNL     1      86.301  34.031  57.450  1.00  0.00    -0.304 N 
ATOM      4  H10 UNL     1      86.758  33.577  58.242  1.00  0.00     0.171 HD
HETATM    5  C14 UNL     1      85.577  33.284  56.562  1.00  0.00     0.327 A 
HETATM    6  O3  UNL     1      85.486  32.028  56.744  1.00  0.00    -0.247 OA
HETATM    7  N11 UNL     1      84.950  33.811  55.500  1.00  0.00    -0.273 N 
ATOM      8  H11 UNL     1      84.418  33.224  54.858  1.00  0.00     0.173 HD
HETATM    9  C15 UNL     1      85.046  35.137  55.308  1.00  0.00     0.280 A 
HETATM   10  O4  UNL     1      84.481  35.670  54.335  1.00  0.00    -0.265 OA
ENDROOT
BRANCH   2  11
HETATM   11  C5  UNL     1      87.180  36.187  58.212  1.00  0.00     0.122 A 
HETATM   12  N6  UNL     1      87.942  37.237  57.996  1.00  0.00    -0.290 N 
HETATM   13  N7  UNL     1      88.528  37.826  58.952  1.00  0.00    -0.278 N 
ATOM     14  H6  UNL     1      88.062  37.582  57.043  1.00  0.00     0.188 HD
HETATM   15  C6  UNL     1      88.361  37.362  60.194  1.00  0.00     0.180 A 
ATOM     16  H7  UNL     1      89.117  38.640  58.777  1.00  0.00     0.189 HD
HETATM   17  N8  UNL     1      88.878  37.828  61.305  1.00  0.00    -0.279 N 
HETATM   18  S1  UNL     1      87.319  36.036  59.933  1.00  0.00    -0.030 SA
ATOM     19  H8  UNL     1      89.488  38.644  61.264  1.00  0.00     0.189 HD
BRANCH  17  20
HETATM   20  N9  UNL     1      88.625  37.260  62.500  1.00  0.00    -0.309 N 
HETATM   21  C7  UNL     1      89.164  36.381  63.186  1.00  0.00     0.118 C 
ATOM     22  H9  UNL     1      87.792  37.645  62.946  1.00  0.00     0.186 HD
BRANCH  21  23
HETATM   23  C8  UNL     1      90.347  35.633  62.863  1.00  0.00    -0.019 A 
HETATM   24  C9  UNL     1      90.633  35.032  61.657  1.00  0.00     0.015 A 
HETATM   25  C10 UNL     1      91.805  34.319  61.411  1.00  0.00     0.037 A 
HETATM   26  C11 UNL     1      92.715  34.216  62.429  1.00  0.00     0.065 A 
HETATM   27  C12 UNL     1      92.494  34.796  63.668  1.00  0.00     0.037 A 
HETATM   28  C13 UNL     1      91.325  35.483  63.847  1.00  0.00     0.015 A 
BRANCH  26  29
HETATM   29  O2  UNL     1      93.887  33.516  62.216  1.00  0.00    -0.361 OA
ATOM     30  H2  UNL     1      94.512  33.432  62.927  1.00  0.00     0.217 HD
ENDBRANCH  26  29
ENDBRANCH  21  23
ENDBRANCH  17  20
ENDBRANCH   2  11
BRANCH   1  31
HETATM   31  N5  UNL     1      85.903  37.322  56.032  1.00  0.00    -0.279 N 
HETATM   32  N4  UNL     1      86.625  37.730  55.071  1.00  0.00    -0.244 N 
ATOM     33  H4  UNL     1      87.075  37.029  54.483  1.00  0.00     0.208 HD
ATOM     34  H5  UNL     1      85.427  37.976  56.653  1.00  0.00     0.189 HD
BRANCH  32  35
HETATM   35  N3  UNL     1      86.842  39.059  54.772  1.00  0.00    -0.284 N 
ATOM     36  H3  UNL     1      86.026  39.657  54.644  1.00  0.00     0.184 HD
BRANCH  35  37
HETATM   37  C2  UNL     1      88.149  39.657  54.626  1.00  0.00     0.387 C 
BRANCH  37  38
HETATM   38  C1  UNL     1      89.192  38.756  55.168  1.00  0.00     0.282 C 
HETATM   39  N1  UNL     1      89.878  39.110  56.349  1.00  0.00    -0.059 NA
HETATM   40  O1  UNL     1      89.468  37.692  54.590  1.00  0.00    -0.273 OA
ENDBRANCH  37  38
BRANCH  37  41
HETATM   41  N2  UNL     1      88.196  40.923  55.342  1.00  0.00    -0.049 N 
ATOM     42  H23 UNL     1      87.407  41.040  55.977  1.00  0.00     0.277 HD
ATOM     43  H22 UNL     1      88.943  40.948  56.036  1.00  0.00     0.277 HD
ATOM     44  H21 UNL     1      88.268  41.684  54.667  1.00  0.00     0.277 HD
ENDBRANCH  37  41
ENDBRANCH  35  37
ENDBRANCH  32  35
ENDBRANCH   1  31
TORSDOF 9
ENDMDL
MODEL 2
REMARK VINA RESULT: -8.795376829      2.086      4.690
REMARK  9 active torsions:
REMARK  status: ('A' for Active; 'I' for Inactive)
REMARK    1  A    between atoms: C1_2  and  C2_4 
REMARK    2  A    between atoms: C2_4  and  N2_5 
REMARK    3  A    between atoms: C2_4  and  N3_9 
REMARK    4  A    between atoms: N3_9  and  N4_11 
REMARK    5  A    between atoms: N5_13  and  C3_15 
REMARK    6  A    between atoms: C4_16  and  C5_17 
REMARK    7  A    between atoms: N8_23  and  N9_25 
REMARK    8  A    between atoms: C7_27  and  C8_28 
REMARK    9  A    between atoms: C11_31  and  O2_32 
ROOT
HETATM    1  C3  UNL     1      84.956  37.601  54.854  1.00  0.00     0.147 A 
HETATM    2  C4  UNL     1      86.301  37.576  55.125  1.00  0.00     0.105 A 
HETATM    3  N10 UNL     1      87.098  38.390  54.418  1.00  0.00    -0.304 N 
ATOM      4  H10 UNL     1      88.103  38.396  54.594  1.00  0.00     0.171 HD
HETATM    5  C14 UNL     1      86.569  39.212  53.462  1.00  0.00     0.327 A 
HETATM    6  O3  UNL     1      87.348  39.974  52.806  1.00  0.00    -0.247 OA
HETATM    7  N11 UNL     1      85.259  39.257  53.177  1.00  0.00    -0.273 N 
ATOM      8  H11 UNL     1      84.899  39.882  52.455  1.00  0.00     0.173 HD
HETATM    9  C15 UNL     1      84.436  38.453  53.869  1.00  0.00     0.280 A 
HETATM   10  O4  UNL     1      83.213  38.461  53.638  1.00  0.00    -0.265 OA
ENDROOT
BRANCH   2  11
HETATM   11  C5  UNL     1      86.830  36.683  56.155  1.00  0.00     0.122 A 
HETATM   12  N6  UNL     1      87.184  35.418  56.096  1.00  0.00    -0.290 N 
HETATM   13  N7  UNL     1      87.627  34.815  57.119  1.00  0.00    -0.278 N 
ATOM     14  H6  UNL     1      87.102  34.914  55.213  1.00  0.00     0.188 HD
HETATM   15  C6  UNL     1      87.728  35.487  58.269  1.00  0.00     0.180 A 
ATOM     16  H7  UNL     1      87.900  33.834  57.065  1.00  0.00     0.189 HD
HETATM   17  N8  UNL     1      88.158  35.046  59.427  1.00  0.00    -0.279 N 
HETATM   18  S1  UNL     1      87.160  37.033  57.820  1.00  0.00    -0.030 SA
ATOM     19  H8  UNL     1      88.462  34.075  59.504  1.00  0.00     0.189 HD
BRANCH  17  20
HETATM   20  N9  UNL     1      88.208  35.836  60.516  1.00  0.00    -0.309 N 
HETATM   21  C7  UNL     1      89.017  36.012  61.437  1.00  0.00     0.118 C 
ATOM     22  H9  UNL     1      87.384  36.432  60.603  1.00  0.00     0.186 HD
BRANCH  21  23
HETATM   23  C8  UNL     1      90.275  35.345  61.624  1.00  0.00    -0.019 A 
HETATM   24  C9  UNL     1      90.932  34.559  60.703  1.00  0.00     0.015 A 
HETATM   25  C10 UNL     1      92.155  33.939  60.953  1.00  0.00     0.037 A 
HETATM   26  C11 UNL     1      92.726  34.126  62.183  1.00  0.00     0.065 A 
HETATM   27  C12 UNL     1      92.122  34.903  63.159  1.00  0.00     0.037 A 
HETATM   28  C13 UNL     1      90.923  35.486  62.853  1.00  0.00     0.015 A 
BRANCH  26  29
HETATM   29  O2  UNL     1      93.938  33.525  62.461  1.00  0.00    -0.361 OA
ATOM     30  H2  UNL     1      94.247  33.499  63.359  1.00  0.00     0.217 HD
ENDBRANCH  26  29
ENDBRANCH  21  23
ENDBRANCH  17  20
ENDBRANCH   2  11
BRANCH   1  31
HETATM   31  N5  UNL     1      84.117  36.741  55.601  1.00  0.00    -0.279 N 
HETATM   32  N4  UNL     1      83.392  35.927  54.953  1.00  0.00    -0.244 N 
ATOM     33  H4  UNL     1      83.455  35.939  53.934  1.00  0.00     0.208 HD
ATOM     34  H5  UNL     1      84.097  36.774  56.620  1.00  0.00     0.189 HD
BRANCH  32  35
HETATM   35  N3  UNL     1      82.524  35.026  55.533  1.00  0.00    -0.284 N 
ATOM     36  H3  UNL     1      81.778  35.396  56.123  1.00  0.00     0.184 HD
BRANCH  35  37
HETATM   37  C2  UNL     1      82.602  33.594  55.360  1.00  0.00     0.387 C 
BRANCH  37  38
HETATM   38  C1  UNL     1      83.992  33.125  55.562  1.00  0.00     0.282 C 
HETATM   39  N1  UNL     1      84.772  33.676  56.602  1.00  0.00    -0.059 NA
HETATM   40  O1  UNL     1      84.477  32.252  54.824  1.00  0.00    -0.273 OA
ENDBRANCH  37  38
BRANCH  37  41
HETATM   41  N2  UNL     1      82.168  33.232  54.020  1.00  0.00    -0.049 N 
ATOM     42  H23 UNL     1      82.797  32.563  53.576  1.00  0.00     0.277 HD
ATOM     43  H22 UNL     1      81.328  32.654  54.027  1.00  0.00     0.277 HD
ATOM     44  H21 UNL     1      82.050  34.081  53.467  1.00  0.00     0.277 HD
ENDBRANCH  37  41
ENDBRANCH  35  37
ENDBRANCH  32  35
ENDBRANCH   1  31
TORSDOF 9
ENDMDL
MODEL 3
REMARK VINA RESULT: -8.789360582      1.748      4.410
REMARK  9 active torsions:
REMARK  status: ('A' for Active; 'I' for Inactive)
REMARK    1  A    between atoms: C1_2  and  C2_4 
REMARK    2  A    between atoms: C2_4  and  N2_5 
REMARK    3  A    between atoms: C2_4  and  N3_9 
REMARK    4  A    between atoms: N3_9  and  N4_11 
REMARK    5  A    between atoms: N5_13  and  C3_15 
REMARK    6  A    between atoms: C4_16  and  C5_17 
REMARK    7  A    between atoms: N8_23  and  N9_25 
REMARK    8  A    between atoms: C7_27  and  C8_28 
REMARK    9  A    between atoms: C11_31  and  O2_32 
ROOT
HETATM    1  C3  UNL     1      86.320  37.685  55.479  1.00  0.00     0.147 A 
HETATM    2  C4  UNL     1      87.053  38.777  55.870  1.00  0.00     0.105 A 
HETATM    3  N10 UNL     1      86.956  39.893  55.135  1.00  0.00    -0.304 N 
ATOM      4  H10 UNL     1      87.488  40.723  55.398  1.00  0.00     0.171 HD
HETATM    5  C14 UNL     1      86.147  39.924  54.033  1.00  0.00     0.327 A 
HETATM    6  O3  UNL     1      86.074  40.996  53.352  1.00  0.00    -0.247 OA
HETATM    7  N11 UNL     1      85.419  38.872  53.627  1.00  0.00    -0.273 N 
ATOM      8  H11 UNL     1      84.827  38.931  52.799  1.00  0.00     0.173 HD
HETATM    9  C15 UNL     1      85.496  37.740  54.345  1.00  0.00     0.280 A 
HETATM   10  O4  UNL     1      84.839  36.739  54.006  1.00  0.00    -0.265 OA
ENDROOT
BRANCH   2  11
HETATM   11  C5  UNL     1      87.908  38.706  57.055  1.00  0.00     0.122 A 
HETATM   12  N6  UNL     1      89.077  39.253  57.305  1.00  0.00    -0.290 N 
HETATM   13  N7  UNL     1      89.663  39.065  58.412  1.00  0.00    -0.278 N 
ATOM     14  H6  UNL     1      89.520  39.837  56.595  1.00  0.00     0.188 HD
HETATM   15  C6  UNL     1      89.072  38.297  59.332  1.00  0.00     0.180 A 
ATOM     16  H7  UNL     1      90.570  39.493  58.599  1.00  0.00     0.189 HD
HETATM   17  N8  UNL     1      89.512  37.984  60.527  1.00  0.00    -0.279 N 
HETATM   18  S1  UNL     1      87.629  37.851  58.537  1.00  0.00    -0.030 SA
ATOM     19  H8  UNL     1      90.412  38.352  60.834  1.00  0.00     0.189 HD
BRANCH  17  20
HETATM   20  N9  UNL     1      88.809  37.193  61.359  1.00  0.00    -0.309 N 
HETATM   21  C7  UNL     1      89.050  36.163  62.005  1.00  0.00     0.118 C 
ATOM     22  H9  UNL     1      87.851  37.518  61.490  1.00  0.00     0.186 HD
BRANCH  21  23
HETATM   23  C8  UNL     1      90.290  35.440  62.051  1.00  0.00    -0.019 A 
HETATM   24  C9  UNL     1      90.816  34.650  61.053  1.00  0.00     0.015 A 
HETATM   25  C10 UNL     1      92.029  33.974  61.166  1.00  0.00     0.037 A 
HETATM   26  C11 UNL     1      92.729  34.109  62.335  1.00  0.00     0.065 A 
HETATM   27  C12 UNL     1      92.262  34.889  63.381  1.00  0.00     0.037 A 
HETATM   28  C13 UNL     1      91.065  35.527  63.210  1.00  0.00     0.015 A 
BRANCH  26  29
HETATM   29  O2  UNL     1      93.936  33.453  62.477  1.00  0.00    -0.361 OA
ATOM     30  H2  UNL     1      94.636  33.630  61.858  1.00  0.00     0.217 HD
ENDBRANCH  26  29
ENDBRANCH  21  23
ENDBRANCH  17  20
ENDBRANCH   2  11
BRANCH   1  31
HETATM   31  N5  UNL     1      86.424  36.508  56.257  1.00  0.00    -0.279 N 
HETATM   32  N4  UNL     1      86.684  35.427  55.646  1.00  0.00    -0.244 N 
ATOM     33  H4  UNL     1      86.802  35.469  54.633  1.00  0.00     0.208 HD
ATOM     34  H5  UNL     1      86.295  36.528  57.268  1.00  0.00     0.189 HD
BRANCH  32  35
HETATM   35  N3  UNL     1      86.817  34.199  56.259  1.00  0.00    -0.284 N 
ATOM     36  H3  UNL     1      87.759  33.831  56.390  1.00  0.00     0.184 HD
BRANCH  35  37
HETATM   37  C2  UNL     1      85.708  33.400  56.729  1.00  0.00     0.387 C 
BRANCH  37  38
HETATM   38  C1  UNL     1      85.591  32.160  55.928  1.00  0.00     0.282 C 
HETATM   39  N1  UNL     1      85.346  30.929  56.575  1.00  0.00    -0.059 NA
HETATM   40  O1  UNL     1      85.708  32.193  54.692  1.00  0.00    -0.273 OA
ENDBRANCH  37  38
BRANCH  37  41
HETATM   41  N2  UNL     1      84.470  34.156  56.618  1.00  0.00    -0.049 N 
ATOM     42  H23 UNL     1      84.538  35.077  57.050  1.00  0.00     0.277 HD
ATOM     43  H22 UNL     1      84.285  34.459  55.662  1.00  0.00     0.277 HD
ATOM     44  H21 UNL     1      83.706  33.601  57.004  1.00  0.00     0.277 HD
ENDBRANCH  37  41
ENDBRANCH  35  37
ENDBRANCH  32  35
ENDBRANCH   1  31
TORSDOF 9
ENDMDL
MODEL 4
REMARK VINA RESULT: -8.720219699      1.005      1.021
REMARK  9 active torsions:
REMARK  status: ('A' for Active; 'I' for Inactive)
REMARK    1  A    between atoms: C1_2  and  C2_4 
REMARK    2  A    between atoms: C2_4  and  N2_5 
REMARK    3  A    between atoms: C2_4  and  N3_9 
REMARK    4  A    between atoms: N3_9  and  N4_11 
REMARK    5  A    between atoms: N5_13  and  C3_15 
REMARK    6  A    between atoms: C4_16  and  C5_17 
REMARK    7  A    between atoms: N8_23  and  N9_25 
REMARK    8  A    between atoms: C7_27  and  C8_28 
REMARK    9  A    between atoms: C11_31  and  O2_32 
ROOT
HETATM    1  C3  UNL     1      85.215  35.370  56.145  1.00  0.00     0.147 A 
HETATM    2  C4  UNL     1      86.056  34.837  57.090  1.00  0.00     0.105 A 
HETATM    3  N10 UNL     1      86.103  33.503  57.207  1.00  0.00    -0.304 N 
ATOM      4  H10 UNL     1      86.717  33.075  57.900  1.00  0.00     0.171 HD
HETATM    5  C14 UNL     1      85.330  32.714  56.402  1.00  0.00     0.327 A 
HETATM    6  O3  UNL     1      85.392  31.450  56.536  1.00  0.00    -0.247 OA
HETATM    7  N11 UNL     1      84.499  33.206  55.471  1.00  0.00    -0.273 N 
ATOM      8  H11 UNL     1      83.935  32.587  54.889  1.00  0.00     0.173 HD
HETATM    9  C15 UNL     1      84.432  34.540  55.331  1.00  0.00     0.280 A 
HETATM   10  O4  UNL     1      83.674  35.041  54.479  1.00  0.00    -0.265 OA
ENDROOT
BRANCH   2  11
HETATM   11  C5  UNL     1      86.869  35.715  57.932  1.00  0.00     0.122 A 
HETATM   12  N6  UNL     1      87.656  36.720  57.618  1.00  0.00    -0.290 N 
HETATM   13  N7  UNL     1      88.283  37.364  58.511  1.00  0.00    -0.278 N 
ATOM     14  H6  UNL     1      87.764  36.985  56.639  1.00  0.00     0.188 HD
HETATM   15  C6  UNL     1      88.132  37.004  59.790  1.00  0.00     0.180 A 
ATOM     16  H7  UNL     1      88.891  38.143  58.260  1.00  0.00     0.189 HD
HETATM   17  N8  UNL     1      88.688  37.539  60.849  1.00  0.00    -0.279 N 
HETATM   18  S1  UNL     1      87.045  35.695  59.657  1.00  0.00    -0.030 SA
ATOM     19  H8  UNL     1      89.321  38.330  60.730  1.00  0.00     0.189 HD
BRANCH  17  20
HETATM   20  N9  UNL     1      88.448  37.074  62.090  1.00  0.00    -0.309 N 
HETATM   21  C7  UNL     1      89.020  36.293  62.862  1.00  0.00     0.118 C 
ATOM     22  H9  UNL     1      87.590  37.457  62.490  1.00  0.00     0.186 HD
BRANCH  21  23
HETATM   23  C8  UNL     1      90.243  35.579  62.622  1.00  0.00    -0.019 A 
HETATM   24  C9  UNL     1      90.604  34.940  61.457  1.00  0.00     0.015 A 
HETATM   25  C10 UNL     1      91.812  34.264  61.293  1.00  0.00     0.037 A 
HETATM   26  C11 UNL     1      92.679  34.239  62.352  1.00  0.00     0.065 A 
HETATM   27  C12 UNL     1      92.382  34.860  63.555  1.00  0.00     0.037 A 
HETATM   28  C13 UNL     1      91.182  35.508  63.654  1.00  0.00     0.015 A 
BRANCH  26  29
HETATM   29  O2  UNL     1      93.884  33.577  62.220  1.00  0.00    -0.361 OA
ATOM     30  H2  UNL     1      94.693  34.052  62.373  1.00  0.00     0.217 HD
ENDBRANCH  26  29
ENDBRANCH  21  23
ENDBRANCH  17  20
ENDBRANCH   2  11
BRANCH   1  31
HETATM   31  N5  UNL     1      85.168  36.778  56.023  1.00  0.00    -0.279 N 
HETATM   32  N4  UNL     1      85.576  37.282  54.932  1.00  0.00    -0.244 N 
ATOM     33  H4  UNL     1      85.913  36.646  54.210  1.00  0.00     0.208 HD
ATOM     34  H5  UNL     1      84.820  37.365  56.781  1.00  0.00     0.189 HD
BRANCH  32  35
HETATM   35  N3  UNL     1      85.594  38.634  54.659  1.00  0.00    -0.284 N 
ATOM     36  H3  UNL     1      84.702  39.127  54.632  1.00  0.00     0.184 HD
BRANCH  35  37
HETATM   37  C2  UNL     1      86.795  39.397  54.409  1.00  0.00     0.387 C 
BRANCH  37  38
HETATM   38  C1  UNL     1      87.866  38.998  55.351  1.00  0.00     0.282 C 
HETATM   39  N1  UNL     1      88.649  37.856  55.078  1.00  0.00    -0.059 NA
HETATM   40  O1  UNL     1      88.080  39.660  56.380  1.00  0.00    -0.273 OA
ENDBRANCH  37  38
BRANCH  37  41
HETATM   41  N2  UNL     1      86.523  40.817  54.572  1.00  0.00    -0.049 N 
ATOM     42  H23 UNL     1      86.161  41.243  53.719  1.00  0.00     0.277 HD
ATOM     43  H22 UNL     1      85.717  40.991  55.172  1.00  0.00     0.277 HD
ATOM     44  H21 UNL     1      87.367  41.281  54.911  1.00  0.00     0.277 HD
ENDBRANCH  37  41
ENDBRANCH  35  37
ENDBRANCH  32  35
ENDBRANCH   1  31
TORSDOF 9
ENDMDL
MODEL 5
REMARK VINA RESULT: -8.579984247      1.622      4.343
REMARK  9 active torsions:
REMARK  status: ('A' for Active; 'I' for Inactive)
REMARK    1  A    between atoms: C1_2  and  C2_4 
REMARK    2  A    between atoms: C2_4  and  N2_5 
REMARK    3  A    between atoms: C2_4  and  N3_9 
REMARK    4  A    between atoms: N3_9  and  N4_11 
REMARK    5  A    between atoms: N5_13  and  C3_15 
REMARK    6  A    between atoms: C4_16  and  C5_17 
REMARK    7  A    between atoms: N8_23  and  N9_25 
REMARK    8  A    between atoms: C7_27  and  C8_28 
REMARK    9  A    between atoms: C11_31  and  O2_32 
ROOT
HETATM    1  C3  UNL     1      85.929  37.156  55.508  1.00  0.00     0.147 A 
HETATM    2  C4  UNL     1      87.059  37.140  56.286  1.00  0.00     0.105 A 
HETATM    3  N10 UNL     1      88.147  37.772  55.825  1.00  0.00    -0.304 N 
ATOM      4  H10 UNL     1      89.004  37.779  56.379  1.00  0.00     0.171 HD
HETATM    5  C14 UNL     1      88.112  38.410  54.616  1.00  0.00     0.327 A 
HETATM    6  O3  UNL     1      89.159  39.002  54.202  1.00  0.00    -0.247 OA
HETATM    7  N11 UNL     1      87.022  38.442  53.835  1.00  0.00    -0.273 N 
ATOM      8  H11 UNL     1      87.033  38.927  52.937  1.00  0.00     0.173 HD
HETATM    9  C15 UNL     1      85.917  37.816  54.271  1.00  0.00     0.280 A 
HETATM   10  O4  UNL     1      84.882  37.821  53.579  1.00  0.00    -0.265 OA
ENDROOT
BRANCH   2  11
HETATM   11  C5  UNL     1      87.058  36.447  57.574  1.00  0.00     0.122 A 
HETATM   12  N6  UNL     1      86.658  35.237  57.899  1.00  0.00    -0.290 N 
HETATM   13  N7  UNL     1      86.742  34.819  59.092  1.00  0.00    -0.278 N 
ATOM     14  H6  UNL     1      86.273  34.625  57.178  1.00  0.00     0.188 HD
HETATM   15  C6  UNL     1      87.247  35.631  60.025  1.00  0.00     0.180 A 
ATOM     16  H7  UNL     1      86.430  33.879  59.336  1.00  0.00     0.189 HD
HETATM   17  N8  UNL     1      87.415  35.387  61.302  1.00  0.00    -0.279 N 
HETATM   18  S1  UNL     1      87.599  37.031  59.114  1.00  0.00    -0.030 SA
ATOM     19  H8  UNL     1      87.141  34.477  61.672  1.00  0.00     0.189 HD
BRANCH  17  20
HETATM   20  N9  UNL     1      87.940  36.303  62.138  1.00  0.00    -0.309 N 
HETATM   21  C7  UNL     1      89.054  36.495  62.644  1.00  0.00     0.118 C 
ATOM     22  H9  UNL     1      87.257  37.006  62.423  1.00  0.00     0.186 HD
BRANCH  21  23
HETATM   23  C8  UNL     1      90.237  35.702  62.460  1.00  0.00    -0.019 A 
HETATM   24  C9  UNL     1      90.609  35.038  61.311  1.00  0.00     0.015 A 
HETATM   25  C10 UNL     1      91.775  34.284  61.201  1.00  0.00     0.037 A 
HETATM   26  C11 UNL     1      92.590  34.205  62.299  1.00  0.00     0.065 A 
HETATM   27  C12 UNL     1      92.279  34.846  63.488  1.00  0.00     0.037 A 
HETATM   28  C13 UNL     1      91.121  35.571  63.533  1.00  0.00     0.015 A 
BRANCH  26  29
HETATM   29  O2  UNL     1      93.754  33.465  62.221  1.00  0.00    -0.361 OA
ATOM     30  H2  UNL     1      94.580  33.875  62.453  1.00  0.00     0.217 HD
ENDBRANCH  26  29
ENDBRANCH  21  23
ENDBRANCH  17  20
ENDBRANCH   2  11
BRANCH   1  31
HETATM   31  N5  UNL     1      84.782  36.488  55.996  1.00  0.00    -0.279 N 
HETATM   32  N4  UNL     1      84.235  35.635  55.232  1.00  0.00    -0.244 N 
ATOM     33  H4  UNL     1      84.652  35.483  54.313  1.00  0.00     0.208 HD
ATOM     34  H5  UNL     1      84.411  36.682  56.926  1.00  0.00     0.189 HD
BRANCH  32  35
HETATM   35  N3  UNL     1      83.114  34.902  55.560  1.00  0.00    -0.284 N 
ATOM     36  H3  UNL     1      82.307  35.405  55.928  1.00  0.00     0.184 HD
BRANCH  35  37
HETATM   37  C2  UNL     1      83.009  33.468  55.418  1.00  0.00     0.387 C 
BRANCH  37  38
HETATM   38  C1  UNL     1      84.350  32.844  55.487  1.00  0.00     0.282 C 
HETATM   39  N1  UNL     1      85.186  33.103  56.595  1.00  0.00    -0.059 NA
HETATM   40  O1  UNL     1      84.745  32.094  54.579  1.00  0.00    -0.273 OA
ENDBRANCH  37  38
BRANCH  37  41
HETATM   41  N2  UNL     1      82.398  33.141  54.139  1.00  0.00    -0.049 N 
ATOM     42  H23 UNL     1      81.827  33.903  53.775  1.00  0.00     0.277 HD
ATOM     43  H22 UNL     1      83.081  33.099  53.382  1.00  0.00     0.277 HD
ATOM     44  H21 UNL     1      81.871  32.272  54.235  1.00  0.00     0.277 HD
ENDBRANCH  37  41
ENDBRANCH  35  37
ENDBRANCH  32  35
ENDBRANCH   1  31
TORSDOF 9
ENDMDL
