MODEL 1
REMARK VINA RESULT: -6.797259061      0.000      0.000
REMARK  13 active torsions:
REMARK  status: ('A' for Active; 'I' for Inactive)
REMARK    1  A    between atoms: C4_4  and  C5_5 
REMARK    2  A    between atoms: C7_8  and  O2_9 
REMARK    3  A    between atoms: C7_8  and  C8_11 
REMARK    4  A    between atoms: C8_11  and  O3_12 
REMARK    5  A    between atoms: C13_20  and  O6_21 
REMARK    6  A    between atoms: C13_20  and  C14_23 
REMARK    7  A    between atoms: C14_23  and  O8_25 
REMARK    8  A    between atoms: O8_25  and  C15_26 
REMARK    9  A    between atoms: C15_26  and  C16_27 
REMARK   10  A    between atoms: C16_27  and  C17_28 
REMARK   11  A    between atoms: C19_30  and  O9_31 
REMARK   12  A    between atoms: C20_33  and  O10_34 
REMARK   13  A    between atoms: C20_33  and  O11_36 
ROOT
HETATM    1  C1  UNL     1      84.221  35.719  60.475  1.00  0.00     0.036 C 
HETATM    2  C2  UNL     1      84.226  35.834  59.012  1.00  0.00    -0.024 C 
HETATM    3  C3  UNL     1      85.177  35.878  58.136  1.00  0.00    -0.035 C 
HETATM    4  C4  UNL     1      86.626  35.853  57.991  1.00  0.00     0.123 C 
HETATM    5  C7  UNL     1      86.837  37.122  57.153  1.00  0.00     0.096 C 
HETATM    6  C9  UNL     1      85.558  37.243  56.302  1.00  0.00     0.084 C 
HETATM    7  C10 UNL     1      84.805  35.999  56.614  1.00  0.00     0.097 C 
HETATM    8  C11 UNL     1      85.154  34.768  55.853  1.00  0.00     0.117 C 
HETATM    9  C12 UNL     1      83.748  34.998  55.343  1.00  0.00     0.232 C 
HETATM   10  O4  UNL     1      83.473  35.927  56.373  1.00  0.00    -0.334 OA
HETATM   11  O5  UNL     1      83.689  35.528  54.066  1.00  0.00    -0.302 OA
HETATM   12  C13 UNL     1      82.349  35.365  53.729  1.00  0.00     0.288 C 
HETATM   13  C19 UNL     1      82.127  33.905  54.049  1.00  0.00     0.259 C 
HETATM   14  C20 UNL     1      82.881  33.771  55.366  1.00  0.00     0.250 C 
ENDROOT
BRANCH  14  15
HETATM   15  O10 UNL     1      83.621  32.599  55.424  1.00  0.00    -0.359 OA
ATOM     16  H10 UNL     1      84.232  32.590  56.151  1.00  0.00     0.213 HD
ENDBRANCH  14  15
BRANCH  14  17
HETATM   17  O11 UNL     1      81.940  33.862  56.385  1.00  0.00    -0.359 OA
ATOM     18  H11 UNL     1      81.458  33.047  56.465  1.00  0.00     0.213 HD
ENDBRANCH  14  17
BRANCH  12  19
HETATM   19  O6  UNL     1      81.578  36.108  54.594  1.00  0.00    -0.355 OA
ATOM     20  H6  UNL     1      80.676  36.088  54.297  1.00  0.00     0.213 HD
ENDBRANCH  12  19
BRANCH  12  21
HETATM   21  C14 UNL     1      82.043  35.716  52.352  1.00  0.00     0.325 C 
HETATM   22  O7  UNL     1      81.039  36.409  52.079  1.00  0.00    -0.259 OA
BRANCH  21  23
HETATM   23  O8  UNL     1      82.854  35.289  51.327  1.00  0.00    -0.317 OA
BRANCH  23  24
HETATM   24  C15 UNL     1      83.907  35.973  50.735  1.00  0.00     0.179 C 
BRANCH  24  25
HETATM   25  C16 UNL     1      83.456  36.637  49.472  1.00  0.00     0.026 C 
BRANCH  25  26
HETATM   26  C17 UNL     1      83.421  38.148  49.675  1.00  0.00    -0.002 C 
HETATM   27  C18 UNL     1      84.430  38.537  50.706  1.00  0.00     0.005 C 
ENDBRANCH  25  26
ENDBRANCH  24  25
ENDBRANCH  23  24
ENDBRANCH  21  23
ENDBRANCH  12  21
BRANCH  13  28
HETATM   28  O9  UNL     1      82.694  33.068  53.103  1.00  0.00    -0.384 OA
ATOM     29  H9  UNL     1      82.156  32.306  52.926  1.00  0.00     0.210 HD
ENDBRANCH  13  28
BRANCH   4  30
HETATM   30  C5  UNL     1      87.526  35.724  59.083  1.00  0.00     0.134 C 
HETATM   31  C6  UNL     1      87.424  34.516  59.990  1.00  0.00     0.091 C 
HETATM   32  O1  UNL     1      88.394  36.488  59.388  1.00  0.00    -0.298 OA
ENDBRANCH   4  30
BRANCH   5  33
HETATM   33  O2  UNL     1      87.895  36.968  56.308  1.00  0.00    -0.386 OA
ATOM     34  H2  UNL     1      88.594  37.571  56.533  1.00  0.00     0.210 HD
ENDBRANCH   5  33
BRANCH   5  35
HETATM   35  C8  UNL     1      86.928  38.364  57.966  1.00  0.00     0.203 C 
BRANCH  35  36
HETATM   36  O3  UNL     1      88.125  39.033  57.921  1.00  0.00    -0.398 OA
ATOM     37  H3  UNL     1      88.177  39.762  57.314  1.00  0.00     0.209 HD
ENDBRANCH  35  36
ENDBRANCH   5  35
TORSDOF 13
ENDMDL
MODEL 2
REMARK VINA RESULT: -6.696024657      0.842      1.232
REMARK  13 active torsions:
REMARK  status: ('A' for Active; 'I' for Inactive)
REMARK    1  A    between atoms: C4_4  and  C5_5 
REMARK    2  A    between atoms: C7_8  and  O2_9 
REMARK    3  A    between atoms: C7_8  and  C8_11 
REMARK    4  A    between atoms: C8_11  and  O3_12 
REMARK    5  A    between atoms: C13_20  and  O6_21 
REMARK    6  A    between atoms: C13_20  and  C14_23 
REMARK    7  A    between atoms: C14_23  and  O8_25 
REMARK    8  A    between atoms: O8_25  and  C15_26 
REMARK    9  A    between atoms: C15_26  and  C16_27 
REMARK   10  A    between atoms: C16_27  and  C17_28 
REMARK   11  A    between atoms: C19_30  and  O9_31 
REMARK   12  A    between atoms: C20_33  and  O10_34 
REMARK   13  A    between atoms: C20_33  and  O11_36 
ROOT
HETATM    1  C1  UNL     1      84.160  35.851  60.388  1.00  0.00     0.036 C 
HETATM    2  C2  UNL     1      84.176  35.920  58.923  1.00  0.00    -0.024 C 
HETATM    3  C3  UNL     1      85.131  35.906  58.051  1.00  0.00    -0.035 C 
HETATM    4  C4  UNL     1      86.580  35.830  57.914  1.00  0.00     0.123 C 
HETATM    5  C7  UNL     1      86.835  37.066  57.038  1.00  0.00     0.096 C 
HETATM    6  C9  UNL     1      85.563  37.200  56.177  1.00  0.00     0.084 C 
HETATM    7  C10 UNL     1      84.770  35.992  56.524  1.00  0.00     0.097 C 
HETATM    8  C11 UNL     1      85.083  34.727  55.803  1.00  0.00     0.117 C 
HETATM    9  C12 UNL     1      83.687  34.986  55.279  1.00  0.00     0.232 C 
HETATM   10  O4  UNL     1      83.437  35.955  56.278  1.00  0.00    -0.334 OA
HETATM   11  O5  UNL     1      83.650  35.478  53.986  1.00  0.00    -0.302 OA
HETATM   12  C13 UNL     1      82.308  35.347  53.647  1.00  0.00     0.288 C 
HETATM   13  C19 UNL     1      82.038  33.905  54.011  1.00  0.00     0.259 C 
HETATM   14  C20 UNL     1      82.781  33.788  55.335  1.00  0.00     0.250 C 
ENDROOT
BRANCH  14  15
HETATM   15  O10 UNL     1      83.483  32.595  55.433  1.00  0.00    -0.359 OA
ATOM     16  H10 UNL     1      83.227  31.968  54.767  1.00  0.00     0.213 HD
ENDBRANCH  14  15
BRANCH  14  17
HETATM   17  O11 UNL     1      81.840  33.940  56.346  1.00  0.00    -0.359 OA
ATOM     18  H11 UNL     1      81.006  33.571  56.081  1.00  0.00     0.213 HD
ENDBRANCH  14  17
BRANCH  12  19
HETATM   19  O6  UNL     1      81.556  36.140  54.484  1.00  0.00    -0.355 OA
ATOM     20  H6  UNL     1      80.639  36.039  54.262  1.00  0.00     0.213 HD
ENDBRANCH  12  19
BRANCH  12  21
HETATM   21  C14 UNL     1      82.019  35.664  52.257  1.00  0.00     0.325 C 
HETATM   22  O7  UNL     1      82.821  35.347  51.352  1.00  0.00    -0.259 OA
BRANCH  21  23
HETATM   23  O8  UNL     1      80.858  36.317  51.918  1.00  0.00    -0.317 OA
BRANCH  23  24
HETATM   24  C15 UNL     1      80.727  37.571  51.337  1.00  0.00     0.179 C 
BRANCH  24  25
HETATM   25  C16 UNL     1      80.500  37.444  49.864  1.00  0.00     0.026 C 
BRANCH  25  26
HETATM   26  C17 UNL     1      81.540  38.271  49.114  1.00  0.00    -0.002 C 
HETATM   27  C18 UNL     1      82.532  37.358  48.470  1.00  0.00     0.005 C 
ENDBRANCH  25  26
ENDBRANCH  24  25
ENDBRANCH  23  24
ENDBRANCH  21  23
ENDBRANCH  12  21
BRANCH  13  28
HETATM   28  O9  UNL     1      82.582  33.021  53.094  1.00  0.00    -0.384 OA
ATOM     29  H9  UNL     1      83.164  32.392  53.502  1.00  0.00     0.210 HD
ENDBRANCH  13  28
BRANCH   4  30
HETATM   30  C5  UNL     1      87.470  35.707  59.014  1.00  0.00     0.134 C 
HETATM   31  C6  UNL     1      87.316  34.540  59.967  1.00  0.00     0.091 C 
HETATM   32  O1  UNL     1      88.369  36.446  59.293  1.00  0.00    -0.298 OA
ENDBRANCH   4  30
BRANCH   5  33
HETATM   33  O2  UNL     1      87.891  36.852  56.204  1.00  0.00    -0.386 OA
ATOM     34  H2  UNL     1      88.332  36.040  56.424  1.00  0.00     0.210 HD
ENDBRANCH   5  33
BRANCH   5  35
HETATM   35  C8  UNL     1      86.962  38.329  57.813  1.00  0.00     0.203 C 
BRANCH  35  36
HETATM   36  O3  UNL     1      88.173  38.970  57.737  1.00  0.00    -0.398 OA
ATOM     37  H3  UNL     1      88.430  39.475  58.499  1.00  0.00     0.209 HD
ENDBRANCH  35  36
ENDBRANCH   5  35
TORSDOF 13
ENDMDL
MODEL 3
REMARK VINA RESULT: -6.673384456      3.188      8.974
REMARK  13 active torsions:
REMARK  status: ('A' for Active; 'I' for Inactive)
REMARK    1  A    between atoms: C4_4  and  C5_5 
REMARK    2  A    between atoms: C7_8  and  O2_9 
REMARK    3  A    between atoms: C7_8  and  C8_11 
REMARK    4  A    between atoms: C8_11  and  O3_12 
REMARK    5  A    between atoms: C13_20  and  O6_21 
REMARK    6  A    between atoms: C13_20  and  C14_23 
REMARK    7  A    between atoms: C14_23  and  O8_25 
REMARK    8  A    between atoms: O8_25  and  C15_26 
REMARK    9  A    between atoms: C15_26  and  C16_27 
REMARK   10  A    between atoms: C16_27  and  C17_28 
REMARK   11  A    between atoms: C19_30  and  O9_31 
REMARK   12  A    between atoms: C20_33  and  O10_34 
REMARK   13  A    between atoms: C20_33  and  O11_36 
ROOT
HETATM    1  C1  UNL     1      82.400  36.084  57.439  1.00  0.00     0.036 C 
HETATM    2  C2  UNL     1      83.686  35.921  58.126  1.00  0.00    -0.024 C 
HETATM    3  C3  UNL     1      84.904  35.824  57.701  1.00  0.00    -0.035 C 
HETATM    4  C4  UNL     1      85.716  35.805  56.491  1.00  0.00     0.123 C 
HETATM    5  C7  UNL     1      86.501  34.504  56.711  1.00  0.00     0.096 C 
HETATM    6  C9  UNL     1      86.644  34.391  58.242  1.00  0.00     0.084 C 
HETATM    7  C10 UNL     1      86.065  35.664  58.748  1.00  0.00     0.097 C 
HETATM    8  C11 UNL     1      86.951  36.860  58.789  1.00  0.00     0.117 C 
HETATM    9  C12 UNL     1      86.729  36.651  60.271  1.00  0.00     0.232 C 
HETATM   10  O4  UNL     1      85.653  35.763  60.035  1.00  0.00    -0.334 OA
HETATM   11  O5  UNL     1      87.804  36.081  60.930  1.00  0.00    -0.302 OA
HETATM   12  C13 UNL     1      87.476  36.269  62.269  1.00  0.00     0.288 C 
HETATM   13  C19 UNL     1      87.150  37.744  62.301  1.00  0.00     0.259 C 
HETATM   14  C20 UNL     1      86.350  37.901  61.014  1.00  0.00     0.250 C 
ENDROOT
BRANCH  14  15
HETATM   15  O10 UNL     1      86.696  39.054  60.325  1.00  0.00    -0.359 OA
ATOM     16  H10 UNL     1      85.940  39.578  60.089  1.00  0.00     0.213 HD
ENDBRANCH  14  15
BRANCH  14  17
HETATM   17  O11 UNL     1      85.005  37.869  61.363  1.00  0.00    -0.359 OA
ATOM     18  H11 UNL     1      84.754  38.680  61.789  1.00  0.00     0.213 HD
ENDBRANCH  14  17
BRANCH  12  19
HETATM   19  O6  UNL     1      86.320  35.576  62.547  1.00  0.00    -0.355 OA
ATOM     20  H6  UNL     1      85.587  36.178  62.521  1.00  0.00     0.213 HD
ENDBRANCH  12  19
BRANCH  12  21
HETATM   21  C14 UNL     1      88.532  35.883  63.191  1.00  0.00     0.325 C 
HETATM   22  O7  UNL     1      88.254  35.438  64.326  1.00  0.00    -0.259 OA
BRANCH  21  23
HETATM   23  O8  UNL     1      89.853  36.001  62.830  1.00  0.00    -0.317 OA
BRANCH  23  24
HETATM   24  C15 UNL     1      90.936  36.290  63.649  1.00  0.00     0.179 C 
BRANCH  24  25
HETATM   25  C16 UNL     1      91.956  35.200  63.570  1.00  0.00     0.026 C 
BRANCH  25  26
HETATM   26  C17 UNL     1      92.026  34.669  62.142  1.00  0.00    -0.002 C 
HETATM   27  C18 UNL     1      93.073  33.604  62.056  1.00  0.00     0.005 C 
ENDBRANCH  25  26
ENDBRANCH  24  25
ENDBRANCH  23  24
ENDBRANCH  21  23
ENDBRANCH  12  21
BRANCH  13  28
HETATM   28  O9  UNL     1      88.286  38.536  62.240  1.00  0.00    -0.384 OA
ATOM     29  H9  UNL     1      88.300  39.199  62.920  1.00  0.00     0.210 HD
ENDBRANCH  13  28
BRANCH   4  30
HETATM   30  C5  UNL     1      85.183  35.945  55.182  1.00  0.00     0.134 C 
HETATM   31  C6  UNL     1      85.625  37.111  54.322  1.00  0.00     0.091 C 
HETATM   32  O1  UNL     1      84.392  35.223  54.650  1.00  0.00    -0.298 OA
ENDBRANCH   4  30
BRANCH   5  33
HETATM   33  O2  UNL     1      87.751  34.602  56.176  1.00  0.00    -0.386 OA
ATOM     34  H2  UNL     1      87.994  35.513  56.058  1.00  0.00     0.210 HD
ENDBRANCH   5  33
BRANCH   5  35
HETATM   35  C8  UNL     1      85.777  33.288  56.258  1.00  0.00     0.203 C 
BRANCH  35  36
HETATM   36  O3  UNL     1      86.157  32.770  55.046  1.00  0.00    -0.398 OA
ATOM     37  H3  UNL     1      86.992  33.069  54.703  1.00  0.00     0.209 HD
ENDBRANCH  35  36
ENDBRANCH   5  35
TORSDOF 13
ENDMDL
MODEL 4
REMARK VINA RESULT: -6.648427847      2.275      8.290
REMARK  13 active torsions:
REMARK  status: ('A' for Active; 'I' for Inactive)
REMARK    1  A    between atoms: C4_4  and  C5_5 
REMARK    2  A    between atoms: C7_8  and  O2_9 
REMARK    3  A    between atoms: C7_8  and  C8_11 
REMARK    4  A    between atoms: C8_11  and  O3_12 
REMARK    5  A    between atoms: C13_20  and  O6_21 
REMARK    6  A    between atoms: C13_20  and  C14_23 
REMARK    7  A    between atoms: C14_23  and  O8_25 
REMARK    8  A    between atoms: O8_25  and  C15_26 
REMARK    9  A    between atoms: C15_26  and  C16_27 
REMARK   10  A    between atoms: C16_27  and  C17_28 
REMARK   11  A    between atoms: C19_30  and  O9_31 
REMARK   12  A    between atoms: C20_33  and  O10_34 
REMARK   13  A    between atoms: C20_33  and  O11_36 
ROOT
HETATM    1  C1  UNL     1      82.173  38.561  55.527  1.00  0.00     0.036 C 
HETATM    2  C2  UNL     1      83.362  37.965  56.148  1.00  0.00    -0.024 C 
HETATM    3  C3  UNL     1      84.154  37.007  55.793  1.00  0.00    -0.035 C 
HETATM    4  C4  UNL     1      84.395  36.026  54.743  1.00  0.00     0.123 C 
HETATM    5  C7  UNL     1      84.468  34.742  55.582  1.00  0.00     0.096 C 
HETATM    6  C9  UNL     1      85.040  35.198  56.939  1.00  0.00     0.084 C 
HETATM    7  C10 UNL     1      85.363  36.633  56.725  1.00  0.00     0.097 C 
HETATM    8  C11 UNL     1      86.674  36.962  56.100  1.00  0.00     0.117 C 
HETATM    9  C12 UNL     1      86.889  37.547  57.479  1.00  0.00     0.232 C 
HETATM   10  O4  UNL     1      85.510  37.466  57.783  1.00  0.00    -0.334 OA
HETATM   11  O5  UNL     1      87.700  36.780  58.299  1.00  0.00    -0.302 OA
HETATM   12  C13 UNL     1      87.976  37.646  59.352  1.00  0.00     0.288 C 
HETATM   13  C19 UNL     1      88.442  38.883  58.620  1.00  0.00     0.259 C 
HETATM   14  C20 UNL     1      87.442  38.944  57.472  1.00  0.00     0.250 C 
ENDROOT
BRANCH  14  15
HETATM   15  O10 UNL     1      88.052  39.267  56.268  1.00  0.00    -0.359 OA
ATOM     16  H10 UNL     1      88.800  39.841  56.383  1.00  0.00     0.213 HD
ENDBRANCH  14  15
BRANCH  14  17
HETATM   17  O11 UNL     1      86.459  39.856  57.836  1.00  0.00    -0.359 OA
ATOM     18  H11 UNL     1      86.011  40.186  57.066  1.00  0.00     0.213 HD
ENDBRANCH  14  17
BRANCH  12  19
HETATM   19  O6  UNL     1      86.799  37.957  59.995  1.00  0.00    -0.355 OA
ATOM     20  H6  UNL     1      86.819  38.871  60.250  1.00  0.00     0.213 HD
ENDBRANCH  12  19
BRANCH  12  21
HETATM   21  C14 UNL     1      88.947  37.126  60.300  1.00  0.00     0.325 C 
HETATM   22  O7  UNL     1      89.020  37.593  61.458  1.00  0.00    -0.259 OA
BRANCH  21  23
HETATM   23  O8  UNL     1      89.802  36.113  59.939  1.00  0.00    -0.317 OA
BRANCH  23  24
HETATM   24  C15 UNL     1      89.733  34.773  60.295  1.00  0.00     0.179 C 
BRANCH  24  25
HETATM   25  C16 UNL     1      91.106  34.201  60.453  1.00  0.00     0.026 C 
BRANCH  25  26
HETATM   26  C17 UNL     1      91.679  34.616  61.804  1.00  0.00    -0.002 C 
HETATM   27  C18 UNL     1      92.940  33.857  62.065  1.00  0.00     0.005 C 
ENDBRANCH  25  26
ENDBRANCH  24  25
ENDBRANCH  23  24
ENDBRANCH  21  23
ENDBRANCH  12  21
BRANCH  13  28
HETATM   28  O9  UNL     1      89.723  38.741  58.111  1.00  0.00    -0.384 OA
ATOM     29  H9  UNL     1      89.798  37.996  57.527  1.00  0.00     0.210 HD
ENDBRANCH  13  28
BRANCH   4  30
HETATM   30  C5  UNL     1      83.595  35.909  53.574  1.00  0.00     0.134 C 
HETATM   31  C6  UNL     1      83.643  37.004  52.529  1.00  0.00     0.091 C 
HETATM   32  O1  UNL     1      82.853  35.011  53.303  1.00  0.00    -0.298 OA
ENDBRANCH   4  30
BRANCH   5  33
HETATM   33  O2  UNL     1      85.344  33.857  55.028  1.00  0.00    -0.386 OA
ATOM     34  H2  UNL     1      84.896  33.275  54.426  1.00  0.00     0.210 HD
ENDBRANCH   5  33
BRANCH   5  35
HETATM   35  C8  UNL     1      83.139  34.136  55.860  1.00  0.00     0.203 C 
BRANCH  35  36
HETATM   36  O3  UNL     1      82.943  32.860  55.395  1.00  0.00    -0.398 OA
ATOM     37  H3  UNL     1      82.071  32.657  55.077  1.00  0.00     0.209 HD
ENDBRANCH  35  36
ENDBRANCH   5  35
TORSDOF 13
ENDMDL
MODEL 5
REMARK VINA RESULT: -6.588632531      2.515      8.677
REMARK  13 active torsions:
REMARK  status: ('A' for Active; 'I' for Inactive)
REMARK    1  A    between atoms: C4_4  and  C5_5 
REMARK    2  A    between atoms: C7_8  and  O2_9 
REMARK    3  A    between atoms: C7_8  and  C8_11 
REMARK    4  A    between atoms: C8_11  and  O3_12 
REMARK    5  A    between atoms: C13_20  and  O6_21 
REMARK    6  A    between atoms: C13_20  and  C14_23 
REMARK    7  A    between atoms: C14_23  and  O8_25 
REMARK    8  A    between atoms: O8_25  and  C15_26 
REMARK    9  A    between atoms: C15_26  and  C16_27 
REMARK   10  A    between atoms: C16_27  and  C17_28 
REMARK   11  A    between atoms: C19_30  and  O9_31 
REMARK   12  A    between atoms: C20_33  and  O10_34 
REMARK   13  A    between atoms: C20_33  and  O11_36 
ROOT
HETATM    1  C1  UNL     1      82.120  37.860  56.567  1.00  0.00     0.036 C 
HETATM    2  C2  UNL     1      83.405  37.300  57.001  1.00  0.00    -0.024 C 
HETATM    3  C3  UNL     1      84.265  36.525  56.426  1.00  0.00    -0.035 C 
HETATM    4  C4  UNL     1      84.532  35.794  55.194  1.00  0.00     0.123 C 
HETATM    5  C7  UNL     1      84.798  34.392  55.762  1.00  0.00     0.096 C 
HETATM    6  C9  UNL     1      85.415  34.647  57.151  1.00  0.00     0.084 C 
HETATM    7  C10 UNL     1      85.570  36.125  57.205  1.00  0.00     0.097 C 
HETATM    8  C11 UNL     1      86.792  36.716  56.592  1.00  0.00     0.117 C 
HETATM    9  C12 UNL     1      87.043  37.052  58.046  1.00  0.00     0.232 C 
HETATM   10  O4  UNL     1      85.705  36.756  58.397  1.00  0.00    -0.334 OA
HETATM   11  O5  UNL     1      87.985  36.245  58.659  1.00  0.00    -0.302 OA
HETATM   12  C13 UNL     1      88.244  36.923  59.845  1.00  0.00     0.288 C 
HETATM   13  C19 UNL     1      88.525  38.321  59.346  1.00  0.00     0.259 C 
HETATM   14  C20 UNL     1      87.445  38.480  58.283  1.00  0.00     0.250 C 
ENDROOT
BRANCH  14  15
HETATM   15  O10 UNL     1      87.930  39.093  57.137  1.00  0.00    -0.359 OA
ATOM     16  H10 UNL     1      88.859  39.285  57.193  1.00  0.00     0.213 HD
ENDBRANCH  14  15
BRANCH  14  17
HETATM   17  O11 UNL     1      86.400  39.187  58.867  1.00  0.00    -0.359 OA
ATOM     18  H11 UNL     1      86.576  40.120  58.841  1.00  0.00     0.213 HD
ENDBRANCH  14  17
BRANCH  12  19
HETATM   19  O6  UNL     1      87.090  36.968  60.594  1.00  0.00    -0.355 OA
ATOM     20  H6  UNL     1      87.071  36.218  61.176  1.00  0.00     0.213 HD
ENDBRANCH  12  19
BRANCH  12  21
HETATM   21  C14 UNL     1      89.330  36.350  60.624  1.00  0.00     0.325 C 
HETATM   22  O7  UNL     1      90.129  35.542  60.104  1.00  0.00    -0.259 OA
BRANCH  21  23
HETATM   23  O8  UNL     1      89.495  36.689  61.946  1.00  0.00    -0.317 OA
BRANCH  23  24
HETATM   24  C15 UNL     1      89.848  35.857  63.000  1.00  0.00     0.179 C 
BRANCH  24  25
HETATM   25  C16 UNL     1      91.135  36.308  63.614  1.00  0.00     0.026 C 
BRANCH  25  26
HETATM   26  C17 UNL     1      92.051  35.106  63.819  1.00  0.00    -0.002 C 
HETATM   27  C18 UNL     1      92.437  34.540  62.490  1.00  0.00     0.005 C 
ENDBRANCH  25  26
ENDBRANCH  24  25
ENDBRANCH  23  24
ENDBRANCH  21  23
ENDBRANCH  12  21
BRANCH  13  28
HETATM   28  O9  UNL     1      89.774  38.427  58.756  1.00  0.00    -0.384 OA
ATOM     29  H9  UNL     1      90.283  39.144  59.115  1.00  0.00     0.210 HD
ENDBRANCH  13  28
BRANCH   4  30
HETATM   30  C5  UNL     1      83.667  35.806  54.067  1.00  0.00     0.134 C 
HETATM   31  C6  UNL     1      83.508  37.083  53.267  1.00  0.00     0.091 C 
HETATM   32  O1  UNL     1      83.018  34.891  53.652  1.00  0.00    -0.298 OA
ENDBRANCH   4  30
BRANCH   5  33
HETATM   33  O2  UNL     1      85.720  33.735  55.003  1.00  0.00    -0.386 OA
ATOM     34  H2  UNL     1      86.496  33.538  55.516  1.00  0.00     0.210 HD
ENDBRANCH   5  33
BRANCH   5  35
HETATM   35  C8  UNL     1      83.563  33.594  55.983  1.00  0.00     0.203 C 
BRANCH  35  36
HETATM   36  O3  UNL     1      83.523  32.359  55.387  1.00  0.00    -0.398 OA
ATOM     37  H3  UNL     1      83.037  32.300  54.573  1.00  0.00     0.209 HD
ENDBRANCH  35  36
ENDBRANCH   5  35
TORSDOF 13
ENDMDL
