MODEL 1
REMARK VINA RESULT: -8.047266491      0.000      0.000
REMARK  6 active torsions:
REMARK  status: ('A' for Active; 'I' for Inactive)
REMARK    1  A    between atoms: C1_2  and  C2_3 
REMARK    2  A    between atoms: C1_2  and  O2_10 
REMARK    3  A    between atoms: C3_4  and  C4_5 
REMARK    4  A    between atoms: O2_10  and  C8_11 
REMARK    5  A    between atoms: C10_13  and  O3_14 
REMARK    6  A    between atoms: C15_20  and  O4_21 
ROOT
HETATM    1  C8  UNL     1      17.801  68.420   3.652  1.00  0.00     0.164 C 
HETATM    2  C9  UNL     1      18.209  68.744   2.251  1.00  0.00     0.073 C 
HETATM    3  C10 UNL     1      19.105  69.980   2.361  1.00  0.00     0.066 C 
HETATM    4  C11 UNL     1      20.380  69.814   1.602  1.00  0.00     0.038 C 
HETATM    5  C12 UNL     1      21.481  69.561   2.610  1.00  0.00     0.004 C 
HETATM    6  C13 UNL     1      20.704  69.073   3.818  1.00  0.00     0.010 C 
HETATM    7  C14 UNL     1      19.521  70.015   3.817  1.00  0.00     0.051 C 
HETATM    8  C15 UNL     1      18.339  69.476   4.561  1.00  0.00     0.154 C 
ENDROOT
BRANCH   1   9
HETATM    9  O2  UNL     1      16.424  68.196   3.802  1.00  0.00    -0.310 OA
BRANCH   9  10
HETATM   10  C1  UNL     1      15.905  67.254   4.710  1.00  0.00     0.283 C 
HETATM   11  O1  UNL     1      16.595  67.083   5.751  1.00  0.00    -0.260 OA
BRANCH  10  12
HETATM   12  C2  UNL     1      14.670  66.543   4.452  1.00  0.00     0.083 C 
HETATM   13  C3  UNL     1      14.128  65.791   5.371  1.00  0.00     0.025 C 
BRANCH  13  14
HETATM   14  C4  UNL     1      12.867  65.052   5.135  1.00  0.00     0.005 A 
HETATM   15  C5  UNL     1      11.743  65.088   5.915  1.00  0.00     0.019 A 
HETATM   16  C6  UNL     1      10.699  64.331   5.515  1.00  0.00     0.008 A 
HETATM   17  C7  UNL     1      10.853  63.599   4.373  1.00  0.00     0.050 A 
HETATM   18  S1  UNL     1      12.442  63.982   3.887  1.00  0.00    -0.102 SA
ENDBRANCH  13  14
ENDBRANCH  10  12
ENDBRANCH   9  10
ENDBRANCH   1   9
BRANCH   8  19
HETATM   19  O4  UNL     1      18.765  68.894   5.758  1.00  0.00    -0.392 OA
ATOM     20  H4  UNL     1      18.010  68.642   6.276  1.00  0.00     0.210 HD
ENDBRANCH   8  19
BRANCH   3  21
HETATM   21  O3  UNL     1      18.403  71.117   2.026  1.00  0.00    -0.389 OA
ATOM     22  H3  UNL     1      18.174  71.610   2.805  1.00  0.00     0.210 HD
ENDBRANCH   3  21
TORSDOF 6
ENDMDL
MODEL 2
REMARK VINA RESULT: -7.769329748      2.793      4.029
REMARK  6 active torsions:
REMARK  status: ('A' for Active; 'I' for Inactive)
REMARK    1  A    between atoms: C1_2  and  C2_3 
REMARK    2  A    between atoms: C1_2  and  O2_10 
REMARK    3  A    between atoms: C3_4  and  C4_5 
REMARK    4  A    between atoms: O2_10  and  C8_11 
REMARK    5  A    between atoms: C10_13  and  O3_14 
REMARK    6  A    between atoms: C15_20  and  O4_21 
ROOT
HETATM    1  C8  UNL     1      17.470  68.154   6.448  1.00  0.00     0.164 C 
HETATM    2  C9  UNL     1      18.858  68.677   6.639  1.00  0.00     0.073 C 
HETATM    3  C10 UNL     1      18.940  69.092   8.110  1.00  0.00     0.066 C 
HETATM    4  C11 UNL     1      20.158  68.542   8.777  1.00  0.00     0.038 C 
HETATM    5  C12 UNL     1      19.716  67.394   9.660  1.00  0.00     0.004 C 
HETATM    6  C13 UNL     1      18.380  67.016   9.048  1.00  0.00     0.010 C 
HETATM    7  C14 UNL     1      17.780  68.375   8.769  1.00  0.00     0.051 C 
HETATM    8  C15 UNL     1      16.712  68.343   7.721  1.00  0.00     0.154 C 
ENDROOT
BRANCH   1   9
HETATM    9  O2  UNL     1      16.819  68.678   5.321  1.00  0.00    -0.310 OA
BRANCH   9  10
HETATM   10  C1  UNL     1      16.370  67.867   4.262  1.00  0.00     0.283 C 
HETATM   11  O1  UNL     1      17.158  67.790   3.281  1.00  0.00    -0.260 OA
BRANCH  10  12
HETATM   12  C2  UNL     1      15.096  67.181   4.310  1.00  0.00     0.083 C 
HETATM   13  C3  UNL     1      15.019  65.943   4.713  1.00  0.00     0.025 C 
BRANCH  13  14
HETATM   14  C4  UNL     1      13.730  65.216   4.772  1.00  0.00     0.005 A 
HETATM   15  C5  UNL     1      12.745  65.379   5.708  1.00  0.00     0.019 A 
HETATM   16  C6  UNL     1      11.643  64.609   5.574  1.00  0.00     0.008 A 
HETATM   17  C7  UNL     1      11.607  63.740   4.522  1.00  0.00     0.050 A 
HETATM   18  S1  UNL     1      13.101  64.015   3.749  1.00  0.00    -0.102 SA
ENDBRANCH  13  14
ENDBRANCH  10  12
ENDBRANCH   9  10
ENDBRANCH   1   9
BRANCH   8  19
HETATM   19  O4  UNL     1      15.876  67.243   7.937  1.00  0.00    -0.392 OA
ATOM     20  H4  UNL     1      15.357  67.385   8.720  1.00  0.00     0.210 HD
ENDBRANCH   8  19
BRANCH   3  21
HETATM   21  O3  UNL     1      18.806  70.457   8.235  1.00  0.00    -0.389 OA
ATOM     22  H3  UNL     1      19.375  70.786   8.921  1.00  0.00     0.210 HD
ENDBRANCH   3  21
TORSDOF 6
ENDMDL
MODEL 3
REMARK VINA RESULT: -7.669117542      1.363      1.735
REMARK  6 active torsions:
REMARK  status: ('A' for Active; 'I' for Inactive)
REMARK    1  A    between atoms: C1_2  and  C2_3 
REMARK    2  A    between atoms: C1_2  and  O2_10 
REMARK    3  A    between atoms: C3_4  and  C4_5 
REMARK    4  A    between atoms: O2_10  and  C8_11 
REMARK    5  A    between atoms: C10_13  and  O3_14 
REMARK    6  A    between atoms: C15_20  and  O4_21 
ROOT
HETATM    1  C8  UNL     1      18.939  68.260   4.902  1.00  0.00     0.164 C 
HETATM    2  C9  UNL     1      18.514  68.193   3.471  1.00  0.00     0.073 C 
HETATM    3  C10 UNL     1      18.836  69.570   2.885  1.00  0.00     0.066 C 
HETATM    4  C11 UNL     1      19.586  69.466   1.598  1.00  0.00     0.038 C 
HETATM    5  C12 UNL     1      21.031  69.820   1.882  1.00  0.00     0.004 C 
HETATM    6  C13 UNL     1      21.129  69.588   3.378  1.00  0.00     0.010 C 
HETATM    7  C14 UNL     1      19.823  70.174   3.862  1.00  0.00     0.051 C 
HETATM    8  C15 UNL     1      19.400  69.649   5.198  1.00  0.00     0.154 C 
ENDROOT
BRANCH   1   9
HETATM    9  O2  UNL     1      17.973  67.782   5.801  1.00  0.00    -0.310 OA
BRANCH   9  10
HETATM   10  C1  UNL     1      16.599  68.041   5.644  1.00  0.00     0.283 C 
HETATM   11  O1  UNL     1      16.199  69.120   6.162  1.00  0.00    -0.260 OA
BRANCH  10  12
HETATM   12  C2  UNL     1      15.724  67.129   4.939  1.00  0.00     0.083 C 
HETATM   13  C3  UNL     1      14.958  66.299   5.593  1.00  0.00     0.025 C 
BRANCH  13  14
HETATM   14  C4  UNL     1      14.054  65.354   4.898  1.00  0.00     0.005 A 
HETATM   15  C5  UNL     1      14.348  64.612   3.787  1.00  0.00     0.019 A 
HETATM   16  C6  UNL     1      13.371  63.808   3.313  1.00  0.00     0.008 A 
HETATM   17  C7  UNL     1      12.180  63.806   3.981  1.00  0.00     0.050 A 
HETATM   18  S1  UNL     1      12.450  64.918   5.245  1.00  0.00    -0.102 SA
ENDBRANCH  13  14
ENDBRANCH  10  12
ENDBRANCH   9  10
ENDBRANCH   1   9
BRANCH   8  19
HETATM   19  O4  UNL     1      20.504  69.606   6.054  1.00  0.00    -0.392 OA
ATOM     20  H4  UNL     1      20.322  70.115   6.836  1.00  0.00     0.210 HD
ENDBRANCH   8  19
BRANCH   3  21
HETATM   21  O3  UNL     1      17.695  70.339   2.802  1.00  0.00    -0.389 OA
ATOM     22  H3  UNL     1      17.622  70.735   1.942  1.00  0.00     0.210 HD
ENDBRANCH   3  21
TORSDOF 6
ENDMDL
MODEL 4
REMARK VINA RESULT: -7.661481862      3.476      8.198
REMARK  6 active torsions:
REMARK  status: ('A' for Active; 'I' for Inactive)
REMARK    1  A    between atoms: C1_2  and  C2_3 
REMARK    2  A    between atoms: C1_2  and  O2_10 
REMARK    3  A    between atoms: C3_4  and  C4_5 
REMARK    4  A    between atoms: O2_10  and  C8_11 
REMARK    5  A    between atoms: C10_13  and  O3_14 
REMARK    6  A    between atoms: C15_20  and  O4_21 
ROOT
HETATM    1  C8  UNL     1      16.872  68.451   3.558  1.00  0.00     0.164 C 
HETATM    2  C9  UNL     1      17.176  68.030   4.960  1.00  0.00     0.073 C 
HETATM    3  C10 UNL     1      15.823  67.970   5.671  1.00  0.00     0.066 C 
HETATM    4  C11 UNL     1      15.642  66.690   6.418  1.00  0.00     0.038 C 
HETATM    5  C12 UNL     1      14.682  65.830   5.623  1.00  0.00     0.004 C 
HETATM    6  C13 UNL     1      14.786  66.433   4.234  1.00  0.00     0.010 C 
HETATM    7  C14 UNL     1      14.809  67.911   4.548  1.00  0.00     0.051 C 
HETATM    8  C15 UNL     1      15.410  68.736   3.453  1.00  0.00     0.154 C 
ENDROOT
BRANCH   1   9
HETATM    9  O2  UNL     1      17.685  69.495   3.092  1.00  0.00    -0.310 OA
BRANCH   9  10
HETATM   10  C1  UNL     1      18.220  69.515   1.790  1.00  0.00     0.283 C 
HETATM   11  O1  UNL     1      17.367  69.434   0.864  1.00  0.00    -0.260 OA
BRANCH  10  12
HETATM   12  C2  UNL     1      19.643  69.622   1.549  1.00  0.00     0.083 C 
HETATM   13  C3  UNL     1      20.485  69.704   2.542  1.00  0.00     0.025 C 
BRANCH  13  14
HETATM   14  C4  UNL     1      21.946  69.815   2.326  1.00  0.00     0.005 A 
HETATM   15  C5  UNL     1      22.599  69.745   1.126  1.00  0.00     0.019 A 
HETATM   16  C6  UNL     1      23.943  69.871   1.155  1.00  0.00     0.008 A 
HETATM   17  C7  UNL     1      24.532  70.056   2.373  1.00  0.00     0.050 A 
HETATM   18  S1  UNL     1      23.204  70.050   3.442  1.00  0.00    -0.102 SA
ENDBRANCH  13  14
ENDBRANCH  10  12
ENDBRANCH   9  10
ENDBRANCH   1   9
BRANCH   8  19
HETATM   19  O4  UNL     1      14.932  68.292   2.217  1.00  0.00    -0.392 OA
ATOM     20  H4  UNL     1      15.647  68.256   1.592  1.00  0.00     0.210 HD
ENDBRANCH   8  19
BRANCH   3  21
HETATM   21  O3  UNL     1      15.633  69.095   6.444  1.00  0.00    -0.389 OA
ATOM     22  H3  UNL     1      15.063  68.903   7.179  1.00  0.00     0.210 HD
ENDBRANCH   3  21
TORSDOF 6
ENDMDL
MODEL 5
REMARK VINA RESULT: -7.612442784      3.154      7.727
REMARK  6 active torsions:
REMARK  status: ('A' for Active; 'I' for Inactive)
REMARK    1  A    between atoms: C1_2  and  C2_3 
REMARK    2  A    between atoms: C1_2  and  O2_10 
REMARK    3  A    between atoms: C3_4  and  C4_5 
REMARK    4  A    between atoms: O2_10  and  C8_11 
REMARK    5  A    between atoms: C10_13  and  O3_14 
REMARK    6  A    between atoms: C15_20  and  O4_21 
ROOT
HETATM    1  C8  UNL     1      15.919  68.379   3.750  1.00  0.00     0.164 C 
HETATM    2  C9  UNL     1      14.680  67.556   3.891  1.00  0.00     0.073 C 
HETATM    3  C10 UNL     1      14.968  66.574   5.029  1.00  0.00     0.066 C 
HETATM    4  C11 UNL     1      13.866  66.548   6.036  1.00  0.00     0.038 C 
HETATM    5  C12 UNL     1      14.345  67.304   7.257  1.00  0.00     0.004 C 
HETATM    6  C13 UNL     1      15.462  68.159   6.687  1.00  0.00     0.010 C 
HETATM    7  C14 UNL     1      16.148  67.181   5.760  1.00  0.00     0.051 C 
HETATM    8  C15 UNL     1      16.952  67.849   4.690  1.00  0.00     0.154 C 
ENDROOT
BRANCH   1   9
HETATM    9  O2  UNL     1      16.370  68.500   2.427  1.00  0.00    -0.310 OA
BRANCH   9  10
HETATM   10  C1  UNL     1      16.800  69.725   1.882  1.00  0.00     0.283 C 
HETATM   11  O1  UNL     1      15.903  70.389   1.295  1.00  0.00    -0.260 OA
BRANCH  10  12
HETATM   12  C2  UNL     1      18.172  70.173   1.995  1.00  0.00     0.083 C 
HETATM   13  C3  UNL     1      19.156  69.316   2.000  1.00  0.00     0.025 C 
BRANCH  13  14
HETATM   14  C4  UNL     1      20.569  69.746   2.115  1.00  0.00     0.005 A 
HETATM   15  C5  UNL     1      21.332  70.310   1.129  1.00  0.00     0.019 A 
HETATM   16  C6  UNL     1      22.604  70.628   1.449  1.00  0.00     0.008 A 
HETATM   17  C7  UNL     1      23.018  70.361   2.723  1.00  0.00     0.050 A 
HETATM   18  S1  UNL     1      21.630  69.677   3.438  1.00  0.00    -0.102 SA
ENDBRANCH  13  14
ENDBRANCH  10  12
ENDBRANCH   9  10
ENDBRANCH   1   9
BRANCH   8  19
HETATM   19  O4  UNL     1      17.675  68.911   5.241  1.00  0.00    -0.392 OA
ATOM     20  H4  UNL     1      18.006  68.662   6.096  1.00  0.00     0.210 HD
ENDBRANCH   8  19
BRANCH   3  21
HETATM   21  O3  UNL     1      15.290  65.332   4.526  1.00  0.00    -0.389 OA
ATOM     22  H3  UNL     1      15.857  64.865   5.129  1.00  0.00     0.210 HD
ENDBRANCH   3  21
TORSDOF 6
ENDMDL
