MODEL 1
REMARK VINA RESULT: -10.623014262      0.000      0.000
REMARK  0 active torsions:
REMARK  status: ('A' for Active; 'I' for Inactive)
ROOT
HETATM    1  O1  UNL     1      20.870  16.760 -21.398  1.00  0.00    -0.285 OA
HETATM    2  C1  UNL     1      20.764  17.893 -21.818  1.00  0.00     0.210 C 
HETATM    3  C2  UNL     1      19.959  18.061 -22.946  1.00  0.00     0.028 A 
HETATM    4  C3  UNL     1      20.034  17.027 -23.822  1.00  0.00     0.016 A 
HETATM    5  C4  UNL     1      19.425  17.122 -25.052  1.00  0.00     0.001 A 
HETATM    6  C5  UNL     1      18.745  18.276 -25.382  1.00  0.00     0.001 A 
HETATM    7  C6  UNL     1      18.644  19.364 -24.508  1.00  0.00     0.013 A 
HETATM    8  C7  UNL     1      19.256  19.218 -23.300  1.00  0.00    -0.007 A 
HETATM    9  C8  UNL     1      19.033  20.302 -22.463  1.00  0.00     0.032 A 
HETATM   10  C9  UNL     1      17.899  21.049 -22.513  1.00  0.00     0.005 A 
HETATM   11  C10 UNL     1      16.709  20.987 -23.167  1.00  0.00     0.014 A 
HETATM   12  C11 UNL     1      15.761  21.952 -22.887  1.00  0.00     0.001 A 
HETATM   13  C12 UNL     1      15.988  22.957 -21.973  1.00  0.00     0.002 A 
HETATM   14  C13 UNL     1      17.190  23.038 -21.292  1.00  0.00     0.030 A 
HETATM   15  C14 UNL     1      18.123  22.071 -21.581  1.00  0.00     0.044 A 
HETATM   16  N1  UNL     1      19.340  21.915 -21.003  1.00  0.00    -0.341 N 
ATOM     17  H1  UNL     1      19.742  22.525 -20.290  1.00  0.00     0.167 HD
HETATM   18  C15 UNL     1      19.922  20.840 -21.514  1.00  0.00     0.124 A 
HETATM   19  N2  UNL     1      21.076  20.273 -21.108  1.00  0.00    -0.304 N 
HETATM   20  C16 UNL     1      22.015  20.971 -20.466  1.00  0.00     0.099 A 
HETATM   21  C17 UNL     1      23.023  20.083 -20.124  1.00  0.00     0.020 A 
HETATM   22  C18 UNL     1      22.639  18.845 -20.588  1.00  0.00     0.035 A 
HETATM   23  C19 UNL     1      21.419  18.964 -21.207  1.00  0.00     0.091 A 
ENDROOT
TORSDOF 0
ENDMDL
MODEL 2
REMARK VINA RESULT: -8.990587083      2.545      6.157
REMARK  0 active torsions:
REMARK  status: ('A' for Active; 'I' for Inactive)
ROOT
HETATM    1  O1  UNL     1      15.687  21.804 -20.936  1.00  0.00    -0.285 OA
HETATM    2  C1  UNL     1      16.431  21.666 -21.884  1.00  0.00     0.210 C 
HETATM    3  C2  UNL     1      17.799  21.681 -21.603  1.00  0.00     0.028 A 
HETATM    4  C3  UNL     1      18.135  22.538 -20.606  1.00  0.00     0.016 A 
HETATM    5  C4  UNL     1      19.460  22.781 -20.328  1.00  0.00     0.001 A 
HETATM    6  C5  UNL     1      20.435  22.149 -21.072  1.00  0.00     0.001 A 
HETATM    7  C6  UNL     1      20.129  21.258 -22.107  1.00  0.00     0.013 A 
HETATM    8  C7  UNL     1      18.804  21.044 -22.338  1.00  0.00    -0.007 A 
HETATM    9  C8  UNL     1      18.589  20.084 -23.317  1.00  0.00     0.032 A 
HETATM   10  C9  UNL     1      19.446  19.053 -23.536  1.00  0.00     0.005 A 
HETATM   11  C10 UNL     1      20.561  18.556 -22.937  1.00  0.00     0.014 A 
HETATM   12  C11 UNL     1      21.127  17.410 -23.461  1.00  0.00     0.001 A 
HETATM   13  C12 UNL     1      20.594  16.767 -24.556  1.00  0.00     0.002 A 
HETATM   14  C13 UNL     1      19.458  17.250 -25.180  1.00  0.00     0.030 A 
HETATM   15  C14 UNL     1      18.907  18.391 -24.648  1.00  0.00     0.044 A 
HETATM   16  N1  UNL     1      17.770  19.012 -25.052  1.00  0.00    -0.341 N 
ATOM     17  H1  UNL     1      17.186  18.728 -25.838  1.00  0.00     0.167 HD
HETATM   18  C15 UNL     1      17.543  20.049 -24.258  1.00  0.00     0.124 A 
HETATM   19  N2  UNL     1      16.448  20.835 -24.245  1.00  0.00    -0.304 N 
HETATM   20  C16 UNL     1      15.672  20.976 -25.321  1.00  0.00     0.099 A 
HETATM   21  C17 UNL     1      14.602  21.777 -24.951  1.00  0.00     0.020 A 
HETATM   22  C18 UNL     1      14.783  22.098 -23.625  1.00  0.00     0.035 A 
HETATM   23  C19 UNL     1      15.942  21.509 -23.182  1.00  0.00     0.091 A 
ENDROOT
TORSDOF 0
ENDMDL
MODEL 3
REMARK VINA RESULT: -8.853970590      2.153      4.263
REMARK  0 active torsions:
REMARK  status: ('A' for Active; 'I' for Inactive)
ROOT
HETATM    1  O1  UNL     1      21.596  21.209 -22.395  1.00  0.00    -0.285 OA
HETATM    2  C1  UNL     1      20.520  20.656 -22.315  1.00  0.00     0.210 C 
HETATM    3  C2  UNL     1      19.487  21.395 -21.736  1.00  0.00     0.028 A 
HETATM    4  C3  UNL     1      19.901  22.204 -20.728  1.00  0.00     0.016 A 
HETATM    5  C4  UNL     1      18.976  22.869 -19.957  1.00  0.00     0.001 A 
HETATM    6  C5  UNL     1      17.632  22.702 -20.218  1.00  0.00     0.001 A 
HETATM    7  C6  UNL     1      17.164  21.878 -21.248  1.00  0.00     0.013 A 
HETATM    8  C7  UNL     1      18.118  21.248 -21.988  1.00  0.00    -0.007 A 
HETATM    9  C8  UNL     1      17.576  20.524 -23.040  1.00  0.00     0.032 A 
HETATM   10  C9  UNL     1      16.425  20.887 -23.665  1.00  0.00     0.005 A 
HETATM   11  C10 UNL     1      15.575  21.947 -23.624  1.00  0.00     0.014 A 
HETATM   12  C11 UNL     1      14.504  21.959 -24.497  1.00  0.00     0.001 A 
HETATM   13  C12 UNL     1      14.283  20.938 -25.395  1.00  0.00     0.002 A 
HETATM   14  C13 UNL     1      15.136  19.851 -25.459  1.00  0.00     0.030 A 
HETATM   15  C14 UNL     1      16.196  19.854 -24.585  1.00  0.00     0.044 A 
HETATM   16  N1  UNL     1      17.187  18.931 -24.503  1.00  0.00    -0.341 N 
ATOM     17  H1  UNL     1      17.257  18.083 -25.066  1.00  0.00     0.167 HD
HETATM   18  C15 UNL     1      18.050  19.311 -23.572  1.00  0.00     0.124 A 
HETATM   19  N2  UNL     1      19.236  18.738 -23.284  1.00  0.00    -0.304 N 
HETATM   20  C16 UNL     1      19.483  17.456 -23.560  1.00  0.00     0.099 A 
HETATM   21  C17 UNL     1      20.803  17.210 -23.217  1.00  0.00     0.020 A 
HETATM   22  C18 UNL     1      21.316  18.391 -22.731  1.00  0.00     0.035 A 
HETATM   23  C19 UNL     1      20.333  19.349 -22.771  1.00  0.00     0.091 A 
ENDROOT
TORSDOF 0
ENDMDL
MODEL 4
REMARK VINA RESULT: -8.824882356      2.356      6.026
REMARK  0 active torsions:
REMARK  status: ('A' for Active; 'I' for Inactive)
ROOT
HETATM    1  O1  UNL     1      15.546  20.463 -20.853  1.00  0.00    -0.285 OA
HETATM    2  C1  UNL     1      16.419  20.468 -21.694  1.00  0.00     0.210 C 
HETATM    3  C2  UNL     1      17.596  21.142 -21.360  1.00  0.00     0.028 A 
HETATM    4  C3  UNL     1      17.386  22.250 -20.605  1.00  0.00     0.016 A 
HETATM    5  C4  UNL     1      18.430  23.104 -20.335  1.00  0.00     0.001 A 
HETATM    6  C5  UNL     1      19.683  22.823 -20.840  1.00  0.00     0.001 A 
HETATM    7  C6  UNL     1      19.940  21.691 -21.621  1.00  0.00     0.013 A 
HETATM    8  C7  UNL     1      18.877  20.872 -21.854  1.00  0.00    -0.007 A 
HETATM    9  C8  UNL     1      19.234  19.732 -22.559  1.00  0.00     0.032 A 
HETATM   10  C9  UNL     1      20.464  19.162 -22.459  1.00  0.00     0.005 A 
HETATM   11  C10 UNL     1      21.575  19.346 -21.698  1.00  0.00     0.014 A 
HETATM   12  C11 UNL     1      22.639  18.483 -21.877  1.00  0.00     0.001 A 
HETATM   13  C12 UNL     1      22.599  17.455 -22.792  1.00  0.00     0.002 A 
HETATM   14  C13 UNL     1      21.478  17.244 -23.576  1.00  0.00     0.030 A 
HETATM   15  C14 UNL     1      20.429  18.111 -23.386  1.00  0.00     0.044 A 
HETATM   16  N1  UNL     1      19.216  18.067 -23.993  1.00  0.00    -0.341 N 
ATOM     17  H1  UNL     1      18.933  17.394 -24.706  1.00  0.00     0.167 HD
HETATM   18  C15 UNL     1      18.459  19.040 -23.508  1.00  0.00     0.124 A 
HETATM   19  N2  UNL     1      17.150  19.248 -23.754  1.00  0.00    -0.304 N 
HETATM   20  C16 UNL     1      16.564  18.801 -24.866  1.00  0.00     0.099 A 
HETATM   21  C17 UNL     1      15.216  19.107 -24.771  1.00  0.00     0.020 A 
HETATM   22  C18 UNL     1      15.036  19.749 -23.566  1.00  0.00     0.035 A 
HETATM   23  C19 UNL     1      16.250  19.839 -22.929  1.00  0.00     0.091 A 
ENDROOT
TORSDOF 0
ENDMDL
MODEL 5
REMARK VINA RESULT: -8.246797623      1.539      2.343
REMARK  0 active torsions:
REMARK  status: ('A' for Active; 'I' for Inactive)
ROOT
HETATM    1  O1  UNL     1      19.904  18.274 -20.435  1.00  0.00    -0.285 OA
HETATM    2  C1  UNL     1      19.651  19.110 -21.275  1.00  0.00     0.210 C 
HETATM    3  C2  UNL     1      19.333  18.632 -22.548  1.00  0.00     0.028 A 
HETATM    4  C3  UNL     1      20.031  17.522 -22.897  1.00  0.00     0.016 A 
HETATM    5  C4  UNL     1      19.945  17.031 -24.179  1.00  0.00     0.001 A 
HETATM    6  C5  UNL     1      19.147  17.680 -25.100  1.00  0.00     0.001 A 
HETATM    7  C6  UNL     1      18.412  18.827 -24.779  1.00  0.00     0.013 A 
HETATM    8  C7  UNL     1      18.524  19.268 -23.496  1.00  0.00    -0.007 A 
HETATM    9  C8  UNL     1      17.697  20.353 -23.238  1.00  0.00     0.032 A 
HETATM   10  C9  UNL     1      16.510  20.538 -23.872  1.00  0.00     0.005 A 
HETATM   11  C10 UNL     1      15.735  19.831 -24.736  1.00  0.00     0.014 A 
HETATM   12  C11 UNL     1      14.520  20.370 -25.115  1.00  0.00     0.001 A 
HETATM   13  C12 UNL     1      14.082  21.586 -24.640  1.00  0.00     0.002 A 
HETATM   14  C13 UNL     1      14.850  22.322 -23.756  1.00  0.00     0.030 A 
HETATM   15  C14 UNL     1      16.055  21.773 -23.390  1.00  0.00     0.044 A 
HETATM   16  N1  UNL     1      16.944  22.280 -22.499  1.00  0.00    -0.341 N 
ATOM     17  H1  UNL     1      16.848  23.167 -22.003  1.00  0.00     0.167 HD
HETATM   18  C15 UNL     1      17.958  21.435 -22.379  1.00  0.00     0.124 A 
HETATM   19  N2  UNL     1      18.975  21.510 -21.496  1.00  0.00    -0.304 N 
HETATM   20  C16 UNL     1      19.353  22.670 -20.956  1.00  0.00     0.099 A 
HETATM   21  C17 UNL     1      20.357  22.389 -20.043  1.00  0.00     0.020 A 
HETATM   22  C18 UNL     1      20.551  21.027 -20.070  1.00  0.00     0.035 A 
HETATM   23  C19 UNL     1      19.686  20.475 -20.983  1.00  0.00     0.091 A 
ENDROOT
TORSDOF 0
ENDMDL
