MODEL 1
REMARK VINA RESULT: -8.183642445      0.000      0.000
REMARK  2 active torsions:
REMARK  status: ('A' for Active; 'I' for Inactive)
REMARK       I    between atoms: C1_2  and  N1_3 
REMARK    1  A    between atoms: C1_2  and  C12_18 
REMARK    2  A    between atoms: N1_3  and  C2_5 
ROOT
HETATM    1  C2  UNL     1      17.316  21.686 -22.253  1.00  0.00     0.152 A 
HETATM    2  N2  UNL     1      16.605  21.269 -23.290  1.00  0.00    -0.335 N 
ATOM      3  H2  UNL     1      16.888  20.445 -23.820  1.00  0.00     0.168 HD
HETATM    4  C3  UNL     1      15.522  21.948 -23.620  1.00  0.00     0.058 A 
HETATM    5  C4  UNL     1      15.198  23.038 -22.873  1.00  0.00     0.018 A 
HETATM    6  S1  UNL     1      16.471  23.054 -21.711  1.00  0.00    -0.056 SA
HETATM    7  C5  UNL     1      13.943  23.709 -23.361  1.00  0.00     0.088 A 
HETATM    8  C6  UNL     1      13.560  22.879 -24.500  1.00  0.00    -0.041 A 
HETATM    9  C7  UNL     1      12.461  23.027 -25.352  1.00  0.00     0.008 A 
HETATM   10  C8  UNL     1      12.252  22.145 -26.382  1.00  0.00     0.001 A 
HETATM   11  C9  UNL     1      13.150  21.115 -26.555  1.00  0.00     0.001 A 
HETATM   12  C10 UNL     1      14.229  20.975 -25.714  1.00  0.00     0.014 A 
HETATM   13  C11 UNL     1      14.459  21.861 -24.661  1.00  0.00    -0.002 A 
ENDROOT
BRANCH   1  14
HETATM   14  N1  UNL     1      18.415  21.171 -21.753  1.00  0.00    -0.303 N 
HETATM   15  C1  UNL     1      18.371  19.784 -21.393  1.00  0.00     0.257 C 
HETATM   16  O1  UNL     1      17.315  19.386 -20.843  1.00  0.00    -0.267 OA
ATOM     17  H1  UNL     1      19.259  21.729 -21.627  1.00  0.00     0.171 HD
BRANCH  15  18
HETATM   18  C12 UNL     1      19.471  18.878 -21.644  1.00  0.00     0.032 A 
HETATM   19  C13 UNL     1      20.425  19.232 -22.574  1.00  0.00     0.017 A 
HETATM   20  C14 UNL     1      21.472  18.403 -22.836  1.00  0.00     0.001 A 
HETATM   21  C15 UNL     1      21.602  17.194 -22.176  1.00  0.00     0.000 A 
HETATM   22  C16 UNL     1      20.673  16.819 -21.250  1.00  0.00     0.001 A 
HETATM   23  C17 UNL     1      19.611  17.667 -20.990  1.00  0.00     0.017 A 
ENDBRANCH  15  18
ENDBRANCH   1  14
TORSDOF 2
ENDMDL
MODEL 2
REMARK VINA RESULT: -8.131233113      2.176      7.996
REMARK  2 active torsions:
REMARK  status: ('A' for Active; 'I' for Inactive)
REMARK       I    between atoms: C1_2  and  N1_3 
REMARK    1  A    between atoms: C1_2  and  C12_18 
REMARK    2  A    between atoms: N1_3  and  C2_5 
ROOT
HETATM    1  C2  UNL     1      17.845  19.639 -24.176  1.00  0.00     0.152 A 
HETATM    2  N2  UNL     1      18.620  20.129 -23.221  1.00  0.00    -0.335 N 
ATOM      3  H2  UNL     1      18.367  20.987 -22.731  1.00  0.00     0.168 HD
HETATM    4  C3  UNL     1      19.729  19.479 -22.918  1.00  0.00     0.058 A 
HETATM    5  C4  UNL     1      20.011  18.341 -23.608  1.00  0.00     0.018 A 
HETATM    6  S1  UNL     1      18.663  18.239 -24.676  1.00  0.00    -0.056 SA
HETATM    7  C5  UNL     1      21.299  17.708 -23.157  1.00  0.00     0.088 A 
HETATM    8  C6  UNL     1      21.752  18.618 -22.110  1.00  0.00    -0.041 A 
HETATM    9  C7  UNL     1      22.909  18.536 -21.328  1.00  0.00     0.008 A 
HETATM   10  C8  UNL     1      23.181  19.489 -20.379  1.00  0.00     0.001 A 
HETATM   11  C9  UNL     1      22.288  20.527 -20.219  1.00  0.00     0.001 A 
HETATM   12  C10 UNL     1      21.153  20.603 -20.991  1.00  0.00     0.014 A 
HETATM   13  C11 UNL     1      20.858  19.643 -21.960  1.00  0.00    -0.002 A 
ENDROOT
BRANCH   1  14
HETATM   14  N1  UNL     1      16.710  20.113 -24.635  1.00  0.00    -0.303 N 
HETATM   15  C1  UNL     1      15.906  20.863 -23.715  1.00  0.00     0.257 C 
HETATM   16  O1  UNL     1      15.846  20.420 -22.542  1.00  0.00    -0.267 OA
ATOM     17  H1  UNL     1      16.416  19.957 -25.598  1.00  0.00     0.171 HD
BRANCH  15  18
HETATM   18  C12 UNL     1      15.198  22.064 -24.098  1.00  0.00     0.032 A 
HETATM   19  C13 UNL     1      14.980  23.040 -23.148  1.00  0.00     0.017 A 
HETATM   20  C14 UNL     1      14.316  24.181 -23.473  1.00  0.00     0.001 A 
HETATM   21  C15 UNL     1      13.849  24.389 -24.759  1.00  0.00     0.000 A 
HETATM   22  C16 UNL     1      14.050  23.442 -25.718  1.00  0.00     0.001 A 
HETATM   23  C17 UNL     1      14.726  22.283 -25.380  1.00  0.00     0.017 A 
ENDBRANCH  15  18
ENDBRANCH   1  14
TORSDOF 2
ENDMDL
MODEL 3
REMARK VINA RESULT: -8.120944683      2.173      7.970
REMARK  2 active torsions:
REMARK  status: ('A' for Active; 'I' for Inactive)
REMARK       I    between atoms: C1_2  and  N1_3 
REMARK    1  A    between atoms: C1_2  and  C12_18 
REMARK    2  A    between atoms: N1_3  and  C2_5 
ROOT
HETATM    1  C2  UNL     1      17.844  19.694 -24.175  1.00  0.00     0.152 A 
HETATM    2  N2  UNL     1      18.619  20.183 -23.219  1.00  0.00    -0.335 N 
ATOM      3  H2  UNL     1      18.369  21.043 -22.731  1.00  0.00     0.168 HD
HETATM    4  C3  UNL     1      19.724  19.528 -22.913  1.00  0.00     0.058 A 
HETATM    5  C4  UNL     1      20.002  18.387 -23.599  1.00  0.00     0.018 A 
HETATM    6  S1  UNL     1      18.656  18.289 -24.670  1.00  0.00    -0.056 SA
HETATM    7  C5  UNL     1      21.287  17.750 -23.144  1.00  0.00     0.088 A 
HETATM    8  C6  UNL     1      21.743  18.661 -22.099  1.00  0.00    -0.041 A 
HETATM    9  C7  UNL     1      22.897  18.575 -21.314  1.00  0.00     0.008 A 
HETATM   10  C8  UNL     1      23.172  19.529 -20.368  1.00  0.00     0.001 A 
HETATM   11  C9  UNL     1      22.284  20.571 -20.211  1.00  0.00     0.001 A 
HETATM   12  C10 UNL     1      21.150  20.650 -20.986  1.00  0.00     0.014 A 
HETATM   13  C11 UNL     1      20.853  19.690 -21.953  1.00  0.00    -0.002 A 
ENDROOT
BRANCH   1  14
HETATM   14  N1  UNL     1      16.712  20.172 -24.636  1.00  0.00    -0.303 N 
HETATM   15  C1  UNL     1      15.888  20.888 -23.708  1.00  0.00     0.257 C 
HETATM   16  O1  UNL     1      15.814  20.411 -22.548  1.00  0.00    -0.267 OA
ATOM     17  H1  UNL     1      16.433  20.041 -25.608  1.00  0.00     0.171 HD
BRANCH  15  18
HETATM   18  C12 UNL     1      15.175  22.095 -24.067  1.00  0.00     0.032 A 
HETATM   19  C13 UNL     1      14.760  22.259 -25.371  1.00  0.00     0.017 A 
HETATM   20  C14 UNL     1      14.088  23.382 -25.744  1.00  0.00     0.001 A 
HETATM   21  C15 UNL     1      13.807  24.378 -24.826  1.00  0.00     0.000 A 
HETATM   22  C16 UNL     1      14.206  24.242 -23.529  1.00  0.00     0.001 A 
HETATM   23  C17 UNL     1      14.888  23.098 -23.158  1.00  0.00     0.017 A 
ENDBRANCH  15  18
ENDBRANCH   1  14
TORSDOF 2
ENDMDL
MODEL 4
REMARK VINA RESULT: -8.081873672      1.578      1.684
REMARK  2 active torsions:
REMARK  status: ('A' for Active; 'I' for Inactive)
REMARK       I    between atoms: C1_2  and  N1_3 
REMARK    1  A    between atoms: C1_2  and  C12_18 
REMARK    2  A    between atoms: N1_3  and  C2_5 
ROOT
HETATM    1  C2  UNL     1      16.859  20.549 -22.909  1.00  0.00     0.152 A 
HETATM    2  N2  UNL     1      16.102  20.695 -23.986  1.00  0.00    -0.335 N 
ATOM      3  H2  UNL     1      16.109  19.996 -24.729  1.00  0.00     0.168 HD
HETATM    4  C3  UNL     1      15.337  21.768 -24.073  1.00  0.00     0.058 A 
HETATM    5  C4  UNL     1      15.372  22.663 -23.049  1.00  0.00     0.018 A 
HETATM    6  S1  UNL     1      16.511  21.929 -21.985  1.00  0.00    -0.056 SA
HETATM    7  C5  UNL     1      14.452  23.830 -23.283  1.00  0.00     0.088 A 
HETATM    8  C6  UNL     1      13.865  23.518 -24.583  1.00  0.00    -0.041 A 
HETATM    9  C7  UNL     1      12.929  24.257 -25.314  1.00  0.00     0.008 A 
HETATM   10  C8  UNL     1      12.481  23.809 -26.530  1.00  0.00     0.001 A 
HETATM   11  C9  UNL     1      12.976  22.617 -27.013  1.00  0.00     0.001 A 
HETATM   12  C10 UNL     1      13.896  21.895 -26.290  1.00  0.00     0.014 A 
HETATM   13  C11 UNL     1      14.364  22.333 -25.050  1.00  0.00    -0.002 A 
ENDROOT
BRANCH   1  14
HETATM   14  N1  UNL     1      17.686  19.573 -22.616  1.00  0.00    -0.303 N 
HETATM   15  C1  UNL     1      18.766  19.345 -23.530  1.00  0.00     0.257 C 
HETATM   16  O1  UNL     1      18.489  19.440 -24.751  1.00  0.00    -0.267 OA
ATOM     17  H1  UNL     1      17.566  19.004 -21.778  1.00  0.00     0.171 HD
BRANCH  15  18
HETATM   18  C12 UNL     1      20.106  19.025 -23.090  1.00  0.00     0.032 A 
HETATM   19  C13 UNL     1      20.857  20.006 -22.478  1.00  0.00     0.017 A 
HETATM   20  C14 UNL     1      22.122  19.739 -22.053  1.00  0.00     0.001 A 
HETATM   21  C15 UNL     1      22.678  18.484 -22.222  1.00  0.00     0.000 A 
HETATM   22  C16 UNL     1      21.957  17.495 -22.825  1.00  0.00     0.001 A 
HETATM   23  C17 UNL     1      20.673  17.773 -23.255  1.00  0.00     0.017 A 
ENDBRANCH  15  18
ENDBRANCH   1  14
TORSDOF 2
ENDMDL
MODEL 5
REMARK VINA RESULT: -7.996005041      1.624      1.853
REMARK  2 active torsions:
REMARK  status: ('A' for Active; 'I' for Inactive)
REMARK       I    between atoms: C1_2  and  N1_3 
REMARK    1  A    between atoms: C1_2  and  C12_18 
REMARK    2  A    between atoms: N1_3  and  C2_5 
ROOT
HETATM    1  C2  UNL     1      16.710  20.626 -23.011  1.00  0.00     0.152 A 
HETATM    2  N2  UNL     1      15.966  20.786 -24.095  1.00  0.00    -0.335 N 
ATOM      3  H2  UNL     1      15.986  20.099 -24.849  1.00  0.00     0.168 HD
HETATM    4  C3  UNL     1      15.199  21.857 -24.175  1.00  0.00     0.058 A 
HETATM    5  C4  UNL     1      15.217  22.736 -23.137  1.00  0.00     0.018 A 
HETATM    6  S1  UNL     1      16.344  21.988 -22.069  1.00  0.00    -0.056 SA
HETATM    7  C5  UNL     1      14.296  23.903 -23.364  1.00  0.00     0.088 A 
HETATM    8  C6  UNL     1      13.726  23.610 -24.676  1.00  0.00    -0.041 A 
HETATM    9  C7  UNL     1      12.797  24.357 -25.407  1.00  0.00     0.008 A 
HETATM   10  C8  UNL     1      12.367  23.927 -26.636  1.00  0.00     0.001 A 
HETATM   11  C9  UNL     1      12.873  22.745 -27.131  1.00  0.00     0.001 A 
HETATM   12  C10 UNL     1      13.786  22.015 -26.408  1.00  0.00     0.014 A 
HETATM   13  C11 UNL     1      14.236  22.435 -25.156  1.00  0.00    -0.002 A 
ENDROOT
BRANCH   1  14
HETATM   14  N1  UNL     1      17.537  19.648 -22.722  1.00  0.00    -0.303 N 
HETATM   15  C1  UNL     1      18.615  19.423 -23.639  1.00  0.00     0.257 C 
HETATM   16  O1  UNL     1      18.337  19.523 -24.859  1.00  0.00    -0.267 OA
ATOM     17  H1  UNL     1      17.417  19.076 -21.887  1.00  0.00     0.171 HD
BRANCH  15  18
HETATM   18  C12 UNL     1      19.956  19.100 -23.202  1.00  0.00     0.032 A 
HETATM   19  C13 UNL     1      20.434  17.824 -23.409  1.00  0.00     0.017 A 
HETATM   20  C14 UNL     1      21.690  17.485 -23.009  1.00  0.00     0.001 A 
HETATM   21  C15 UNL     1      22.511  18.411 -22.391  1.00  0.00     0.000 A 
HETATM   22  C16 UNL     1      22.064  19.681 -22.174  1.00  0.00     0.001 A 
HETATM   23  C17 UNL     1      20.787  20.017 -22.582  1.00  0.00     0.017 A 
ENDBRANCH  15  18
ENDBRANCH   1  14
TORSDOF 2
ENDMDL
