MODEL 1
REMARK VINA RESULT: -10.023815980      0.000      0.000
REMARK  0 active torsions:
REMARK  status: ('A' for Active; 'I' for Inactive)
ROOT
HETATM    1  C1  UNL     1      19.500  21.545 -20.683  1.00  0.00     0.050 C 
HETATM    2  C2  UNL     1      19.609  20.612 -21.797  1.00  0.00    -0.038 A 
HETATM    3  C3  UNL     1      20.765  19.750 -21.814  1.00  0.00    -0.010 A 
HETATM    4  C4  UNL     1      21.848  19.853 -21.015  1.00  0.00     0.020 A 
HETATM    5  C5  UNL     1      22.862  18.948 -21.193  1.00  0.00     0.051 A 
HETATM    6  S1  UNL     1      22.287  17.978 -22.467  1.00  0.00    -0.099 SA
HETATM    7  C6  UNL     1      20.793  18.740 -22.734  1.00  0.00     0.040 A 
HETATM    8  C7  UNL     1      19.791  18.509 -23.632  1.00  0.00     0.075 A 
HETATM    9  N1  UNL     1      19.839  17.447 -24.578  1.00  0.00    -0.100 NA
HETATM   10  C8  UNL     1      18.670  19.330 -23.638  1.00  0.00     0.001 A 
HETATM   11  C9  UNL     1      17.683  19.067 -24.555  1.00  0.00     0.016 A 
HETATM   12  C10 UNL     1      16.590  19.864 -24.578  1.00  0.00     0.031 A 
HETATM   13  C11 UNL     1      16.481  20.917 -23.698  1.00  0.00     0.045 A 
HETATM   14  C12 UNL     1      17.478  21.194 -22.761  1.00  0.00     0.003 A 
HETATM   15  C13 UNL     1      17.366  22.284 -21.960  1.00  0.00     0.016 A 
HETATM   16  C14 UNL     1      16.233  23.109 -22.079  1.00  0.00     0.025 A 
HETATM   17  C15 UNL     1      15.278  22.799 -23.001  1.00  0.00     0.007 A 
HETATM   18  C16 UNL     1      14.074  23.648 -23.143  1.00  0.00     0.068 C 
HETATM   19  N2  UNL     1      15.410  21.727 -23.784  1.00  0.00    -0.354 N 
HETATM   20  C17 UNL     1      14.394  21.396 -24.771  1.00  0.00     0.156 C 
HETATM   21  C18 UNL     1      18.611  20.383 -22.706  1.00  0.00    -0.005 A 
ENDROOT
TORSDOF 0
ENDMDL
MODEL 2
REMARK VINA RESULT: -9.866458674      1.594      2.960
REMARK  0 active torsions:
REMARK  status: ('A' for Active; 'I' for Inactive)
ROOT
HETATM    1  C1  UNL     1      18.749  18.608 -24.821  1.00  0.00     0.050 C 
HETATM    2  C2  UNL     1      19.114  19.144 -23.516  1.00  0.00    -0.038 A 
HETATM    3  C3  UNL     1      20.321  18.630 -22.916  1.00  0.00    -0.010 A 
HETATM    4  C4  UNL     1      21.036  17.569 -23.345  1.00  0.00     0.020 A 
HETATM    5  C5  UNL     1      22.150  17.217 -22.629  1.00  0.00     0.051 A 
HETATM    6  S1  UNL     1      22.176  18.367 -21.375  1.00  0.00    -0.099 SA
HETATM    7  C6  UNL     1      20.787  19.252 -21.792  1.00  0.00     0.040 A 
HETATM    8  C7  UNL     1      20.174  20.325 -21.213  1.00  0.00     0.075 A 
HETATM    9  N1  UNL     1      20.681  20.960 -20.045  1.00  0.00    -0.100 NA
HETATM   10  C8  UNL     1      19.007  20.833 -21.770  1.00  0.00     0.001 A 
HETATM   11  C9  UNL     1      18.418  21.913 -21.160  1.00  0.00     0.016 A 
HETATM   12  C10 UNL     1      17.277  22.413 -21.687  1.00  0.00     0.031 A 
HETATM   13  C11 UNL     1      16.723  21.841 -22.811  1.00  0.00     0.045 A 
HETATM   14  C12 UNL     1      17.313  20.744 -23.440  1.00  0.00     0.003 A 
HETATM   15  C13 UNL     1      16.699  20.165 -24.502  1.00  0.00     0.016 A 
HETATM   16  C14 UNL     1      15.479  20.695 -24.962  1.00  0.00     0.025 A 
HETATM   17  C15 UNL     1      14.941  21.774 -24.325  1.00  0.00     0.007 A 
HETATM   18  C16 UNL     1      13.661  22.354 -24.792  1.00  0.00     0.068 C 
HETATM   19  N2  UNL     1      15.557  22.323 -23.277  1.00  0.00    -0.354 N 
HETATM   20  C17 UNL     1      14.983  23.472 -22.594  1.00  0.00     0.156 C 
HETATM   21  C18 UNL     1      18.496  20.214 -22.926  1.00  0.00    -0.005 A 
ENDROOT
TORSDOF 0
ENDMDL
MODEL 3
REMARK VINA RESULT: -9.651358474      2.290      5.810
REMARK  0 active torsions:
REMARK  status: ('A' for Active; 'I' for Inactive)
ROOT
HETATM    1  C1  UNL     1      18.549  22.712 -21.143  1.00  0.00     0.050 C 
HETATM    2  C2  UNL     1      17.918  21.736 -22.023  1.00  0.00    -0.038 A 
HETATM    3  C3  UNL     1      16.623  22.083 -22.556  1.00  0.00    -0.010 A 
HETATM    4  C4  UNL     1      15.855  23.124 -22.171  1.00  0.00     0.020 A 
HETATM    5  C5  UNL     1      14.638  23.281 -22.783  1.00  0.00     0.051 A 
HETATM    6  S1  UNL     1      14.591  21.979 -23.877  1.00  0.00    -0.099 SA
HETATM    7  C6  UNL     1      16.100  21.279 -23.529  1.00  0.00     0.040 A 
HETATM    8  C7  UNL     1      16.734  20.174 -24.017  1.00  0.00     0.075 A 
HETATM    9  N1  UNL     1      16.172  19.355 -25.036  1.00  0.00    -0.100 NA
HETATM   10  C8  UNL     1      17.979  19.817 -23.515  1.00  0.00     0.001 A 
HETATM   11  C9  UNL     1      18.586  18.699 -24.030  1.00  0.00     0.016 A 
HETATM   12  C10 UNL     1      19.795  18.336 -23.544  1.00  0.00     0.031 A 
HETATM   13  C11 UNL     1      20.394  19.076 -22.549  1.00  0.00     0.045 A 
HETATM   14  C12 UNL     1      19.787  20.215 -22.018  1.00  0.00     0.003 A 
HETATM   15  C13 UNL     1      20.376  20.876 -20.990  1.00  0.00     0.016 A 
HETATM   16  C14 UNL     1      21.603  20.407 -20.487  1.00  0.00     0.025 A 
HETATM   17  C15 UNL     1      22.168  19.296 -21.040  1.00  0.00     0.007 A 
HETATM   18  C16 UNL     1      23.461  18.786 -20.532  1.00  0.00     0.068 C 
HETATM   19  N2  UNL     1      21.569  18.656 -22.045  1.00  0.00    -0.354 N 
HETATM   20  C17 UNL     1      22.168  17.469 -22.634  1.00  0.00     0.156 C 
HETATM   21  C18 UNL     1      18.546  20.621 -22.508  1.00  0.00    -0.005 A 
ENDROOT
TORSDOF 0
ENDMDL
MODEL 4
REMARK VINA RESULT: -8.999632556      2.451      6.491
REMARK  0 active torsions:
REMARK  status: ('A' for Active; 'I' for Inactive)
ROOT
HETATM    1  C1  UNL     1      16.781  19.094 -24.688  1.00  0.00     0.050 C 
HETATM    2  C2  UNL     1      17.006  20.277 -23.865  1.00  0.00    -0.038 A 
HETATM    3  C3  UNL     1      15.957  21.267 -23.849  1.00  0.00    -0.010 A 
HETATM    4  C4  UNL     1      14.882  21.303 -24.664  1.00  0.00     0.020 A 
HETATM    5  C5  UNL     1      13.998  22.339 -24.510  1.00  0.00     0.051 A 
HETATM    6  S1  UNL     1      14.682  23.239 -23.238  1.00  0.00    -0.099 SA
HETATM    7  C6  UNL     1      16.056  22.284 -22.942  1.00  0.00     0.040 A 
HETATM    8  C7  UNL     1      17.089  22.410 -22.059  1.00  0.00     0.075 A 
HETATM    9  N1  UNL     1      17.168  23.475 -21.119  1.00  0.00    -0.100 NA
HETATM   10  C8  UNL     1      18.113  21.472 -22.061  1.00  0.00     0.001 A 
HETATM   11  C9  UNL     1      19.135  21.632 -21.158  1.00  0.00     0.016 A 
HETATM   12  C10 UNL     1      20.143  20.729 -21.155  1.00  0.00     0.031 A 
HETATM   13  C11 UNL     1      20.138  19.679 -22.044  1.00  0.00     0.045 A 
HETATM   14  C12 UNL     1      19.104  19.506 -22.965  1.00  0.00     0.003 A 
HETATM   15  C13 UNL     1      19.171  18.499 -23.873  1.00  0.00     0.016 A 
HETATM   16  C14 UNL     1      20.281  17.634 -23.857  1.00  0.00     0.025 A 
HETATM   17  C15 UNL     1      21.265  17.831 -22.934  1.00  0.00     0.007 A 
HETATM   18  C16 UNL     1      22.440  16.932 -22.893  1.00  0.00     0.068 C 
HETATM   19  N2  UNL     1      21.184  18.832 -22.056  1.00  0.00    -0.354 N 
HETATM   20  C17 UNL     1      22.234  19.047 -21.073  1.00  0.00     0.156 C 
HETATM   21  C18 UNL     1      18.045  20.413 -22.985  1.00  0.00    -0.005 A 
ENDROOT
TORSDOF 0
ENDMDL
MODEL 5
REMARK VINA RESULT: -8.960558665      1.126      1.652
REMARK  0 active torsions:
REMARK  status: ('A' for Active; 'I' for Inactive)
ROOT
HETATM    1  C1  UNL     1      17.754  22.686 -20.957  1.00  0.00     0.050 C 
HETATM    2  C2  UNL     1      18.151  21.647 -21.899  1.00  0.00    -0.038 A 
HETATM    3  C3  UNL     1      19.380  20.947 -21.616  1.00  0.00    -0.010 A 
HETATM    4  C4  UNL     1      20.295  21.287 -20.684  1.00  0.00     0.020 A 
HETATM    5  C5  UNL     1      21.417  20.507 -20.575  1.00  0.00     0.051 A 
HETATM    6  S1  UNL     1      21.175  19.322 -21.772  1.00  0.00    -0.099 SA
HETATM    7  C6  UNL     1      19.673  19.845 -22.370  1.00  0.00     0.040 A 
HETATM    8  C7  UNL     1      18.869  19.378 -23.368  1.00  0.00     0.075 A 
HETATM    9  N1  UNL     1      19.191  18.225 -24.136  1.00  0.00    -0.100 NA
HETATM   10  C8  UNL     1      17.683  20.039 -23.662  1.00  0.00     0.001 A 
HETATM   11  C9  UNL     1      16.900  19.539 -24.673  1.00  0.00     0.016 A 
HETATM   12  C10 UNL     1      15.746  20.179 -24.975  1.00  0.00     0.031 A 
HETATM   13  C11 UNL     1      15.376  21.308 -24.281  1.00  0.00     0.045 A 
HETATM   14  C12 UNL     1      16.163  21.824 -23.251  1.00  0.00     0.003 A 
HETATM   15  C13 UNL     1      15.800  22.979 -22.638  1.00  0.00     0.016 A 
HETATM   16  C14 UNL     1      14.620  23.630 -23.045  1.00  0.00     0.025 A 
HETATM   17  C15 UNL     1      13.874  23.087 -24.048  1.00  0.00     0.007 A 
HETATM   18  C16 UNL     1      12.626  23.749 -24.492  1.00  0.00     0.068 C 
HETATM   19  N2  UNL     1      14.253  21.955 -24.643  1.00  0.00    -0.354 N 
HETATM   20  C17 UNL     1      13.460  21.376 -25.717  1.00  0.00     0.156 C 
HETATM   21  C18 UNL     1      17.352  21.181 -22.908  1.00  0.00    -0.005 A 
ENDROOT
TORSDOF 0
ENDMDL
