MODEL 1
REMARK VINA RESULT: -7.116262066      0.000      0.000
REMARK  8 active torsions:
REMARK  status: ('A' for Active; 'I' for Inactive)
REMARK    1  A    between atoms: C3_3  and  C4_4 
REMARK    2  A    between atoms: C4_4  and  C5_5 
REMARK    3  A    between atoms: C5_5  and  N1_6 
REMARK    4  A    between atoms: C6_7  and  N2_8 
REMARK    5  A    between atoms: N2_8  and  C7_10 
REMARK    6  A    between atoms: C7_10  and  C8_11 
REMARK    7  A    between atoms: C8_11  and  C9_12 
REMARK    8  A    between atoms: C9_12  and  N3_13 
ROOT
HETATM    1  C1  UNL     1      42.961  11.145  11.858  1.00  0.00     0.012 C 
HETATM    2  C2  UNL     1      41.956  11.467  12.452  1.00  0.00    -0.117 C 
HETATM    3  C3  UNL     1      40.764  11.842  13.183  1.00  0.00     0.094 C 
ENDROOT
BRANCH   3   4
HETATM    4  C4  UNL     1      39.600  11.846  12.198  1.00  0.00     0.033 C 
BRANCH   4   5
HETATM    5  C5  UNL     1      38.771  10.636  12.481  1.00  0.00     0.150 C 
BRANCH   5   6
HETATM    6  N1  UNL     1      38.092  10.111  11.332  1.00  0.00    -0.164 N 
HETATM    7  C6  UNL     1      36.770  10.170  11.140  1.00  0.00     0.683 A 
HETATM    8  N4  UNL     1      36.494   9.579   9.958  1.00  0.00    -0.173 N 
HETATM    9  C10 UNL     1      37.662   9.157   9.429  1.00  0.00     0.168 A 
ATOM     10  H4  UNL     1      35.570   9.470   9.540  1.00  0.00     0.186 HD
HETATM   11  N5  UNL     1      37.923   8.519   8.281  1.00  0.00    -0.323 N 
HETATM   12  C15 UNL     1      38.691   9.485  10.285  1.00  0.00     0.169 A 
HETATM   13  C11 UNL     1      39.212   8.226   8.020  1.00  0.00     0.139 A 
ATOM     14  H5  UNL     1      37.178   8.267   7.631  1.00  0.00     0.169 HD
HETATM   15  N6  UNL     1      39.448   7.579   6.851  1.00  0.00    -0.337 N 
HETATM   16  C14 UNL     1      40.245   8.546   8.864  1.00  0.00     0.122 A 
HETATM   17  C12 UNL     1      40.691   7.233   6.483  1.00  0.00     0.183 A 
ATOM     18  H6  UNL     1      38.664   7.351   6.239  1.00  0.00     0.168 HD
HETATM   19  N7  UNL     1      41.698   7.551   7.312  1.00  0.00    -0.337 N 
HETATM   20  C13 UNL     1      41.512   8.197   8.494  1.00  0.00     0.131 A 
ATOM     21  H7  UNL     1      42.648   7.294   7.043  1.00  0.00     0.168 HD
HETATM   22  N8  UNL     1      42.506   8.478   9.254  1.00  0.00    -0.383 N 
ATOM     23  H82 UNL     1      43.453   8.218   8.978  1.00  0.00     0.157 HD
ATOM     24  H81 UNL     1      42.367   8.963  10.141  1.00  0.00     0.157 HD
HETATM   25  N9  UNL     1      39.981   9.196  10.033  1.00  0.00    -0.333 N 
ATOM     26  H9  UNL     1      40.723   9.450  10.684  1.00  0.00     0.168 HD
BRANCH   7  27
HETATM   27  N2  UNL     1      35.923  10.703  11.954  1.00  0.00    -0.226 N 
ATOM     28  H2  UNL     1      35.870  10.324  12.900  1.00  0.00     0.177 HD
BRANCH  27  29
HETATM   29  C7  UNL     1      35.056  11.787  11.621  1.00  0.00     0.139 C 
BRANCH  29  30
HETATM   30  C8  UNL     1      35.948  13.012  11.374  1.00  0.00     0.047 C 
BRANCH  30  31
HETATM   31  C9  UNL     1      36.183  13.726  12.673  1.00  0.00     0.231 C 
BRANCH  31  32
HETATM   32  N3  UNL     1      34.864  14.062  13.220  1.00  0.00    -0.079 N 
ATOM     33  H33 UNL     1      34.122  14.040  12.521  1.00  0.00     0.274 HD
ATOM     34  H32 UNL     1      34.487  13.337  13.832  1.00  0.00     0.274 HD
ATOM     35  H31 UNL     1      34.956  14.967  13.680  1.00  0.00     0.274 HD
ENDBRANCH  31  32
ENDBRANCH  30  31
ENDBRANCH  29  30
ENDBRANCH  27  29
ENDBRANCH   7  27
ENDBRANCH   5   6
ENDBRANCH   4   5
ENDBRANCH   3   4
TORSDOF 8
ENDMDL
MODEL 2
REMARK VINA RESULT: -6.967620270      2.848      7.685
REMARK  8 active torsions:
REMARK  status: ('A' for Active; 'I' for Inactive)
REMARK    1  A    between atoms: C3_3  and  C4_4 
REMARK    2  A    between atoms: C4_4  and  C5_5 
REMARK    3  A    between atoms: C5_5  and  N1_6 
REMARK    4  A    between atoms: C6_7  and  N2_8 
REMARK    5  A    between atoms: N2_8  and  C7_10 
REMARK    6  A    between atoms: C7_10  and  C8_11 
REMARK    7  A    between atoms: C8_11  and  C9_12 
REMARK    8  A    between atoms: C9_12  and  N3_13 
ROOT
HETATM    1  C1  UNL     1      36.330   5.452   5.334  1.00  0.00     0.012 C 
HETATM    2  C2  UNL     1      36.100   6.298   6.170  1.00  0.00    -0.117 C 
HETATM    3  C3  UNL     1      35.810   7.320   7.153  1.00  0.00     0.094 C 
ENDROOT
BRANCH   3   4
HETATM    4  C4  UNL     1      37.067   7.529   7.988  1.00  0.00     0.033 C 
BRANCH   4   5
HETATM    5  C5  UNL     1      38.046   8.279   7.143  1.00  0.00     0.150 C 
BRANCH   5   6
HETATM    6  N1  UNL     1      39.418   8.013   7.462  1.00  0.00    -0.164 N 
HETATM    7  C6  UNL     1      40.173   7.092   6.856  1.00  0.00     0.683 A 
HETATM    8  N4  UNL     1      41.401   7.125   7.415  1.00  0.00    -0.173 N 
HETATM    9  C10 UNL     1      41.389   8.078   8.370  1.00  0.00     0.168 A 
ATOM     10  H4  UNL     1      42.195   6.538   7.161  1.00  0.00     0.186 HD
HETATM   11  N5  UNL     1      42.353   8.495   9.203  1.00  0.00    -0.323 N 
HETATM   12  C15 UNL     1      40.139   8.656   8.418  1.00  0.00     0.169 A 
HETATM   13  C11 UNL     1      42.036   9.483  10.062  1.00  0.00     0.139 A 
ATOM     14  H5  UNL     1      43.286   8.083   9.186  1.00  0.00     0.169 HD
HETATM   15  N6  UNL     1      43.030   9.886  10.894  1.00  0.00    -0.337 N 
HETATM   16  C14 UNL     1      40.796  10.065  10.121  1.00  0.00     0.122 A 
HETATM   17  C12 UNL     1      42.835  10.861  11.795  1.00  0.00     0.183 A 
ATOM     18  H6  UNL     1      43.944   9.438  10.833  1.00  0.00     0.168 HD
HETATM   19  N7  UNL     1      41.619  11.428  11.845  1.00  0.00    -0.337 N 
HETATM   20  C13 UNL     1      40.591  11.059  11.034  1.00  0.00     0.131 A 
ATOM     21  H7  UNL     1      41.458  12.172  12.525  1.00  0.00     0.168 HD
HETATM   22  N8  UNL     1      39.446  11.630  11.121  1.00  0.00    -0.383 N 
ATOM     23  H82 UNL     1      39.293  12.373  11.804  1.00  0.00     0.157 HD
ATOM     24  H81 UNL     1      38.676  11.353  10.512  1.00  0.00     0.157 HD
HETATM   25  N9  UNL     1      39.815   9.642   9.274  1.00  0.00    -0.333 N 
ATOM     26  H9  UNL     1      38.881  10.053   9.288  1.00  0.00     0.168 HD
BRANCH   7  27
HETATM   27  N2  UNL     1      39.778   6.316   5.904  1.00  0.00    -0.226 N 
ATOM     28  H2  UNL     1      38.823   6.429   5.564  1.00  0.00     0.177 HD
BRANCH  27  29
HETATM   29  C7  UNL     1      40.588   5.311   5.293  1.00  0.00     0.139 C 
BRANCH  29  30
HETATM   30  C8  UNL     1      39.768   4.719   4.138  1.00  0.00     0.047 C 
BRANCH  30  31
HETATM   31  C9  UNL     1      39.674   3.230   4.306  1.00  0.00     0.231 C 
BRANCH  31  32
HETATM   32  N3  UNL     1      40.425   2.890   5.520  1.00  0.00    -0.079 N 
ATOM     33  H33 UNL     1      41.162   3.561   5.737  1.00  0.00     0.274 HD
ATOM     34  H32 UNL     1      39.883   3.013   6.375  1.00  0.00     0.274 HD
ATOM     35  H31 UNL     1      40.772   1.939   5.397  1.00  0.00     0.274 HD
ENDBRANCH  31  32
ENDBRANCH  30  31
ENDBRANCH  29  30
ENDBRANCH  27  29
ENDBRANCH   7  27
ENDBRANCH   5   6
ENDBRANCH   4   5
ENDBRANCH   3   4
TORSDOF 8
ENDMDL
MODEL 3
REMARK VINA RESULT: -6.945810654      5.014     10.092
REMARK  8 active torsions:
REMARK  status: ('A' for Active; 'I' for Inactive)
REMARK    1  A    between atoms: C3_3  and  C4_4 
REMARK    2  A    between atoms: C4_4  and  C5_5 
REMARK    3  A    between atoms: C5_5  and  N1_6 
REMARK    4  A    between atoms: C6_7  and  N2_8 
REMARK    5  A    between atoms: N2_8  and  C7_10 
REMARK    6  A    between atoms: C7_10  and  C8_11 
REMARK    7  A    between atoms: C8_11  and  C9_12 
REMARK    8  A    between atoms: C9_12  and  N3_13 
ROOT
HETATM    1  C1  UNL     1      33.755   5.481   1.470  1.00  0.00     0.012 C 
HETATM    2  C2  UNL     1      34.458   5.352   2.448  1.00  0.00    -0.117 C 
HETATM    3  C3  UNL     1      35.294   5.222   3.623  1.00  0.00     0.094 C 
ENDROOT
BRANCH   3   4
HETATM    4  C4  UNL     1      36.338   4.150   3.330  1.00  0.00     0.033 C 
BRANCH   4   5
HETATM    5  C5  UNL     1      36.913   3.717   4.640  1.00  0.00     0.150 C 
BRANCH   5   6
HETATM    6  N1  UNL     1      38.330   3.900   4.745  1.00  0.00    -0.164 N 
HETATM    7  C6  UNL     1      39.243   3.051   4.262  1.00  0.00     0.683 A 
HETATM    8  N4  UNL     1      40.466   3.548   4.545  1.00  0.00    -0.173 N 
HETATM    9  C10 UNL     1      40.292   4.711   5.207  1.00  0.00     0.168 A 
ATOM     10  H4  UNL     1      41.360   3.122   4.303  1.00  0.00     0.186 HD
HETATM   11  N5  UNL     1      41.184   5.580   5.701  1.00  0.00    -0.323 N 
HETATM   12  C15 UNL     1      38.942   4.955   5.345  1.00  0.00     0.169 A 
HETATM   13  C11 UNL     1      40.699   6.672   6.322  1.00  0.00     0.139 A 
ATOM     14  H5  UNL     1      42.187   5.420   5.611  1.00  0.00     0.169 HD
HETATM   15  N6  UNL     1      41.624   7.535   6.813  1.00  0.00    -0.337 N 
HETATM   16  C14 UNL     1      39.359   6.926   6.467  1.00  0.00     0.122 A 
HETATM   17  C12 UNL     1      41.262   8.658   7.452  1.00  0.00     0.183 A 
ATOM     18  H6  UNL     1      42.615   7.325   6.694  1.00  0.00     0.168 HD
HETATM   19  N7  UNL     1      39.949   8.901   7.590  1.00  0.00    -0.337 N 
HETATM   20  C13 UNL     1      38.984   8.068   7.115  1.00  0.00     0.131 A 
ATOM     21  H7  UNL     1      39.661   9.752   8.073  1.00  0.00     0.168 HD
HETATM   22  N8  UNL     1      37.742   8.343   7.272  1.00  0.00    -0.383 N 
ATOM     23  H82 UNL     1      37.462   9.196   7.757  1.00  0.00     0.157 HD
ATOM     24  H81 UNL     1      37.018   7.718   6.916  1.00  0.00     0.157 HD
HETATM   25  N9  UNL     1      38.449   6.043   5.964  1.00  0.00    -0.333 N 
ATOM     26  H9  UNL     1      37.446   6.200   6.053  1.00  0.00     0.168 HD
BRANCH   7  27
HETATM   27  N2  UNL     1      38.981   1.954   3.637  1.00  0.00    -0.226 N 
ATOM     28  H2  UNL     1      38.027   1.815   3.301  1.00  0.00     0.177 HD
BRANCH  27  29
HETATM   29  C7  UNL     1      39.933   0.920   3.385  1.00  0.00     0.139 C 
BRANCH  29  30
HETATM   30  C8  UNL     1      39.783  -0.109   4.513  1.00  0.00     0.047 C 
BRANCH  30  31
HETATM   31  C9  UNL     1      41.004  -0.070   5.387  1.00  0.00     0.231 C 
BRANCH  31  32
HETATM   32  N3  UNL     1      40.616   0.604   6.631  1.00  0.00    -0.079 N 
ATOM     33  H33 UNL     1      39.616   0.548   6.823  1.00  0.00     0.274 HD
ATOM     34  H32 UNL     1      40.936   0.118   7.468  1.00  0.00     0.274 HD
ATOM     35  H31 UNL     1      40.958   1.562   6.567  1.00  0.00     0.274 HD
ENDBRANCH  31  32
ENDBRANCH  30  31
ENDBRANCH  29  30
ENDBRANCH  27  29
ENDBRANCH   7  27
ENDBRANCH   5   6
ENDBRANCH   4   5
ENDBRANCH   3   4
TORSDOF 8
ENDMDL
MODEL 4
REMARK VINA RESULT: -6.883884859      4.651      7.278
REMARK  8 active torsions:
REMARK  status: ('A' for Active; 'I' for Inactive)
REMARK    1  A    between atoms: C3_3  and  C4_4 
REMARK    2  A    between atoms: C4_4  and  C5_5 
REMARK    3  A    between atoms: C5_5  and  N1_6 
REMARK    4  A    between atoms: C6_7  and  N2_8 
REMARK    5  A    between atoms: N2_8  and  C7_10 
REMARK    6  A    between atoms: C7_10  and  C8_11 
REMARK    7  A    between atoms: C8_11  and  C9_12 
REMARK    8  A    between atoms: C9_12  and  N3_13 
ROOT
HETATM    1  C1  UNL     1      40.110   5.043   3.818  1.00  0.00     0.012 C 
HETATM    2  C2  UNL     1      39.192   5.255   4.580  1.00  0.00    -0.117 C 
HETATM    3  C3  UNL     1      38.079   5.505   5.471  1.00  0.00     0.094 C 
ENDROOT
BRANCH   3   4
HETATM    4  C4  UNL     1      38.552   6.487   6.536  1.00  0.00     0.033 C 
BRANCH   4   5
HETATM    5  C5  UNL     1      39.517   5.760   7.417  1.00  0.00     0.150 C 
BRANCH   5   6
HETATM    6  N1  UNL     1      39.149   5.750   8.803  1.00  0.00    -0.164 N 
HETATM    7  C6  UNL     1      39.523   6.674   9.694  1.00  0.00     0.683 A 
HETATM    8  N4  UNL     1      38.992   6.340  10.889  1.00  0.00    -0.173 N 
HETATM    9  C10 UNL     1      38.289   5.201  10.720  1.00  0.00     0.168 A 
ATOM     10  H4  UNL     1      39.102   6.855  11.762  1.00  0.00     0.186 HD
HETATM   11  N5  UNL     1      37.582   4.470  11.592  1.00  0.00    -0.323 N 
HETATM   12  C15 UNL     1      38.374   4.808   9.401  1.00  0.00     0.169 A 
HETATM   13  C11 UNL     1      36.978   3.363  11.119  1.00  0.00     0.139 A 
ATOM     14  H5  UNL     1      37.504   4.741  12.572  1.00  0.00     0.169 HD
HETATM   15  N6  UNL     1      36.269   2.642  12.024  1.00  0.00    -0.337 N 
HETATM   16  C14 UNL     1      37.056   2.961   9.810  1.00  0.00     0.122 A 
HETATM   17  C12 UNL     1      35.624   1.519  11.672  1.00  0.00     0.183 A 
ATOM     18  H6  UNL     1      36.225   2.961  12.992  1.00  0.00     0.168 HD
HETATM   19  N7  UNL     1      35.703   1.131  10.388  1.00  0.00    -0.337 N 
HETATM   20  C13 UNL     1      36.401   1.820   9.445  1.00  0.00     0.131 A 
ATOM     21  H7  UNL     1      35.217   0.280  10.108  1.00  0.00     0.168 HD
HETATM   22  N8  UNL     1      36.448   1.408   8.231  1.00  0.00    -0.383 N 
ATOM     23  H82 UNL     1      35.959   0.556   7.959  1.00  0.00     0.157 HD
ATOM     24  H81 UNL     1      36.971   1.925   7.524  1.00  0.00     0.157 HD
HETATM   25  N9  UNL     1      37.775   3.703   8.921  1.00  0.00    -0.333 N 
ATOM     26  H9  UNL     1      37.854   3.435   7.940  1.00  0.00     0.168 HD
BRANCH   7  27
HETATM   27  N2  UNL     1      40.263   7.699   9.436  1.00  0.00    -0.226 N 
ATOM     28  H2  UNL     1      41.273   7.560   9.403  1.00  0.00     0.177 HD
BRANCH  27  29
HETATM   29  C7  UNL     1      39.763   9.015   9.192  1.00  0.00     0.139 C 
BRANCH  29  30
HETATM   30  C8  UNL     1      40.910   9.989   9.494  1.00  0.00     0.047 C 
BRANCH  30  31
HETATM   31  C9  UNL     1      40.483  10.940  10.575  1.00  0.00     0.231 C 
BRANCH  31  32
HETATM   32  N3  UNL     1      41.595  11.029  11.528  1.00  0.00    -0.079 N 
ATOM     33  H33 UNL     1      41.716  10.182  12.083  1.00  0.00     0.274 HD
ATOM     34  H32 UNL     1      42.511  11.022  11.078  1.00  0.00     0.274 HD
ATOM     35  H31 UNL     1      41.433  11.861  12.095  1.00  0.00     0.274 HD
ENDBRANCH  31  32
ENDBRANCH  30  31
ENDBRANCH  29  30
ENDBRANCH  27  29
ENDBRANCH   7  27
ENDBRANCH   5   6
ENDBRANCH   4   5
ENDBRANCH   3   4
TORSDOF 8
ENDMDL
MODEL 5
REMARK VINA RESULT: -6.815792962      4.409      7.368
REMARK  8 active torsions:
REMARK  status: ('A' for Active; 'I' for Inactive)
REMARK    1  A    between atoms: C3_3  and  C4_4 
REMARK    2  A    between atoms: C4_4  and  C5_5 
REMARK    3  A    between atoms: C5_5  and  N1_6 
REMARK    4  A    between atoms: C6_7  and  N2_8 
REMARK    5  A    between atoms: N2_8  and  C7_10 
REMARK    6  A    between atoms: C7_10  and  C8_11 
REMARK    7  A    between atoms: C8_11  and  C9_12 
REMARK    8  A    between atoms: C9_12  and  N3_13 
ROOT
HETATM    1  C1  UNL     1      40.103   4.736   3.573  1.00  0.00     0.012 C 
HETATM    2  C2  UNL     1      40.058   5.522   4.494  1.00  0.00    -0.117 C 
HETATM    3  C3  UNL     1      40.025   6.472   5.586  1.00  0.00     0.094 C 
ENDROOT
BRANCH   3   4
HETATM    4  C4  UNL     1      39.478   5.750   6.811  1.00  0.00     0.033 C 
BRANCH   4   5
HETATM    5  C5  UNL     1      38.188   6.408   7.179  1.00  0.00     0.150 C 
BRANCH   5   6
HETATM    6  N1  UNL     1      37.921   6.425   8.587  1.00  0.00    -0.164 N 
HETATM    7  C6  UNL     1      38.097   7.487   9.380  1.00  0.00     0.683 A 
HETATM    8  N4  UNL     1      37.745   7.135  10.634  1.00  0.00    -0.173 N 
HETATM    9  C10 UNL     1      37.351   5.845  10.601  1.00  0.00     0.168 A 
ATOM     10  H4  UNL     1      37.771   7.735  11.458  1.00  0.00     0.186 HD
HETATM   11  N5  UNL     1      36.911   5.038  11.575  1.00  0.00    -0.323 N 
HETATM   12  C15 UNL     1      37.453   5.373   9.309  1.00  0.00     0.169 A 
HETATM   13  C11 UNL     1      36.586   3.777  11.229  1.00  0.00     0.139 A 
ATOM     14  H5  UNL     1      36.826   5.364  12.538  1.00  0.00     0.169 HD
HETATM   15  N6  UNL     1      36.144   2.981  12.236  1.00  0.00    -0.337 N 
HETATM   16  C14 UNL     1      36.685   3.296   9.949  1.00  0.00     0.122 A 
HETATM   17  C12 UNL     1      35.791   1.706  12.015  1.00  0.00     0.183 A 
ATOM     18  H6  UNL     1      36.079   3.361  13.181  1.00  0.00     0.168 HD
HETATM   19  N7  UNL     1      35.889   1.241  10.759  1.00  0.00    -0.337 N 
HETATM   20  C13 UNL     1      36.326   1.999   9.717  1.00  0.00     0.131 A 
ATOM     21  H7  UNL     1      35.623   0.273  10.577  1.00  0.00     0.168 HD
HETATM   22  N8  UNL     1      36.404   1.509   8.534  1.00  0.00    -0.383 N 
ATOM     23  H82 UNL     1      36.135   0.540   8.361  1.00  0.00     0.157 HD
ATOM     24  H81 UNL     1      36.731   2.078   7.753  1.00  0.00     0.157 HD
HETATM   25  N9  UNL     1      37.131   4.116   8.956  1.00  0.00    -0.333 N 
ATOM     26  H9  UNL     1      37.217   3.792   7.992  1.00  0.00     0.168 HD
BRANCH   7  27
HETATM   27  N2  UNL     1      38.529   8.640   8.993  1.00  0.00    -0.226 N 
ATOM     28  H2  UNL     1      37.928   9.193   8.382  1.00  0.00     0.177 HD
BRANCH  27  29
HETATM   29  C7  UNL     1      39.792   9.194   9.363  1.00  0.00     0.139 C 
BRANCH  29  30
HETATM   30  C8  UNL     1      40.721   9.035   8.151  1.00  0.00     0.047 C 
BRANCH  30  31
HETATM   31  C9  UNL     1      42.062   8.544   8.614  1.00  0.00     0.231 C 
BRANCH  31  32
HETATM   32  N3  UNL     1      41.817   7.384   9.477  1.00  0.00    -0.079 N 
ATOM     33  H33 UNL     1      41.159   6.716   9.074  1.00  0.00     0.274 HD
ATOM     34  H32 UNL     1      42.618   6.754   9.540  1.00  0.00     0.274 HD
ATOM     35  H31 UNL     1      41.519   7.746  10.382  1.00  0.00     0.274 HD
ENDBRANCH  31  32
ENDBRANCH  30  31
ENDBRANCH  29  30
ENDBRANCH  27  29
ENDBRANCH   7  27
ENDBRANCH   5   6
ENDBRANCH   4   5
ENDBRANCH   3   4
TORSDOF 8
ENDMDL
