MODEL 1
REMARK VINA RESULT: -8.188078240      0.000      0.000
REMARK  8 active torsions:
REMARK  status: ('A' for Active; 'I' for Inactive)
REMARK    1  A    between atoms: C1_2  and  C2_3 
REMARK    2  A    between atoms: C2_3  and  C3_4 
REMARK    3  A    between atoms: C3_4  and  S1_5 
REMARK    4  A    between atoms: S1_5  and  C4_6 
REMARK    5  A    between atoms: C4_6  and  C5_7 
REMARK    6  A    between atoms: N2_13  and  N3_15 
REMARK       I    between atoms: C11_17  and  N5_19 
REMARK    7  A    between atoms: N5_19  and  N6_21 
REMARK    8  A    between atoms: N6_21  and  C12_23 
ROOT
HETATM    1  N3  UNL     1      40.332   3.550   5.872  1.00  0.00    -0.271 N 
ATOM      2  H3  UNL     1      39.986   3.738   6.813  1.00  0.00     0.189 HD
HETATM    3  C11 UNL     1      40.329   4.496   5.012  1.00  0.00     0.222 C 
HETATM    4  N4  UNL     1      40.776   4.382   3.681  1.00  0.00    -0.061 NA
HETATM    5  N5  UNL     1      39.823   5.762   5.472  1.00  0.00    -0.270 N 
ATOM      6  H5  UNL     1      38.857   5.839   5.789  1.00  0.00     0.189 HD
ENDROOT
BRANCH   1   7
HETATM    7  N2  UNL     1      40.790   2.278   5.566  1.00  0.00    -0.289 N 
HETATM    8  C1  UNL     1      40.010   1.265   5.472  1.00  0.00     0.108 C 
HETATM    9  N1  UNL     1      38.626   1.448   5.689  1.00  0.00    -0.086 NA
ATOM     10  H2  UNL     1      41.789   2.143   5.409  1.00  0.00     0.188 HD
BRANCH   8  11
HETATM   11  C2  UNL     1      40.531  -0.059   5.147  1.00  0.00     0.084 C 
BRANCH  11  12
HETATM   12  C3  UNL     1      39.749  -0.697   3.996  1.00  0.00     0.081 C 
BRANCH  12  13
HETATM   13  S1  UNL     1      39.997  -2.490   4.016  1.00  0.00    -0.164 SA
BRANCH  13  14
HETATM   14  C4  UNL     1      40.754  -2.930   5.608  1.00  0.00     0.112 C 
BRANCH  14  15
HETATM   15  C5  UNL     1      42.117  -3.438   5.467  1.00  0.00    -0.049 A 
HETATM   16  C6  UNL     1      43.003  -2.865   4.586  1.00  0.00     0.008 A 
HETATM   17  C7  UNL     1      44.303  -3.367   4.469  1.00  0.00     0.001 A 
HETATM   18  C8  UNL     1      44.707  -4.436   5.234  1.00  0.00     0.000 A 
HETATM   19  C9  UNL     1      43.812  -5.019   6.130  1.00  0.00     0.001 A 
HETATM   20  C10 UNL     1      42.545  -4.506   6.221  1.00  0.00     0.008 A 
ENDBRANCH  14  15
ENDBRANCH  13  14
ENDBRANCH  12  13
ENDBRANCH  11  12
ENDBRANCH   8  11
ENDBRANCH   1   7
BRANCH   5  21
HETATM   21  N6  UNL     1      40.649   6.883   5.488  1.00  0.00    -0.269 N 
ATOM     22  H6  UNL     1      41.164   7.137   4.646  1.00  0.00     0.190 HD
BRANCH  21  23
HETATM   23  C12 UNL     1      40.788   7.689   6.672  1.00  0.00     0.190 C 
HETATM   24  N7  UNL     1      39.961   8.528   7.161  1.00  0.00    -0.360 N 
HETATM   25  C13 UNL     1      40.472   9.128   8.355  1.00  0.00     0.142 C 
ATOM     26  H7  UNL     1      39.051   8.743   6.754  1.00  0.00     0.162 HD
HETATM   27  C14 UNL     1      41.566   8.171   8.773  1.00  0.00     0.142 C 
HETATM   28  N8  UNL     1      41.966   7.616   7.475  1.00  0.00    -0.360 N 
ATOM     29  H8  UNL     1      42.883   7.257   7.206  1.00  0.00     0.162 HD
ENDBRANCH  21  23
ENDBRANCH   5  21
TORSDOF 8
ENDMDL
MODEL 2
REMARK VINA RESULT: -7.724883237      7.287     10.076
REMARK  8 active torsions:
REMARK  status: ('A' for Active; 'I' for Inactive)
REMARK    1  A    between atoms: C1_2  and  C2_3 
REMARK    2  A    between atoms: C2_3  and  C3_4 
REMARK    3  A    between atoms: C3_4  and  S1_5 
REMARK    4  A    between atoms: S1_5  and  C4_6 
REMARK    5  A    between atoms: C4_6  and  C5_7 
REMARK    6  A    between atoms: N2_13  and  N3_15 
REMARK       I    between atoms: C11_17  and  N5_19 
REMARK    7  A    between atoms: N5_19  and  N6_21 
REMARK    8  A    between atoms: N6_21  and  C12_23 
ROOT
HETATM    1  N3  UNL     1      41.018  11.225  11.078  1.00  0.00    -0.271 N 
ATOM      2  H3  UNL     1      41.860  11.788  10.956  1.00  0.00     0.189 HD
HETATM    3  C11 UNL     1      40.241  11.478  12.062  1.00  0.00     0.222 C 
HETATM    4  N4  UNL     1      39.048  10.787  12.351  1.00  0.00    -0.061 NA
HETATM    5  N5  UNL     1      40.646  12.561  12.919  1.00  0.00    -0.270 N 
ATOM      6  H5  UNL     1      41.527  12.502  13.429  1.00  0.00     0.189 HD
ENDROOT
BRANCH   1   7
HETATM    7  N2  UNL     1      40.751  10.209  10.173  1.00  0.00    -0.289 N 
HETATM    8  C1  UNL     1      41.569   9.246   9.952  1.00  0.00     0.108 C 
HETATM    9  N1  UNL     1      42.793   9.216  10.658  1.00  0.00    -0.086 NA
ATOM     10  H2  UNL     1      39.869  10.229   9.661  1.00  0.00     0.188 HD
BRANCH   8  11
HETATM   11  C2  UNL     1      41.252   8.195   8.991  1.00  0.00     0.084 C 
BRANCH  11  12
HETATM   12  C3  UNL     1      39.774   7.802   9.064  1.00  0.00     0.081 C 
BRANCH  12  13
HETATM   13  S1  UNL     1      39.025   7.956   7.423  1.00  0.00    -0.164 SA
BRANCH  13  14
HETATM   14  C4  UNL     1      40.126   7.142   6.229  1.00  0.00     0.112 C 
BRANCH  14  15
HETATM   15  C5  UNL     1      39.440   6.141   5.415  1.00  0.00    -0.049 A 
HETATM   16  C6  UNL     1      38.115   5.841   5.622  1.00  0.00     0.008 A 
HETATM   17  C7  UNL     1      37.479   4.879   4.831  1.00  0.00     0.001 A 
HETATM   18  C8  UNL     1      38.173   4.226   3.839  1.00  0.00     0.000 A 
HETATM   19  C9  UNL     1      39.516   4.528   3.625  1.00  0.00     0.001 A 
HETATM   20  C10 UNL     1      40.112   5.474   4.417  1.00  0.00     0.008 A 
ENDBRANCH  14  15
ENDBRANCH  13  14
ENDBRANCH  12  13
ENDBRANCH  11  12
ENDBRANCH   8  11
ENDBRANCH   1   7
BRANCH   5  21
HETATM   21  N6  UNL     1      39.840  13.688  13.053  1.00  0.00    -0.269 N 
ATOM     22  H6  UNL     1      39.787  14.360  12.288  1.00  0.00     0.190 HD
BRANCH  21  23
HETATM   23  C12 UNL     1      39.080  13.921  14.252  1.00  0.00     0.190 C 
HETATM   24  N7  UNL     1      38.763  15.036  14.785  1.00  0.00    -0.360 N 
HETATM   25  C13 UNL     1      37.997  14.844  15.979  1.00  0.00     0.142 C 
ATOM     26  H7  UNL     1      39.022  15.948  14.409  1.00  0.00     0.162 HD
HETATM   27  C14 UNL     1      37.501  13.423  15.837  1.00  0.00     0.142 C 
HETATM   28  N8  UNL     1      38.567  12.832  15.019  1.00  0.00    -0.360 N 
ATOM     29  H8  UNL     1      38.874  11.859  15.003  1.00  0.00     0.162 HD
ENDBRANCH  21  23
ENDBRANCH   5  21
TORSDOF 8
ENDMDL
MODEL 3
REMARK VINA RESULT: -7.553484062      6.693      8.747
REMARK  8 active torsions:
REMARK  status: ('A' for Active; 'I' for Inactive)
REMARK    1  A    between atoms: C1_2  and  C2_3 
REMARK    2  A    between atoms: C2_3  and  C3_4 
REMARK    3  A    between atoms: C3_4  and  S1_5 
REMARK    4  A    between atoms: S1_5  and  C4_6 
REMARK    5  A    between atoms: C4_6  and  C5_7 
REMARK    6  A    between atoms: N2_13  and  N3_15 
REMARK       I    between atoms: C11_17  and  N5_19 
REMARK    7  A    between atoms: N5_19  and  N6_21 
REMARK    8  A    between atoms: N6_21  and  C12_23 
ROOT
HETATM    1  N3  UNL     1      40.575   9.643   9.900  1.00  0.00    -0.271 N 
ATOM      2  H3  UNL     1      39.795  10.300   9.863  1.00  0.00     0.189 HD
HETATM    3  C11 UNL     1      41.642   9.982  10.518  1.00  0.00     0.222 C 
HETATM    4  N4  UNL     1      42.791   9.180  10.650  1.00  0.00    -0.061 NA
HETATM    5  N5  UNL     1      41.632  11.292  11.114  1.00  0.00    -0.270 N 
ATOM      6  H5  UNL     1      41.526  12.118  10.525  1.00  0.00     0.189 HD
ENDROOT
BRANCH   1   7
HETATM    7  N2  UNL     1      40.445   8.411   9.278  1.00  0.00    -0.289 N 
HETATM    8  C1  UNL     1      39.548   7.558   9.613  1.00  0.00     0.108 C 
HETATM    9  N1  UNL     1      38.654   7.883  10.658  1.00  0.00    -0.086 NA
ATOM     10  H2  UNL     1      41.090   8.173   8.524  1.00  0.00     0.188 HD
BRANCH   8  11
HETATM   11  C2  UNL     1      39.443   6.270   8.934  1.00  0.00     0.084 C 
BRANCH  11  12
HETATM   12  C3  UNL     1      38.181   5.517   9.362  1.00  0.00     0.081 C 
BRANCH  12  13
HETATM   13  S1  UNL     1      37.001   5.483   7.989  1.00  0.00    -0.164 SA
BRANCH  13  14
HETATM   14  C4  UNL     1      37.626   6.590   6.690  1.00  0.00     0.112 C 
BRANCH  14  15
HETATM   15  C5  UNL     1      38.283   5.872   5.600  1.00  0.00    -0.049 A 
HETATM   16  C6  UNL     1      39.607   6.087   5.302  1.00  0.00     0.008 A 
HETATM   17  C7  UNL     1      40.216   5.389   4.254  1.00  0.00     0.001 A 
HETATM   18  C8  UNL     1      39.495   4.481   3.513  1.00  0.00     0.000 A 
HETATM   19  C9  UNL     1      38.152   4.260   3.812  1.00  0.00     0.001 A 
HETATM   20  C10 UNL     1      37.584   4.959   4.844  1.00  0.00     0.008 A 
ENDBRANCH  14  15
ENDBRANCH  13  14
ENDBRANCH  12  13
ENDBRANCH  11  12
ENDBRANCH   8  11
ENDBRANCH   1   7
BRANCH   5  21
HETATM   21  N6  UNL     1      41.766  11.436  12.492  1.00  0.00    -0.269 N 
ATOM     22  H6  UNL     1      42.630  11.140  12.945  1.00  0.00     0.190 HD
BRANCH  21  23
HETATM   23  C12 UNL     1      40.707  11.997  13.289  1.00  0.00     0.190 C 
HETATM   24  N7  UNL     1      40.398  11.731  14.498  1.00  0.00    -0.360 N 
HETATM   25  C13 UNL     1      39.277  12.506  14.932  1.00  0.00     0.142 C 
ATOM     26  H7  UNL     1      40.888  11.052  15.080  1.00  0.00     0.162 HD
HETATM   27  C14 UNL     1      39.238  13.636  13.928  1.00  0.00     0.142 C 
HETATM   28  N8  UNL     1      39.832  12.989  12.752  1.00  0.00    -0.360 N 
ATOM     29  H8  UNL     1      39.658  13.201  11.769  1.00  0.00     0.162 HD
ENDBRANCH  21  23
ENDBRANCH   5  21
TORSDOF 8
ENDMDL
MODEL 4
REMARK VINA RESULT: -7.514935594      7.297      9.964
REMARK  8 active torsions:
REMARK  status: ('A' for Active; 'I' for Inactive)
REMARK    1  A    between atoms: C1_2  and  C2_3 
REMARK    2  A    between atoms: C2_3  and  C3_4 
REMARK    3  A    between atoms: C3_4  and  S1_5 
REMARK    4  A    between atoms: S1_5  and  C4_6 
REMARK    5  A    between atoms: C4_6  and  C5_7 
REMARK    6  A    between atoms: N2_13  and  N3_15 
REMARK       I    between atoms: C11_17  and  N5_19 
REMARK    7  A    between atoms: N5_19  and  N6_21 
REMARK    8  A    between atoms: N6_21  and  C12_23 
ROOT
HETATM    1  N3  UNL     1      41.003  11.104  11.052  1.00  0.00    -0.271 N 
ATOM      2  H3  UNL     1      41.933  11.514  11.138  1.00  0.00     0.189 HD
HETATM    3  C11 UNL     1      40.098  11.438  11.892  1.00  0.00     0.222 C 
HETATM    4  N4  UNL     1      38.776  10.954  11.893  1.00  0.00    -0.061 NA
HETATM    5  N5  UNL     1      40.498  12.383  12.901  1.00  0.00    -0.270 N 
ATOM      6  H5  UNL     1      41.238  12.142  13.559  1.00  0.00     0.189 HD
ENDROOT
BRANCH   1   7
HETATM    7  N2  UNL     1      40.758  10.203  10.028  1.00  0.00    -0.289 N 
HETATM    8  C1  UNL     1      41.571   9.256   9.729  1.00  0.00     0.108 C 
HETATM    9  N1  UNL     1      42.765   9.124  10.473  1.00  0.00    -0.086 NA
ATOM     10  H2  UNL     1      39.897  10.296   9.489  1.00  0.00     0.188 HD
BRANCH   8  11
HETATM   11  C2  UNL     1      41.278   8.326   8.644  1.00  0.00     0.084 C 
BRANCH  11  12
HETATM   12  C3  UNL     1      39.925   7.639   8.850  1.00  0.00     0.081 C 
BRANCH  12  13
HETATM   13  S1  UNL     1      38.813   8.069   7.488  1.00  0.00    -0.164 SA
BRANCH  13  14
HETATM   14  C4  UNL     1      37.898   6.571   7.023  1.00  0.00     0.112 C 
BRANCH  14  15
HETATM   15  C5  UNL     1      38.459   5.903   5.850  1.00  0.00    -0.049 A 
HETATM   16  C6  UNL     1      39.769   6.094   5.481  1.00  0.00     0.008 A 
HETATM   17  C7  UNL     1      40.286   5.444   4.356  1.00  0.00     0.001 A 
HETATM   18  C8  UNL     1      39.489   4.608   3.609  1.00  0.00     0.000 A 
HETATM   19  C9  UNL     1      38.160   4.411   3.981  1.00  0.00     0.001 A 
HETATM   20  C10 UNL     1      37.683   5.061   5.087  1.00  0.00     0.008 A 
ENDBRANCH  14  15
ENDBRANCH  13  14
ENDBRANCH  12  13
ENDBRANCH  11  12
ENDBRANCH   8  11
ENDBRANCH   1   7
BRANCH   5  21
HETATM   21  N6  UNL     1      39.877  13.626  12.981  1.00  0.00    -0.269 N 
ATOM     22  H6  UNL     1      40.158  14.369  12.342  1.00  0.00     0.190 HD
BRANCH  21  23
HETATM   23  C12 UNL     1      38.844  13.882  13.950  1.00  0.00     0.190 C 
HETATM   24  N7  UNL     1      38.012  13.060  14.458  1.00  0.00    -0.360 N 
HETATM   25  C13 UNL     1      37.141  13.707  15.390  1.00  0.00     0.142 C 
ATOM     26  H7  UNL     1      37.972  12.067  14.229  1.00  0.00     0.162 HD
HETATM   27  C14 UNL     1      37.884  14.983  15.716  1.00  0.00     0.142 C 
HETATM   28  N8  UNL     1      38.641  15.194  14.476  1.00  0.00    -0.360 N 
ATOM     29  H8  UNL     1      38.953  16.080  14.079  1.00  0.00     0.162 HD
ENDBRANCH  21  23
ENDBRANCH   5  21
TORSDOF 8
ENDMDL
MODEL 5
REMARK VINA RESULT: -7.433224817      7.351      9.653
REMARK  8 active torsions:
REMARK  status: ('A' for Active; 'I' for Inactive)
REMARK    1  A    between atoms: C1_2  and  C2_3 
REMARK    2  A    between atoms: C2_3  and  C3_4 
REMARK    3  A    between atoms: C3_4  and  S1_5 
REMARK    4  A    between atoms: S1_5  and  C4_6 
REMARK    5  A    between atoms: C4_6  and  C5_7 
REMARK    6  A    between atoms: N2_13  and  N3_15 
REMARK       I    between atoms: C11_17  and  N5_19 
REMARK    7  A    between atoms: N5_19  and  N6_21 
REMARK    8  A    between atoms: N6_21  and  C12_23 
ROOT
HETATM    1  N3  UNL     1      41.041  11.236  10.944  1.00  0.00    -0.271 N 
ATOM      2  H3  UNL     1      41.875  11.822  10.906  1.00  0.00     0.189 HD
HETATM    3  C11 UNL     1      40.203  11.411  11.895  1.00  0.00     0.222 C 
HETATM    4  N4  UNL     1      39.013  10.679  12.070  1.00  0.00    -0.061 NA
HETATM    5  N5  UNL     1      40.534  12.444  12.840  1.00  0.00    -0.270 N 
ATOM      6  H5  UNL     1      41.386  12.370  13.396  1.00  0.00     0.189 HD
ENDROOT
BRANCH   1   7
HETATM    7  N2  UNL     1      40.850  10.276   9.962  1.00  0.00    -0.289 N 
HETATM    8  C1  UNL     1      41.655   9.293   9.790  1.00  0.00     0.108 C 
HETATM    9  N1  UNL     1      42.784   9.180  10.632  1.00  0.00    -0.086 NA
ATOM     10  H2  UNL     1      40.036  10.355   9.352  1.00  0.00     0.188 HD
BRANCH   8  11
HETATM   11  C2  UNL     1      41.419   8.301   8.745  1.00  0.00     0.084 C 
BRANCH  11  12
HETATM   12  C3  UNL     1      40.032   7.668   8.882  1.00  0.00     0.081 C 
BRANCH  12  13
HETATM   13  S1  UNL     1      39.012   8.130   7.460  1.00  0.00    -0.164 SA
BRANCH  13  14
HETATM   14  C4  UNL     1      38.003   6.689   7.007  1.00  0.00     0.112 C 
BRANCH  14  15
HETATM   15  C5  UNL     1      38.511   5.987   5.829  1.00  0.00    -0.049 A 
HETATM   16  C6  UNL     1      39.825   6.103   5.444  1.00  0.00     0.008 A 
HETATM   17  C7  UNL     1      40.290   5.423   4.314  1.00  0.00     0.001 A 
HETATM   18  C8  UNL     1      39.438   4.631   3.580  1.00  0.00     0.000 A 
HETATM   19  C9  UNL     1      38.105   4.510   3.968  1.00  0.00     0.001 A 
HETATM   20  C10 UNL     1      37.679   5.190   5.079  1.00  0.00     0.008 A 
ENDBRANCH  14  15
ENDBRANCH  13  14
ENDBRANCH  12  13
ENDBRANCH  11  12
ENDBRANCH   8  11
ENDBRANCH   1   7
BRANCH   5  21
HETATM   21  N6  UNL     1      39.696  13.544  12.998  1.00  0.00    -0.269 N 
ATOM     22  H6  UNL     1      40.071  14.407  13.390  1.00  0.00     0.190 HD
BRANCH  21  23
HETATM   23  C12 UNL     1      38.310  13.485  12.618  1.00  0.00     0.190 C 
HETATM   24  N7  UNL     1      37.786  13.750  11.485  1.00  0.00    -0.360 N 
HETATM   25  C13 UNL     1      36.367  13.568  11.511  1.00  0.00     0.142 C 
ATOM     26  H7  UNL     1      38.312  14.054  10.666  1.00  0.00     0.162 HD
HETATM   27  C14 UNL     1      36.161  12.695  12.728  1.00  0.00     0.142 C 
HETATM   28  N8  UNL     1      37.308  13.088  13.555  1.00  0.00    -0.360 N 
ATOM     29  H8  UNL     1      37.376  13.078  14.573  1.00  0.00     0.162 HD
ENDBRANCH  21  23
ENDBRANCH   5  21
TORSDOF 8
ENDMDL
