MODEL 1
REMARK VINA RESULT: -8.479691547      0.000      0.000
REMARK  7 active torsions:
REMARK  status: ('A' for Active; 'I' for Inactive)
REMARK    1  A    between atoms: N1_1  and  C1_4 
REMARK    2  A    between atoms: C2_7  and  S1_8 
REMARK    3  A    between atoms: S1_8  and  S2_9 
REMARK    4  A    between atoms: S2_9  and  N3_12 
REMARK    5  A    between atoms: N3_12  and  C3_14 
REMARK    6  A    between atoms: C3_14  and  C4_15 
REMARK    7  A    between atoms: C8_19  and  O3_20 
ROOT
HETATM    1  S1  UNL     1      40.470   9.409   9.042  1.00  0.00     0.062 SA
ENDROOT
BRANCH   1   2
HETATM    2  C2  UNL     1      40.869  10.300  10.407  1.00  0.00     0.180 A 
HETATM    3  N2  UNL     1      42.158  10.458  10.821  1.00  0.00    -0.169 N 
HETATM    4  C1  UNL     1      42.533  11.147  11.886  1.00  0.00     0.681 A 
ATOM      5  H2  UNL     1      42.889  10.011  10.268  1.00  0.00     0.186 HD
HETATM    6  N5  UNL     1      41.579  11.742  12.626  1.00  0.00    -0.141 N 
HETATM    7  C10 UNL     1      40.297  11.620  12.266  1.00  0.00     0.340 A 
ATOM      8  H5  UNL     1      41.832  12.282  13.453  1.00  0.00     0.189 HD
HETATM    9  N4  UNL     1      39.937  10.917  11.181  1.00  0.00    -0.287 N 
HETATM   10  O4  UNL     1      39.416  12.198  12.990  1.00  0.00    -0.246 OA
ATOM     11  H4  UNL     1      38.950  10.845  10.934  1.00  0.00     0.172 HD
BRANCH   4  12
HETATM   12  N1  UNL     1      43.791  11.234  12.190  1.00  0.00    -0.234 N 
ATOM     13  H12 UNL     1      44.452  11.749  11.608  1.00  0.00     0.174 HD
ATOM     14  H11 UNL     1      44.143  10.779  13.032  1.00  0.00     0.174 HD
ENDBRANCH   4  12
ENDBRANCH   1   2
BRANCH   1  15
HETATM   15  S2  UNL     1      41.001   7.452   8.982  1.00  0.00     0.291 S 
HETATM   16  O1  UNL     1      40.053   6.362   9.308  1.00  0.00    -0.194 OA
HETATM   17  O2  UNL     1      42.069   7.388  10.021  1.00  0.00    -0.194 OA
BRANCH  15  18
HETATM   18  N3  UNL     1      41.520   7.212   7.386  1.00  0.00    -0.306 N 
ATOM     19  H3  UNL     1      42.414   6.799   7.120  1.00  0.00     0.173 HD
BRANCH  18  20
HETATM   20  C3  UNL     1      40.526   7.671   6.467  1.00  0.00     0.171 C 
BRANCH  20  21
HETATM   21  C4  UNL     1      39.921   6.575   5.670  1.00  0.00    -0.037 A 
HETATM   22  C5  UNL     1      38.595   6.272   5.948  1.00  0.00     0.009 A 
HETATM   23  C6  UNL     1      37.935   5.283   5.279  1.00  0.00     0.003 A 
HETATM   24  C7  UNL     1      38.630   4.589   4.309  1.00  0.00     0.036 A 
HETATM   25  C8  UNL     1      39.941   4.860   4.006  1.00  0.00     0.066 A 
HETATM   26  C9  UNL     1      40.583   5.869   4.704  1.00  0.00     0.045 A 
BRANCH  25  27
HETATM   27  O3  UNL     1      40.652   4.169   3.033  1.00  0.00    -0.361 OA
ATOM     28  H3  UNL     1      40.386   4.136   2.122  1.00  0.00     0.217 HD
ENDBRANCH  25  27
ENDBRANCH  20  21
ENDBRANCH  18  20
ENDBRANCH  15  18
ENDBRANCH   1  15
TORSDOF 7
ENDMDL
MODEL 2
REMARK VINA RESULT: -8.259291945      1.255      1.797
REMARK  7 active torsions:
REMARK  status: ('A' for Active; 'I' for Inactive)
REMARK    1  A    between atoms: N1_1  and  C1_4 
REMARK    2  A    between atoms: C2_7  and  S1_8 
REMARK    3  A    between atoms: S1_8  and  S2_9 
REMARK    4  A    between atoms: S2_9  and  N3_12 
REMARK    5  A    between atoms: N3_12  and  C3_14 
REMARK    6  A    between atoms: C3_14  and  C4_15 
REMARK    7  A    between atoms: C8_19  and  O3_20 
ROOT
HETATM    1  S1  UNL     1      40.480   9.473   9.208  1.00  0.00     0.062 SA
ENDROOT
BRANCH   1   2
HETATM    2  C2  UNL     1      41.126  10.356  10.480  1.00  0.00     0.180 A 
HETATM    3  N2  UNL     1      40.355  11.133  11.292  1.00  0.00    -0.169 N 
HETATM    4  C1  UNL     1      40.807  11.850  12.307  1.00  0.00     0.681 A 
ATOM      5  H2  UNL     1      39.354  11.164  11.103  1.00  0.00     0.186 HD
HETATM    6  N5  UNL     1      42.128  11.819  12.569  1.00  0.00    -0.141 N 
HETATM    7  C10 UNL     1      42.932  11.074  11.804  1.00  0.00     0.340 A 
ATOM      8  H5  UNL     1      42.511  12.360  13.344  1.00  0.00     0.189 HD
HETATM    9  N4  UNL     1      42.454  10.353  10.779  1.00  0.00    -0.287 N 
HETATM   10  O4  UNL     1      44.180  11.067  12.080  1.00  0.00    -0.246 OA
ATOM     11  H4  UNL     1      43.094   9.793  10.215  1.00  0.00     0.172 HD
BRANCH   4  12
HETATM   12  N1  UNL     1      39.984  12.556  13.018  1.00  0.00    -0.234 N 
ATOM     13  H12 UNL     1      38.980  12.374  13.019  1.00  0.00     0.174 HD
ATOM     14  H11 UNL     1      40.335  13.318  13.596  1.00  0.00     0.174 HD
ENDBRANCH   4  12
ENDBRANCH   1   2
BRANCH   1  15
HETATM   15  S2  UNL     1      40.832   7.476   9.147  1.00  0.00     0.291 S 
HETATM   16  O1  UNL     1      39.916   6.490   9.763  1.00  0.00    -0.194 OA
HETATM   17  O2  UNL     1      42.116   7.364   9.898  1.00  0.00    -0.194 OA
BRANCH  15  18
HETATM   18  N3  UNL     1      40.921   7.121   7.491  1.00  0.00    -0.306 N 
ATOM     19  H3  UNL     1      41.765   6.822   7.004  1.00  0.00     0.173 HD
BRANCH  18  20
HETATM   20  C3  UNL     1      39.642   7.300   6.878  1.00  0.00     0.171 C 
BRANCH  20  21
HETATM   21  C4  UNL     1      39.384   6.334   5.781  1.00  0.00    -0.037 A 
HETATM   22  C5  UNL     1      38.087   5.847   5.682  1.00  0.00     0.009 A 
HETATM   23  C6  UNL     1      37.733   4.954   4.713  1.00  0.00     0.003 A 
HETATM   24  C7  UNL     1      38.710   4.547   3.827  1.00  0.00     0.036 A 
HETATM   25  C8  UNL     1      40.003   5.006   3.892  1.00  0.00     0.066 A 
HETATM   26  C9  UNL     1      40.330   5.911   4.888  1.00  0.00     0.045 A 
BRANCH  25  27
HETATM   27  O3  UNL     1      40.995   4.603   3.008  1.00  0.00    -0.361 OA
ATOM     28  H3  UNL     1      41.294   5.142   2.284  1.00  0.00     0.217 HD
ENDBRANCH  25  27
ENDBRANCH  20  21
ENDBRANCH  18  20
ENDBRANCH  15  18
ENDBRANCH   1  15
TORSDOF 7
ENDMDL
MODEL 3
REMARK VINA RESULT: -7.924750246      1.361      1.665
REMARK  7 active torsions:
REMARK  status: ('A' for Active; 'I' for Inactive)
REMARK    1  A    between atoms: N1_1  and  C1_4 
REMARK    2  A    between atoms: C2_7  and  S1_8 
REMARK    3  A    between atoms: S1_8  and  S2_9 
REMARK    4  A    between atoms: S2_9  and  N3_12 
REMARK    5  A    between atoms: N3_12  and  C3_14 
REMARK    6  A    between atoms: C3_14  and  C4_15 
REMARK    7  A    between atoms: C8_19  and  O3_20 
ROOT
HETATM    1  S1  UNL     1      40.445   9.675   8.919  1.00  0.00     0.062 SA
ENDROOT
BRANCH   1   2
HETATM    2  C2  UNL     1      39.886  10.218  10.406  1.00  0.00     0.180 A 
HETATM    3  N2  UNL     1      40.636  11.013  11.219  1.00  0.00    -0.169 N 
HETATM    4  C1  UNL     1      40.250  11.470  12.398  1.00  0.00     0.681 A 
ATOM      5  H2  UNL     1      41.566  11.276  10.894  1.00  0.00     0.186 HD
HETATM    6  N5  UNL     1      39.025  11.132  12.841  1.00  0.00    -0.141 N 
HETATM    7  C10 UNL     1      38.245  10.353  12.085  1.00  0.00     0.340 A 
ATOM      8  H5  UNL     1      38.694  11.467  13.745  1.00  0.00     0.189 HD
HETATM    9  N4  UNL     1      38.655   9.899  10.890  1.00  0.00    -0.287 N 
HETATM   10  O4  UNL     1      37.087  10.050  12.534  1.00  0.00    -0.246 OA
ATOM     11  H4  UNL     1      38.035   9.307  10.336  1.00  0.00     0.172 HD
BRANCH   4  12
HETATM   12  N1  UNL     1      41.046  12.224  13.092  1.00  0.00    -0.234 N 
ATOM     13  H12 UNL     1      41.980  11.916  13.362  1.00  0.00     0.174 HD
ATOM     14  H11 UNL     1      40.742  13.152  13.383  1.00  0.00     0.174 HD
ENDBRANCH   4  12
ENDBRANCH   1   2
BRANCH   1  15
HETATM   15  S2  UNL     1      41.544   7.971   8.869  1.00  0.00     0.291 S 
HETATM   16  O1  UNL     1      42.031   7.304  10.098  1.00  0.00    -0.194 OA
HETATM   17  O2  UNL     1      42.765   8.412   8.133  1.00  0.00    -0.194 OA
BRANCH  15  18
HETATM   18  N3  UNL     1      40.556   6.864   8.047  1.00  0.00    -0.306 N 
ATOM     19  H3  UNL     1      40.360   5.914   8.361  1.00  0.00     0.173 HD
BRANCH  18  20
HETATM   20  C3  UNL     1      40.039   7.455   6.853  1.00  0.00     0.171 C 
BRANCH  20  21
HETATM   21  C4  UNL     1      39.631   6.451   5.839  1.00  0.00    -0.037 A 
HETATM   22  C5  UNL     1      38.302   6.048   5.872  1.00  0.00     0.009 A 
HETATM   23  C6  UNL     1      37.813   5.130   4.989  1.00  0.00     0.003 A 
HETATM   24  C7  UNL     1      38.686   4.611   4.053  1.00  0.00     0.036 A 
HETATM   25  C8  UNL     1      40.005   4.985   3.988  1.00  0.00     0.066 A 
HETATM   26  C9  UNL     1      40.471   5.918   4.900  1.00  0.00     0.045 A 
BRANCH  25  27
HETATM   27  O3  UNL     1      40.893   4.470   3.053  1.00  0.00    -0.361 OA
ATOM     28  H3  UNL     1      41.086   3.543   2.977  1.00  0.00     0.217 HD
ENDBRANCH  25  27
ENDBRANCH  20  21
ENDBRANCH  18  20
ENDBRANCH  15  18
ENDBRANCH   1  15
TORSDOF 7
ENDMDL
MODEL 4
REMARK VINA RESULT: -7.846092179      1.291      2.209
REMARK  7 active torsions:
REMARK  status: ('A' for Active; 'I' for Inactive)
REMARK    1  A    between atoms: N1_1  and  C1_4 
REMARK    2  A    between atoms: C2_7  and  S1_8 
REMARK    3  A    between atoms: S1_8  and  S2_9 
REMARK    4  A    between atoms: S2_9  and  N3_12 
REMARK    5  A    between atoms: N3_12  and  C3_14 
REMARK    6  A    between atoms: C3_14  and  C4_15 
REMARK    7  A    between atoms: C8_19  and  O3_20 
ROOT
HETATM    1  S1  UNL     1      40.548   9.775   8.950  1.00  0.00     0.062 SA
ENDROOT
BRANCH   1   2
HETATM    2  C2  UNL     1      40.005  10.298  10.449  1.00  0.00     0.180 A 
HETATM    3  N2  UNL     1      38.750  10.023  10.905  1.00  0.00    -0.169 N 
HETATM    4  C1  UNL     1      38.268  10.408  12.074  1.00  0.00     0.681 A 
ATOM      5  H2  UNL     1      38.137   9.479  10.299  1.00  0.00     0.186 HD
HETATM    6  N5  UNL     1      39.066  11.127  12.886  1.00  0.00    -0.141 N 
HETATM    7  C10 UNL     1      40.307  11.426  12.489  1.00  0.00     0.340 A 
ATOM      8  H5  UNL     1      38.727  11.440  13.795  1.00  0.00     0.189 HD
HETATM    9  N4  UNL     1      40.779  11.025  11.299  1.00  0.00    -0.287 N 
HETATM   10  O4  UNL     1      41.039  12.110  13.283  1.00  0.00    -0.246 OA
ATOM     11  H4  UNL     1      41.731  11.270  11.027  1.00  0.00     0.172 HD
BRANCH   4  12
HETATM   12  N1  UNL     1      37.056  10.090  12.410  1.00  0.00    -0.234 N 
ATOM     13  H12 UNL     1      36.382   9.740  11.729  1.00  0.00     0.174 HD
ATOM     14  H11 UNL     1      36.755  10.189  13.379  1.00  0.00     0.174 HD
ENDBRANCH   4  12
ENDBRANCH   1   2
BRANCH   1  15
HETATM   15  S2  UNL     1      41.570   8.025   8.854  1.00  0.00     0.291 S 
HETATM   16  O1  UNL     1      42.072   7.332  10.061  1.00  0.00    -0.194 OA
HETATM   17  O2  UNL     1      42.781   8.416   8.074  1.00  0.00    -0.194 OA
BRANCH  15  18
HETATM   18  N3  UNL     1      40.506   6.966   8.066  1.00  0.00    -0.306 N 
ATOM     19  H3  UNL     1      40.208   6.061   8.430  1.00  0.00     0.173 HD
BRANCH  18  20
HETATM   20  C3  UNL     1      40.086   7.524   6.819  1.00  0.00     0.171 C 
BRANCH  20  21
HETATM   21  C4  UNL     1      39.653   6.496   5.839  1.00  0.00    -0.037 A 
HETATM   22  C5  UNL     1      38.323   6.103   5.906  1.00  0.00     0.009 A 
HETATM   23  C6  UNL     1      37.813   5.166   5.056  1.00  0.00     0.003 A 
HETATM   24  C7  UNL     1      38.665   4.616   4.120  1.00  0.00     0.036 A 
HETATM   25  C8  UNL     1      39.986   4.978   4.023  1.00  0.00     0.066 A 
HETATM   26  C9  UNL     1      40.473   5.932   4.901  1.00  0.00     0.045 A 
BRANCH  25  27
HETATM   27  O3  UNL     1      40.854   4.431   3.087  1.00  0.00    -0.361 OA
ATOM     28  H3  UNL     1      40.951   4.776   2.207  1.00  0.00     0.217 HD
ENDBRANCH  25  27
ENDBRANCH  20  21
ENDBRANCH  18  20
ENDBRANCH  15  18
ENDBRANCH   1  15
TORSDOF 7
ENDMDL
MODEL 5
REMARK VINA RESULT: -7.830604520      1.181      1.577
REMARK  7 active torsions:
REMARK  status: ('A' for Active; 'I' for Inactive)
REMARK    1  A    between atoms: N1_1  and  C1_4 
REMARK    2  A    between atoms: C2_7  and  S1_8 
REMARK    3  A    between atoms: S1_8  and  S2_9 
REMARK    4  A    between atoms: S2_9  and  N3_12 
REMARK    5  A    between atoms: N3_12  and  C3_14 
REMARK    6  A    between atoms: C3_14  and  C4_15 
REMARK    7  A    between atoms: C8_19  and  O3_20 
ROOT
HETATM    1  S1  UNL     1      40.487   9.423   9.048  1.00  0.00     0.062 SA
ENDROOT
BRANCH   1   2
HETATM    2  C2  UNL     1      40.866  10.313  10.420  1.00  0.00     0.180 A 
HETATM    3  N2  UNL     1      42.150  10.480  10.847  1.00  0.00    -0.169 N 
HETATM    4  C1  UNL     1      42.509  11.167  11.918  1.00  0.00     0.681 A 
ATOM      5  H2  UNL     1      42.889  10.041  10.299  1.00  0.00     0.186 HD
HETATM    6  N5  UNL     1      41.543  11.753  12.651  1.00  0.00    -0.141 N 
HETATM    7  C10 UNL     1      40.266  11.622  12.279  1.00  0.00     0.340 A 
ATOM      8  H5  UNL     1      41.784  12.291  13.482  1.00  0.00     0.189 HD
HETATM    9  N4  UNL     1      39.921  10.920  11.188  1.00  0.00    -0.287 N 
HETATM   10  O4  UNL     1      39.373  12.190  12.996  1.00  0.00    -0.246 OA
ATOM     11  H4  UNL     1      38.937  10.840  10.931  1.00  0.00     0.172 HD
BRANCH   4  12
HETATM   12  N1  UNL     1      43.763  11.263  12.234  1.00  0.00    -0.234 N 
ATOM     13  H12 UNL     1      44.409  10.482  12.121  1.00  0.00     0.174 HD
ATOM     14  H11 UNL     1      44.128  12.139  12.607  1.00  0.00     0.174 HD
ENDBRANCH   4  12
ENDBRANCH   1   2
BRANCH   1  15
HETATM   15  S2  UNL     1      41.004   7.463   8.999  1.00  0.00     0.291 S 
HETATM   16  O1  UNL     1      40.064   6.384   9.382  1.00  0.00    -0.194 OA
HETATM   17  O2  UNL     1      42.113   7.410   9.997  1.00  0.00    -0.194 OA
BRANCH  15  18
HETATM   18  N3  UNL     1      41.458   7.193   7.388  1.00  0.00    -0.306 N 
ATOM     19  H3  UNL     1      42.311   6.718   7.095  1.00  0.00     0.173 HD
BRANCH  18  20
HETATM   20  C3  UNL     1      40.473   7.728   6.501  1.00  0.00     0.171 C 
BRANCH  20  21
HETATM   21  C4  UNL     1      39.637   6.681   5.862  1.00  0.00    -0.037 A 
HETATM   22  C5  UNL     1      40.254   5.914   4.882  1.00  0.00     0.009 A 
HETATM   23  C6  UNL     1      39.585   4.923   4.226  1.00  0.00     0.003 A 
HETATM   24  C7  UNL     1      38.266   4.702   4.570  1.00  0.00     0.036 A 
HETATM   25  C8  UNL     1      37.622   5.438   5.534  1.00  0.00     0.066 A 
HETATM   26  C9  UNL     1      38.330   6.438   6.181  1.00  0.00     0.045 A 
BRANCH  25  27
HETATM   27  O3  UNL     1      36.296   5.226   5.889  1.00  0.00    -0.361 OA
ATOM     28  H3  UNL     1      36.038   4.805   6.701  1.00  0.00     0.217 HD
ENDBRANCH  25  27
ENDBRANCH  20  21
ENDBRANCH  18  20
ENDBRANCH  15  18
ENDBRANCH   1  15
TORSDOF 7
ENDMDL
