MODEL 1
REMARK VINA RESULT: -6.686575606      0.000      0.000
REMARK  9 active torsions:
REMARK  status: ('A' for Active; 'I' for Inactive)
REMARK    1  A    between atoms: C2_2  and  C3_3 
REMARK    2  A    between atoms: C3_3  and  C6_6 
REMARK    3  A    between atoms: C6_6  and  C7_7 
REMARK    4  A    between atoms: C7_7  and  C8_8 
REMARK    5  A    between atoms: C8_8  and  C9_9 
REMARK    6  A    between atoms: C9_9  and  C10_10 
REMARK    7  A    between atoms: C9_9  and  C13_15 
REMARK    8  A    between atoms: C10_10  and  O2_12 
REMARK    9  A    between atoms: O2_12  and  C11_13 
ROOT
HETATM    1  C9  UNL     1      13.348  34.157   4.857  1.00  0.00     0.089 C 
ENDROOT
BRANCH   1   2
HETATM    2  C8  UNL     1      12.691  33.790   6.162  1.00  0.00     0.015 C 
BRANCH   2   3
HETATM    3  C7  UNL     1      11.775  32.601   6.100  1.00  0.00     0.005 C 
BRANCH   3   4
HETATM    4  C6  UNL     1      10.699  32.808   5.059  1.00  0.00     0.038 C 
BRANCH   4   5
HETATM    5  C3  UNL     1       9.325  32.678   5.521  1.00  0.00    -0.063 C 
HETATM    6  C4  UNL     1       8.925  31.466   5.915  1.00  0.00    -0.024 C 
HETATM    7  C5  UNL     1       7.527  31.262   6.373  1.00  0.00     0.036 C 
BRANCH   5   8
HETATM    8  C2  UNL     1       8.377  33.755   5.553  1.00  0.00    -0.004 C 
HETATM    9  C1  UNL     1       7.869  34.432   4.570  1.00  0.00     0.012 C 
ENDBRANCH   5   8
ENDBRANCH   4   5
ENDBRANCH   3   4
ENDBRANCH   2   3
ENDBRANCH   1   2
BRANCH   1  10
HETATM   10  C10 UNL     1      14.721  33.699   4.873  1.00  0.00     0.263 C 
HETATM   11  O1  UNL     1      15.671  34.511   4.705  1.00  0.00    -0.265 OA
BRANCH  10  12
HETATM   12  O2  UNL     1      15.194  32.416   5.062  1.00  0.00    -0.322 OA
BRANCH  12  13
HETATM   13  C11 UNL     1      15.791  31.910   6.216  1.00  0.00     0.174 C 
HETATM   14  C12 UNL     1      15.037  30.835   6.912  1.00  0.00     0.034 C 
ENDBRANCH  12  13
ENDBRANCH  10  12
ENDBRANCH   1  10
BRANCH   1  15
HETATM   15  C13 UNL     1      13.087  35.580   4.574  1.00  0.00    -0.001 C 
HETATM   16  C14 UNL     1      12.004  35.925   3.624  1.00  0.00     0.005 C 
HETATM   17  C15 UNL     1      10.776  36.563   4.305  1.00  0.00     0.000 C 
HETATM   18  C16 UNL     1      11.118  37.856   4.956  1.00  0.00     0.000 C 
HETATM   19  C17 UNL     1      12.490  37.789   5.540  1.00  0.00     0.000 C 
HETATM   20  C18 UNL     1      12.783  36.309   5.862  1.00  0.00     0.005 C 
ENDBRANCH   1  15
TORSDOF 9
ENDMDL
MODEL 2
REMARK VINA RESULT: -6.571841809      1.440      2.193
REMARK  9 active torsions:
REMARK  status: ('A' for Active; 'I' for Inactive)
REMARK    1  A    between atoms: C2_2  and  C3_3 
REMARK    2  A    between atoms: C3_3  and  C6_6 
REMARK    3  A    between atoms: C6_6  and  C7_7 
REMARK    4  A    between atoms: C7_7  and  C8_8 
REMARK    5  A    between atoms: C8_8  and  C9_9 
REMARK    6  A    between atoms: C9_9  and  C10_10 
REMARK    7  A    between atoms: C9_9  and  C13_15 
REMARK    8  A    between atoms: C10_10  and  O2_12 
REMARK    9  A    between atoms: O2_12  and  C11_13 
ROOT
HETATM    1  C9  UNL     1      13.045  32.799   5.408  1.00  0.00     0.089 C 
ENDROOT
BRANCH   1   2
HETATM    2  C8  UNL     1      12.545  33.134   6.789  1.00  0.00     0.015 C 
BRANCH   2   3
HETATM    3  C7  UNL     1      11.488  32.211   7.323  1.00  0.00     0.005 C 
BRANCH   3   4
HETATM    4  C6  UNL     1      10.116  32.642   6.858  1.00  0.00     0.038 C 
BRANCH   4   5
HETATM    5  C3  UNL     1       9.086  31.613   6.857  1.00  0.00    -0.063 C 
HETATM    6  C4  UNL     1       8.130  31.706   5.929  1.00  0.00    -0.024 C 
HETATM    7  C5  UNL     1       7.036  30.703   5.892  1.00  0.00     0.036 C 
BRANCH   5   8
HETATM    8  C2  UNL     1       9.021  30.534   7.801  1.00  0.00    -0.004 C 
HETATM    9  C1  UNL     1       8.884  30.576   9.090  1.00  0.00     0.012 C 
ENDBRANCH   5   8
ENDBRANCH   4   5
ENDBRANCH   3   4
ENDBRANCH   2   3
ENDBRANCH   1   2
BRANCH   1  10
HETATM   10  C10 UNL     1      14.380  32.249   5.506  1.00  0.00     0.263 C 
HETATM   11  O1  UNL     1      15.380  32.919   5.133  1.00  0.00    -0.265 OA
BRANCH  10  12
HETATM   12  O2  UNL     1      14.763  31.012   5.987  1.00  0.00    -0.322 OA
BRANCH  12  13
HETATM   13  C11 UNL     1      15.353  30.745   7.222  1.00  0.00     0.174 C 
HETATM   14  C12 UNL     1      14.506  30.005   8.193  1.00  0.00     0.034 C 
ENDBRANCH  12  13
ENDBRANCH  10  12
ENDBRANCH   1  10
BRANCH   1  15
HETATM   15  C13 UNL     1      12.830  33.962   4.527  1.00  0.00    -0.001 C 
HETATM   16  C14 UNL     1      11.681  33.939   3.592  1.00  0.00     0.005 C 
HETATM   17  C15 UNL     1      10.555  34.918   3.985  1.00  0.00     0.000 C 
HETATM   18  C16 UNL     1      11.022  36.330   3.958  1.00  0.00     0.000 C 
HETATM   19  C17 UNL     1      12.438  36.413   4.423  1.00  0.00     0.000 C 
HETATM   20  C18 UNL     1      12.685  35.214   5.362  1.00  0.00     0.005 C 
ENDBRANCH   1  15
TORSDOF 9
ENDMDL
MODEL 3
REMARK VINA RESULT: -6.560732508      1.471      1.910
REMARK  9 active torsions:
REMARK  status: ('A' for Active; 'I' for Inactive)
REMARK    1  A    between atoms: C2_2  and  C3_3 
REMARK    2  A    between atoms: C3_3  and  C6_6 
REMARK    3  A    between atoms: C6_6  and  C7_7 
REMARK    4  A    between atoms: C7_7  and  C8_8 
REMARK    5  A    between atoms: C8_8  and  C9_9 
REMARK    6  A    between atoms: C9_9  and  C10_10 
REMARK    7  A    between atoms: C9_9  and  C13_15 
REMARK    8  A    between atoms: C10_10  and  O2_12 
REMARK    9  A    between atoms: O2_12  and  C11_13 
ROOT
HETATM    1  C9  UNL     1      13.535  33.277   5.322  1.00  0.00     0.089 C 
ENDROOT
BRANCH   1   2
HETATM    2  C8  UNL     1      12.984  33.480   6.709  1.00  0.00     0.015 C 
BRANCH   2   3
HETATM    3  C7  UNL     1      12.173  32.335   7.245  1.00  0.00     0.005 C 
BRANCH   3   4
HETATM    4  C6  UNL     1      10.771  32.362   6.681  1.00  0.00     0.038 C 
BRANCH   4   5
HETATM    5  C3  UNL     1       9.764  31.627   7.432  1.00  0.00    -0.063 C 
HETATM    6  C4  UNL     1      10.136  31.104   8.604  1.00  0.00    -0.024 C 
HETATM    7  C5  UNL     1       9.162  30.320   9.405  1.00  0.00     0.036 C 
BRANCH   5   8
HETATM    8  C2  UNL     1       8.419  31.409   6.982  1.00  0.00    -0.004 C 
HETATM    9  C1  UNL     1       7.998  30.887   5.871  1.00  0.00     0.012 C 
ENDBRANCH   5   8
ENDBRANCH   4   5
ENDBRANCH   3   4
ENDBRANCH   2   3
ENDBRANCH   1   2
BRANCH   1  10
HETATM   10  C10 UNL     1      14.962  33.045   5.408  1.00  0.00     0.263 C 
HETATM   11  O1  UNL     1      15.769  34.014   5.441  1.00  0.00    -0.265 OA
BRANCH  10  12
HETATM   12  O2  UNL     1      15.631  31.840   5.470  1.00  0.00    -0.322 OA
BRANCH  12  13
HETATM   13  C11 UNL     1      16.135  31.225   6.616  1.00  0.00     0.174 C 
HETATM   14  C12 UNL     1      15.274  30.169   7.210  1.00  0.00     0.034 C 
ENDBRANCH  12  13
ENDBRANCH  10  12
ENDBRANCH   1  10
BRANCH   1  15
HETATM   15  C13 UNL     1      13.054  34.365   4.452  1.00  0.00    -0.001 C 
HETATM   16  C14 UNL     1      11.904  34.098   3.557  1.00  0.00     0.005 C 
HETATM   17  C15 UNL     1      10.613  34.824   3.990  1.00  0.00     0.000 C 
HETATM   18  C16 UNL     1      10.774  36.302   3.949  1.00  0.00     0.000 C 
HETATM   19  C17 UNL     1      12.157  36.680   4.366  1.00  0.00     0.000 C 
HETATM   20  C18 UNL     1      12.680  35.564   5.293  1.00  0.00     0.005 C 
ENDBRANCH   1  15
TORSDOF 9
ENDMDL
MODEL 4
REMARK VINA RESULT: -6.533087300      3.475      6.377
REMARK  9 active torsions:
REMARK  status: ('A' for Active; 'I' for Inactive)
REMARK    1  A    between atoms: C2_2  and  C3_3 
REMARK    2  A    between atoms: C3_3  and  C6_6 
REMARK    3  A    between atoms: C6_6  and  C7_7 
REMARK    4  A    between atoms: C7_7  and  C8_8 
REMARK    5  A    between atoms: C8_8  and  C9_9 
REMARK    6  A    between atoms: C9_9  and  C10_10 
REMARK    7  A    between atoms: C9_9  and  C13_15 
REMARK    8  A    between atoms: C10_10  and  O2_12 
REMARK    9  A    between atoms: O2_12  and  C11_13 
ROOT
HETATM    1  C9  UNL     1      10.260  31.391   8.003  1.00  0.00     0.089 C 
ENDROOT
BRANCH   1   2
HETATM    2  C8  UNL     1      11.322  32.264   7.388  1.00  0.00     0.015 C 
BRANCH   2   3
HETATM    3  C7  UNL     1      11.218  32.439   5.899  1.00  0.00     0.005 C 
BRANCH   3   4
HETATM    4  C6  UNL     1      11.497  33.872   5.507  1.00  0.00     0.038 C 
BRANCH   4   5
HETATM    5  C3  UNL     1      10.409  34.580   4.850  1.00  0.00    -0.063 C 
HETATM    6  C4  UNL     1       9.206  33.999   4.861  1.00  0.00    -0.024 C 
HETATM    7  C5  UNL     1       8.061  34.657   4.183  1.00  0.00     0.036 C 
BRANCH   5   8
HETATM    8  C2  UNL     1      10.555  35.838   4.174  1.00  0.00    -0.004 C 
HETATM    9  C1  UNL     1      11.604  36.592   4.059  1.00  0.00     0.012 C 
ENDBRANCH   5   8
ENDBRANCH   4   5
ENDBRANCH   3   4
ENDBRANCH   2   3
ENDBRANCH   1   2
BRANCH   1  10
HETATM   10  C10 UNL     1       9.008  32.117   8.033  1.00  0.00     0.263 C 
HETATM   11  O1  UNL     1       8.987  33.351   8.290  1.00  0.00    -0.265 OA
BRANCH  10  12
HETATM   12  O2  UNL     1       7.735  31.637   7.802  1.00  0.00    -0.322 OA
BRANCH  12  13
HETATM   13  C11 UNL     1       7.126  31.454   6.561  1.00  0.00     0.174 C 
HETATM   14  C12 UNL     1       7.904  30.660   5.574  1.00  0.00     0.034 C 
ENDBRANCH  12  13
ENDBRANCH  10  12
ENDBRANCH   1  10
BRANCH   1  15
HETATM   15  C13 UNL     1      10.775  30.830   9.266  1.00  0.00    -0.001 C 
HETATM   16  C14 UNL     1      11.237  29.423   9.278  1.00  0.00     0.005 C 
HETATM   17  C15 UNL     1      12.768  29.285   9.412  1.00  0.00     0.000 C 
HETATM   18  C16 UNL     1      13.259  29.843  10.700  1.00  0.00     0.000 C 
HETATM   19  C17 UNL     1      12.467  31.053  11.071  1.00  0.00     0.000 C 
HETATM   20  C18 UNL     1      11.928  31.670   9.764  1.00  0.00     0.005 C 
ENDBRANCH   1  15
TORSDOF 9
ENDMDL
MODEL 5
REMARK VINA RESULT: -6.500109605      1.965      4.718
REMARK  9 active torsions:
REMARK  status: ('A' for Active; 'I' for Inactive)
REMARK    1  A    between atoms: C2_2  and  C3_3 
REMARK    2  A    between atoms: C3_3  and  C6_6 
REMARK    3  A    between atoms: C6_6  and  C7_7 
REMARK    4  A    between atoms: C7_7  and  C8_8 
REMARK    5  A    between atoms: C8_8  and  C9_9 
REMARK    6  A    between atoms: C9_9  and  C10_10 
REMARK    7  A    between atoms: C9_9  and  C13_15 
REMARK    8  A    between atoms: C10_10  and  O2_12 
REMARK    9  A    between atoms: O2_12  and  C11_13 
ROOT
HETATM    1  C9  UNL     1      11.576  32.794   6.591  1.00  0.00     0.089 C 
ENDROOT
BRANCH   1   2
HETATM    2  C8  UNL     1      12.122  32.502   5.218  1.00  0.00     0.015 C 
BRANCH   2   3
HETATM    3  C7  UNL     1      12.840  33.647   4.562  1.00  0.00     0.005 C 
BRANCH   3   4
HETATM    4  C6  UNL     1      11.929  34.366   3.594  1.00  0.00     0.038 C 
BRANCH   4   5
HETATM    5  C3  UNL     1      11.186  35.496   4.132  1.00  0.00    -0.063 C 
HETATM    6  C4  UNL     1      11.858  36.633   4.327  1.00  0.00    -0.024 C 
HETATM    7  C5  UNL     1      11.163  37.814   4.899  1.00  0.00     0.036 C 
BRANCH   5   8
HETATM    8  C2  UNL     1       9.796  35.453   4.487  1.00  0.00    -0.004 C 
HETATM    9  C1  UNL     1       8.815  34.844   3.896  1.00  0.00     0.012 C 
ENDBRANCH   5   8
ENDBRANCH   4   5
ENDBRANCH   3   4
ENDBRANCH   2   3
ENDBRANCH   1   2
BRANCH   1  10
HETATM   10  C10 UNL     1      12.657  32.744   7.552  1.00  0.00     0.263 C 
HETATM   11  O1  UNL     1      12.970  33.766   8.221  1.00  0.00    -0.265 OA
BRANCH  10  12
HETATM   12  O2  UNL     1      13.460  31.671   7.881  1.00  0.00    -0.322 OA
BRANCH  12  13
HETATM   13  C11 UNL     1      13.229  30.738   8.892  1.00  0.00     0.174 C 
HETATM   14  C12 UNL     1      14.164  29.583   8.926  1.00  0.00     0.034 C 
ENDBRANCH  12  13
ENDBRANCH  10  12
ENDBRANCH   1  10
BRANCH   1  15
HETATM   15  C13 UNL     1      10.391  31.947   6.825  1.00  0.00    -0.001 C 
HETATM   16  C14 UNL     1       9.440  32.341   7.889  1.00  0.00     0.005 C 
HETATM   17  C15 UNL     1       8.091  32.854   7.342  1.00  0.00     0.000 C 
HETATM   18  C16 UNL     1       7.372  31.800   6.579  1.00  0.00     0.000 C 
HETATM   19  C17 UNL     1       8.345  30.959   5.822  1.00  0.00     0.000 C 
HETATM   20  C18 UNL     1       9.591  31.827   5.549  1.00  0.00     0.005 C 
ENDBRANCH   1  15
TORSDOF 9
ENDMDL
