MODEL 1
REMARK VINA RESULT: -7.262706303      0.000      0.000
REMARK  7 active torsions:
REMARK  status: ('A' for Active; 'I' for Inactive)
REMARK    1  A    between atoms: C3_3  and  C4_4 
REMARK    2  A    between atoms: C3_3  and  C5_6 
REMARK    3  A    between atoms: C6_7  and  C7_8 
REMARK    4  A    between atoms: C6_7  and  O2_16 
REMARK    5  A    between atoms: C7_8  and  C8_9 
REMARK    6  A    between atoms: O2_16  and  C15_17 
REMARK    7  A    between atoms: C15_17  and  C16_18 
ROOT
HETATM    1  C5  UNL     1      10.440  31.763   7.689  1.00  0.00     0.046 C 
HETATM    2  C6  UNL     1      11.622  32.007   7.292  1.00  0.00     0.047 C 
ENDROOT
BRANCH   2   3
HETATM    3  C7  UNL     1      12.234  32.569   6.108  1.00  0.00     0.070 C 
BRANCH   3   4
HETATM    4  C8  UNL     1      11.974  34.037   5.946  1.00  0.00     0.002 C 
HETATM    5  C9  UNL     1      13.237  34.864   5.641  1.00  0.00     0.084 C 
HETATM    6  C10 UNL     1      12.822  35.923   4.798  1.00  0.00    -0.183 C 
HETATM    7  C11 UNL     1      12.304  36.924   3.970  1.00  0.00     0.080 C 
HETATM    8  C12 UNL     1      10.821  36.511   3.659  1.00  0.00     0.011 C 
HETATM    9  C13 UNL     1      10.290  35.500   4.652  1.00  0.00     0.001 C 
HETATM   10  C14 UNL     1      10.905  34.208   4.877  1.00  0.00     0.006 C 
ENDBRANCH   3   4
ENDBRANCH   2   3
BRANCH   2  11
HETATM   11  O2  UNL     1      12.626  31.620   8.293  1.00  0.00    -0.355 OA
BRANCH  11  12
HETATM   12  C15 UNL     1      12.117  31.168   9.535  1.00  0.00     0.179 C 
BRANCH  12  13
HETATM   13  C16 UNL     1      12.896  29.919   9.883  1.00  0.00     0.002 C 
HETATM   14  C17 UNL     1      12.062  28.709   9.570  1.00  0.00     0.011 C 
HETATM   15  C18 UNL     1      14.186  29.952   9.085  1.00  0.00     0.011 C 
ENDBRANCH  12  13
ENDBRANCH  11  12
ENDBRANCH   2  11
BRANCH   1  16
HETATM   16  C3  UNL     1       9.098  31.909   7.194  1.00  0.00    -0.000 C 
HETATM   17  C2  UNL     1       8.588  30.850   6.477  1.00  0.00    -0.017 C 
HETATM   18  C1  UNL     1       7.229  30.846   5.928  1.00  0.00     0.037 C 
BRANCH  16  19
HETATM   19  C4  UNL     1       8.155  32.983   7.334  1.00  0.00     0.269 C 
HETATM   20  O1  UNL     1       8.337  34.193   7.374  1.00  0.00    -0.301 OA
ENDBRANCH  16  19
ENDBRANCH   1  16
TORSDOF 7
ENDMDL
MODEL 2
REMARK VINA RESULT: -7.084750679      2.367      6.873
REMARK  7 active torsions:
REMARK  status: ('A' for Active; 'I' for Inactive)
REMARK    1  A    between atoms: C3_3  and  C4_4 
REMARK    2  A    between atoms: C3_3  and  C5_6 
REMARK    3  A    between atoms: C6_7  and  C7_8 
REMARK    4  A    between atoms: C6_7  and  O2_16 
REMARK    5  A    between atoms: C7_8  and  C8_9 
REMARK    6  A    between atoms: O2_16  and  C15_17 
REMARK    7  A    between atoms: C15_17  and  C16_18 
ROOT
HETATM    1  C5  UNL     1      14.232  34.382   6.056  1.00  0.00     0.046 C 
HETATM    2  C6  UNL     1      13.043  33.938   6.003  1.00  0.00     0.047 C 
ENDROOT
BRANCH   2   3
HETATM    3  C7  UNL     1      12.404  32.643   6.088  1.00  0.00     0.070 C 
BRANCH   3   4
HETATM    4  C8  UNL     1      10.935  32.724   6.382  1.00  0.00     0.002 C 
HETATM    5  C9  UNL     1      10.039  32.282   5.212  1.00  0.00     0.084 C 
HETATM    6  C10 UNL     1       8.897  31.680   5.793  1.00  0.00    -0.183 C 
HETATM    7  C11 UNL     1       7.818  31.105   6.472  1.00  0.00     0.080 C 
HETATM    8  C12 UNL     1       8.235  31.045   7.985  1.00  0.00     0.011 C 
HETATM    9  C13 UNL     1       9.377  31.987   8.300  1.00  0.00     0.001 C 
HETATM   10  C14 UNL     1      10.667  31.920   7.646  1.00  0.00     0.006 C 
ENDBRANCH   3   4
ENDBRANCH   2   3
BRANCH   2  11
HETATM   11  O2  UNL     1      12.063  35.017   5.807  1.00  0.00    -0.355 OA
BRANCH  11  12
HETATM   12  C15 UNL     1      12.599  36.279   5.453  1.00  0.00     0.179 C 
BRANCH  12  13
HETATM   13  C16 UNL     1      11.637  36.883   4.454  1.00  0.00     0.002 C 
HETATM   14  C17 UNL     1      10.499  35.930   4.218  1.00  0.00     0.011 C 
HETATM   15  C18 UNL     1      11.168  38.210   5.023  1.00  0.00     0.011 C 
ENDBRANCH  12  13
ENDBRANCH  11  12
ENDBRANCH   2  11
BRANCH   1  16
HETATM   16  C3  UNL     1      15.559  33.856   6.225  1.00  0.00    -0.000 C 
HETATM   17  C2  UNL     1      16.572  34.778   6.359  1.00  0.00    -0.017 C 
HETATM   18  C1  UNL     1      17.973  34.393   6.559  1.00  0.00     0.037 C 
BRANCH  16  19
HETATM   19  C4  UNL     1      16.032  32.504   6.303  1.00  0.00     0.269 C 
HETATM   20  O1  UNL     1      15.995  31.604   5.473  1.00  0.00    -0.301 OA
ENDBRANCH  16  19
ENDBRANCH   1  16
TORSDOF 7
ENDMDL
MODEL 3
REMARK VINA RESULT: -6.983848771      2.050      6.374
REMARK  7 active torsions:
REMARK  status: ('A' for Active; 'I' for Inactive)
REMARK    1  A    between atoms: C3_3  and  C4_4 
REMARK    2  A    between atoms: C3_3  and  C5_6 
REMARK    3  A    between atoms: C6_7  and  C7_8 
REMARK    4  A    between atoms: C6_7  and  O2_16 
REMARK    5  A    between atoms: C7_8  and  C8_9 
REMARK    6  A    between atoms: O2_16  and  C15_17 
REMARK    7  A    between atoms: C15_17  and  C16_18 
ROOT
HETATM    1  C5  UNL     1      13.879  33.296   6.803  1.00  0.00     0.046 C 
HETATM    2  C6  UNL     1      12.836  33.670   6.180  1.00  0.00     0.047 C 
ENDROOT
BRANCH   2   3
HETATM    3  C7  UNL     1      11.789  33.030   5.413  1.00  0.00     0.070 C 
BRANCH   3   4
HETATM    4  C8  UNL     1      10.460  33.032   6.108  1.00  0.00     0.002 C 
HETATM    5  C9  UNL     1       9.258  32.902   5.156  1.00  0.00     0.084 C 
HETATM    6  C10 UNL     1       8.271  32.170   5.860  1.00  0.00    -0.183 C 
HETATM    7  C11 UNL     1       7.374  31.440   6.646  1.00  0.00     0.080 C 
HETATM    8  C12 UNL     1       8.170  30.997   7.925  1.00  0.00     0.011 C 
HETATM    9  C13 UNL     1       9.417  31.829   8.137  1.00  0.00     0.001 C 
HETATM   10  C14 UNL     1      10.481  31.932   7.159  1.00  0.00     0.006 C 
ENDBRANCH   3   4
ENDBRANCH   2   3
BRANCH   2  11
HETATM   11  O2  UNL     1      12.643  35.125   6.259  1.00  0.00    -0.355 OA
BRANCH  11  12
HETATM   12  C15 UNL     1      12.686  35.820   5.026  1.00  0.00     0.179 C 
BRANCH  12  13
HETATM   13  C16 UNL     1      11.427  36.657   4.966  1.00  0.00     0.002 C 
HETATM   14  C17 UNL     1      11.786  38.109   5.108  1.00  0.00     0.011 C 
HETATM   15  C18 UNL     1      10.748  36.358   3.642  1.00  0.00     0.011 C 
ENDBRANCH  12  13
ENDBRANCH  11  12
ENDBRANCH   2  11
BRANCH   1  16
HETATM   16  C3  UNL     1      14.571  32.067   7.082  1.00  0.00    -0.000 C 
HETATM   17  C2  UNL     1      14.015  31.253   8.042  1.00  0.00    -0.017 C 
HETATM   18  C1  UNL     1      14.596  29.961   8.419  1.00  0.00     0.037 C 
BRANCH  16  19
HETATM   19  C4  UNL     1      15.761  31.507   6.508  1.00  0.00     0.269 C 
HETATM   20  O1  UNL     1      16.203  31.589   5.369  1.00  0.00    -0.301 OA
ENDBRANCH  16  19
ENDBRANCH   1  16
TORSDOF 7
ENDMDL
MODEL 4
REMARK VINA RESULT: -6.923393820      2.121      6.536
REMARK  7 active torsions:
REMARK  status: ('A' for Active; 'I' for Inactive)
REMARK    1  A    between atoms: C3_3  and  C4_4 
REMARK    2  A    between atoms: C3_3  and  C5_6 
REMARK    3  A    between atoms: C6_7  and  C7_8 
REMARK    4  A    between atoms: C6_7  and  O2_16 
REMARK    5  A    between atoms: C7_8  and  C8_9 
REMARK    6  A    between atoms: O2_16  and  C15_17 
REMARK    7  A    between atoms: C15_17  and  C16_18 
ROOT
HETATM    1  C5  UNL     1      13.879  33.749   6.625  1.00  0.00     0.046 C 
HETATM    2  C6  UNL     1      12.765  33.807   6.017  1.00  0.00     0.047 C 
ENDROOT
BRANCH   2   3
HETATM    3  C7  UNL     1      11.825  32.859   5.461  1.00  0.00     0.070 C 
BRANCH   3   4
HETATM    4  C8  UNL     1      10.521  32.812   6.201  1.00  0.00     0.002 C 
HETATM    5  C9  UNL     1       9.345  32.283   5.360  1.00  0.00     0.084 C 
HETATM    6  C10 UNL     1       8.499  31.587   6.257  1.00  0.00    -0.183 C 
HETATM    7  C11 UNL     1       7.741  30.925   7.228  1.00  0.00     0.080 C 
HETATM    8  C12 UNL     1       8.614  30.916   8.534  1.00  0.00     0.011 C 
HETATM    9  C13 UNL     1       9.711  31.958   8.495  1.00  0.00     0.001 C 
HETATM   10  C14 UNL     1      10.732  31.999   7.469  1.00  0.00     0.006 C 
ENDBRANCH   3   4
ENDBRANCH   2   3
BRANCH   2  11
HETATM   11  O2  UNL     1      12.313  35.194   5.833  1.00  0.00    -0.355 OA
BRANCH  11  12
HETATM   12  C15 UNL     1      12.898  35.895   4.750  1.00  0.00     0.179 C 
BRANCH  12  13
HETATM   13  C16 UNL     1      11.814  36.785   4.185  1.00  0.00     0.002 C 
HETATM   14  C17 UNL     1      10.543  35.996   4.048  1.00  0.00     0.011 C 
HETATM   15  C18 UNL     1      11.661  37.965   5.127  1.00  0.00     0.011 C 
ENDBRANCH  12  13
ENDBRANCH  11  12
ENDBRANCH   2  11
BRANCH   1  16
HETATM   16  C3  UNL     1      14.792  32.737   7.082  1.00  0.00    -0.000 C 
HETATM   17  C2  UNL     1      14.490  32.133   8.281  1.00  0.00    -0.017 C 
HETATM   18  C1  UNL     1      15.316  31.071   8.863  1.00  0.00     0.037 C 
BRANCH  16  19
HETATM   19  C4  UNL     1      15.987  32.210   6.486  1.00  0.00     0.269 C 
HETATM   20  O1  UNL     1      16.145  31.608   5.431  1.00  0.00    -0.301 OA
ENDBRANCH  16  19
ENDBRANCH   1  16
TORSDOF 7
ENDMDL
MODEL 5
REMARK VINA RESULT: -6.843865779      1.471      4.463
REMARK  7 active torsions:
REMARK  status: ('A' for Active; 'I' for Inactive)
REMARK    1  A    between atoms: C3_3  and  C4_4 
REMARK    2  A    between atoms: C3_3  and  C5_6 
REMARK    3  A    between atoms: C6_7  and  C7_8 
REMARK    4  A    between atoms: C6_7  and  O2_16 
REMARK    5  A    between atoms: C7_8  and  C8_9 
REMARK    6  A    between atoms: O2_16  and  C15_17 
REMARK    7  A    between atoms: C15_17  and  C16_18 
ROOT
HETATM    1  C5  UNL     1      11.850  32.246   7.234  1.00  0.00     0.046 C 
HETATM    2  C6  UNL     1      11.100  32.611   6.277  1.00  0.00     0.047 C 
ENDROOT
BRANCH   2   3
HETATM    3  C7  UNL     1      11.204  32.691   4.836  1.00  0.00     0.070 C 
BRANCH   3   4
HETATM    4  C8  UNL     1      11.539  34.067   4.341  1.00  0.00     0.002 C 
HETATM    5  C9  UNL     1      10.308  34.909   3.962  1.00  0.00     0.084 C 
HETATM    6  C10 UNL     1      10.634  36.251   4.275  1.00  0.00    -0.183 C 
HETATM    7  C11 UNL     1      11.061  37.536   4.624  1.00  0.00     0.080 C 
HETATM    8  C12 UNL     1      12.424  37.354   5.384  1.00  0.00     0.011 C 
HETATM    9  C13 UNL     1      13.055  36.006   5.109  1.00  0.00     0.001 C 
HETATM   10  C14 UNL     1      12.398  34.747   5.396  1.00  0.00     0.006 C 
ENDBRANCH   3   4
ENDBRANCH   2   3
BRANCH   2  11
HETATM   11  O2  UNL     1       9.788  33.071   6.754  1.00  0.00    -0.355 OA
BRANCH  11  12
HETATM   12  C15 UNL     1       8.667  32.597   6.030  1.00  0.00     0.179 C 
BRANCH  12  13
HETATM   13  C16 UNL     1       8.343  31.232   6.595  1.00  0.00     0.002 C 
HETATM   14  C17 UNL     1       8.172  31.336   8.084  1.00  0.00     0.011 C 
HETATM   15  C18 UNL     1       7.083  30.744   5.903  1.00  0.00     0.011 C 
ENDBRANCH  12  13
ENDBRANCH  11  12
ENDBRANCH   2  11
BRANCH   1  16
HETATM   16  C3  UNL     1      13.179  31.723   7.408  1.00  0.00    -0.000 C 
HETATM   17  C2  UNL     1      13.355  30.821   8.432  1.00  0.00    -0.017 C 
HETATM   18  C1  UNL     1      14.646  30.189   8.717  1.00  0.00     0.037 C 
BRANCH  16  19
HETATM   19  C4  UNL     1      14.387  31.962   6.671  1.00  0.00     0.269 C 
HETATM   20  O1  UNL     1      14.615  31.858   5.473  1.00  0.00    -0.301 OA
ENDBRANCH  16  19
ENDBRANCH   1  16
TORSDOF 7
ENDMDL
