MODEL 1
REMARK VINA RESULT: -7.126651352      0.000      0.000
REMARK  15 active torsions:
REMARK  status: ('A' for Active; 'I' for Inactive)
REMARK    1  A    between atoms: N1_1  and  C1_5 
REMARK    2  A    between atoms: C1_5  and  C2_6 
REMARK    3  A    between atoms: C2_6  and  C3_7 
REMARK    4  A    between atoms: C3_7  and  C4_8 
REMARK    5  A    between atoms: C4_8  and  C5_9 
REMARK    6  A    between atoms: C5_9  and  C6_10 
REMARK    7  A    between atoms: C6_10  and  C7_11 
REMARK    8  A    between atoms: C7_11  and  C8_12 
REMARK    9  A    between atoms: C8_12  and  C9_13 
REMARK   10  A    between atoms: C9_13  and  C10_14 
REMARK   11  A    between atoms: C10_14  and  C11_15 
REMARK   12  A    between atoms: C11_15  and  C12_16 
REMARK   13  A    between atoms: C12_16  and  C13_17 
REMARK   14  A    between atoms: C13_17  and  C14_18 
REMARK   15  A    between atoms: C14_18  and  C15_19 
ROOT
HETATM    1  C9  UNL     1       9.562  31.531   7.156  1.00  0.00     0.000 C 
ENDROOT
BRANCH   1   2
HETATM    2  C8  UNL     1       8.961  31.581   5.738  1.00  0.00     0.000 C 
BRANCH   2   3
HETATM    3  C7  UNL     1       7.706  32.392   5.764  1.00  0.00     0.000 C 
BRANCH   3   4
HETATM    4  C6  UNL     1       8.005  33.840   5.509  1.00  0.00     0.000 C 
BRANCH   4   5
HETATM    5  C5  UNL     1       7.804  34.157   4.055  1.00  0.00     0.000 C 
BRANCH   5   6
HETATM    6  C4  UNL     1       9.059  34.813   3.431  1.00  0.00     0.000 C 
BRANCH   6   7
HETATM    7  C3  UNL     1      10.226  34.742   4.335  1.00  0.00     0.002 C 
BRANCH   7   8
HETATM    8  C2  UNL     1      11.268  35.755   4.076  1.00  0.00     0.027 C 
BRANCH   8   9
HETATM    9  C1  UNL     1      11.600  36.743   5.117  1.00  0.00     0.229 C 
BRANCH   9  10
HETATM   10  N1  UNL     1      10.917  37.983   5.109  1.00  0.00    -0.079 N 
ATOM     11  H13 UNL     1      11.292  38.574   5.852  1.00  0.00     0.274 HD
ATOM     12  H12 UNL     1      11.195  38.510   4.282  1.00  0.00     0.274 HD
ATOM     13  H11 UNL     1       9.899  37.977   5.173  1.00  0.00     0.274 HD
ENDBRANCH   9  10
ENDBRANCH   8   9
ENDBRANCH   7   8
ENDBRANCH   6   7
ENDBRANCH   5   6
ENDBRANCH   4   5
ENDBRANCH   3   4
ENDBRANCH   2   3
ENDBRANCH   1   2
BRANCH   1  14
HETATM   14  C10 UNL     1       8.467  31.200   8.153  1.00  0.00     0.000 C 
BRANCH  14  15
HETATM   15  C11 UNL     1       8.908  30.220   9.184  1.00  0.00     0.000 C 
BRANCH  15  16
HETATM   16  C12 UNL     1      10.120  29.424   8.784  1.00  0.00     0.000 C 
BRANCH  16  17
HETATM   17  C13 UNL     1      11.136  29.296   9.874  1.00  0.00     0.000 C 
BRANCH  17  18
HETATM   18  C14 UNL     1      12.420  28.659   9.391  1.00  0.00     0.005 C 
BRANCH  18  19
HETATM   19  C15 UNL     1      13.630  29.463   9.813  1.00  0.00    -0.006 C 
HETATM   20  C16 UNL     1      13.238  30.835  10.356  1.00  0.00     0.013 C 
HETATM   21  C17 UNL     1      13.990  31.817   9.484  1.00  0.00     0.009 C 
HETATM   22  C18 UNL     1      13.414  31.720   8.135  1.00  0.00    -0.026 C 
HETATM   23  C21 UNL     1      15.289  31.008   9.278  1.00  0.00     0.017 C 
HETATM   24  C19 UNL     1      13.732  30.524   7.651  1.00  0.00    -0.025 C 
HETATM   25  C20 UNL     1      14.541  29.793   8.690  1.00  0.00     0.012 C 
ENDBRANCH  18  19
ENDBRANCH  17  18
ENDBRANCH  16  17
ENDBRANCH  15  16
ENDBRANCH  14  15
ENDBRANCH   1  14
TORSDOF 15
ENDMDL
MODEL 2
REMARK VINA RESULT: -6.955626782      1.138      1.227
REMARK  15 active torsions:
REMARK  status: ('A' for Active; 'I' for Inactive)
REMARK    1  A    between atoms: N1_1  and  C1_5 
REMARK    2  A    between atoms: C1_5  and  C2_6 
REMARK    3  A    between atoms: C2_6  and  C3_7 
REMARK    4  A    between atoms: C3_7  and  C4_8 
REMARK    5  A    between atoms: C4_8  and  C5_9 
REMARK    6  A    between atoms: C5_9  and  C6_10 
REMARK    7  A    between atoms: C6_10  and  C7_11 
REMARK    8  A    between atoms: C7_11  and  C8_12 
REMARK    9  A    between atoms: C8_12  and  C9_13 
REMARK   10  A    between atoms: C9_13  and  C10_14 
REMARK   11  A    between atoms: C10_14  and  C11_15 
REMARK   12  A    between atoms: C11_15  and  C12_16 
REMARK   13  A    between atoms: C12_16  and  C13_17 
REMARK   14  A    between atoms: C13_17  and  C14_18 
REMARK   15  A    between atoms: C14_18  and  C15_19 
ROOT
HETATM    1  C9  UNL     1       9.801  31.585   6.996  1.00  0.00     0.000 C 
ENDROOT
BRANCH   1   2
HETATM    2  C8  UNL     1       9.285  31.943   5.588  1.00  0.00     0.000 C 
BRANCH   2   3
HETATM    3  C7  UNL     1       7.967  32.636   5.709  1.00  0.00     0.000 C 
BRANCH   3   4
HETATM    4  C6  UNL     1       7.957  33.902   4.905  1.00  0.00     0.000 C 
BRANCH   4   5
HETATM    5  C5  UNL     1       9.119  33.917   3.955  1.00  0.00     0.000 C 
BRANCH   5   6
HETATM    6  C4  UNL     1       9.684  35.345   3.759  1.00  0.00     0.000 C 
BRANCH   6   7
HETATM    7  C3  UNL     1      11.162  35.356   3.752  1.00  0.00     0.002 C 
BRANCH   7   8
HETATM    8  C2  UNL     1      11.789  34.055   4.056  1.00  0.00     0.027 C 
BRANCH   8   9
HETATM    9  C1  UNL     1      12.679  33.929   5.224  1.00  0.00     0.229 C 
BRANCH   9  10
HETATM   10  N1  UNL     1      12.280  34.532   6.441  1.00  0.00    -0.079 N 
ATOM     11  H13 UNL     1      12.322  33.836   7.186  1.00  0.00     0.274 HD
ATOM     12  H12 UNL     1      13.003  35.185   6.742  1.00  0.00     0.274 HD
ATOM     13  H11 UNL     1      11.374  35.000   6.477  1.00  0.00     0.274 HD
ENDBRANCH   9  10
ENDBRANCH   8   9
ENDBRANCH   7   8
ENDBRANCH   6   7
ENDBRANCH   5   6
ENDBRANCH   4   5
ENDBRANCH   3   4
ENDBRANCH   2   3
ENDBRANCH   1   2
BRANCH   1  14
HETATM   14  C10 UNL     1       8.618  31.353   7.918  1.00  0.00     0.000 C 
BRANCH  14  15
HETATM   15  C11 UNL     1       8.930  30.403   9.022  1.00  0.00     0.000 C 
BRANCH  15  16
HETATM   16  C12 UNL     1      10.097  29.500   8.732  1.00  0.00     0.000 C 
BRANCH  16  17
HETATM   17  C13 UNL     1      11.056  29.380   9.875  1.00  0.00     0.000 C 
BRANCH  17  18
HETATM   18  C14 UNL     1      12.326  28.656   9.485  1.00  0.00     0.005 C 
BRANCH  18  19
HETATM   19  C15 UNL     1      13.556  29.434   9.898  1.00  0.00    -0.006 C 
HETATM   20  C16 UNL     1      13.206  30.850  10.349  1.00  0.00     0.013 C 
HETATM   21  C17 UNL     1      14.023  31.748   9.447  1.00  0.00     0.009 C 
HETATM   22  C18 UNL     1      13.482  31.596   8.088  1.00  0.00    -0.026 C 
HETATM   23  C21 UNL     1      15.292  30.878   9.327  1.00  0.00     0.017 C 
HETATM   24  C19 UNL     1      13.764  30.362   7.683  1.00  0.00    -0.025 C 
HETATM   25  C20 UNL     1      14.511  29.661   8.787  1.00  0.00     0.012 C 
ENDBRANCH  18  19
ENDBRANCH  17  18
ENDBRANCH  16  17
ENDBRANCH  15  16
ENDBRANCH  14  15
ENDBRANCH   1  14
TORSDOF 15
ENDMDL
MODEL 3
REMARK VINA RESULT: -6.865458975      1.296      2.163
REMARK  15 active torsions:
REMARK  status: ('A' for Active; 'I' for Inactive)
REMARK    1  A    between atoms: N1_1  and  C1_5 
REMARK    2  A    between atoms: C1_5  and  C2_6 
REMARK    3  A    between atoms: C2_6  and  C3_7 
REMARK    4  A    between atoms: C3_7  and  C4_8 
REMARK    5  A    between atoms: C4_8  and  C5_9 
REMARK    6  A    between atoms: C5_9  and  C6_10 
REMARK    7  A    between atoms: C6_10  and  C7_11 
REMARK    8  A    between atoms: C7_11  and  C8_12 
REMARK    9  A    between atoms: C8_12  and  C9_13 
REMARK   10  A    between atoms: C9_13  and  C10_14 
REMARK   11  A    between atoms: C10_14  and  C11_15 
REMARK   12  A    between atoms: C11_15  and  C12_16 
REMARK   13  A    between atoms: C12_16  and  C13_17 
REMARK   14  A    between atoms: C13_17  and  C14_18 
REMARK   15  A    between atoms: C14_18  and  C15_19 
ROOT
HETATM    1  C9  UNL     1      10.547  31.015   8.425  1.00  0.00     0.000 C 
ENDROOT
BRANCH   1   2
HETATM    2  C8  UNL     1       9.684  31.479   7.234  1.00  0.00     0.000 C 
BRANCH   2   3
HETATM    3  C7  UNL     1       8.243  31.443   7.628  1.00  0.00     0.000 C 
BRANCH   3   4
HETATM    4  C6  UNL     1       7.375  31.938   6.510  1.00  0.00     0.000 C 
BRANCH   4   5
HETATM    5  C5  UNL     1       8.224  32.543   5.429  1.00  0.00     0.000 C 
BRANCH   5   6
HETATM    6  C4  UNL     1       7.560  33.796   4.809  1.00  0.00     0.000 C 
BRANCH   6   7
HETATM    7  C3  UNL     1       8.408  34.409   3.766  1.00  0.00     0.002 C 
BRANCH   7   8
HETATM    8  C2  UNL     1       9.808  33.940   3.755  1.00  0.00     0.027 C 
BRANCH   8   9
HETATM    9  C1  UNL     1      10.872  34.809   4.288  1.00  0.00     0.229 C 
BRANCH   9  10
HETATM   10  N1  UNL     1      11.410  34.509   5.563  1.00  0.00    -0.079 N 
ATOM     11  H13 UNL     1      12.346  34.908   5.631  1.00  0.00     0.274 HD
ATOM     12  H12 UNL     1      10.913  35.052   6.269  1.00  0.00     0.274 HD
ATOM     13  H11 UNL     1      11.443  33.533   5.858  1.00  0.00     0.274 HD
ENDBRANCH   9  10
ENDBRANCH   8   9
ENDBRANCH   7   8
ENDBRANCH   6   7
ENDBRANCH   5   6
ENDBRANCH   4   5
ENDBRANCH   3   4
ENDBRANCH   2   3
ENDBRANCH   1   2
BRANCH   1  14
HETATM   14  C10 UNL     1      10.076  29.647   8.882  1.00  0.00     0.000 C 
BRANCH  14  15
HETATM   15  C11 UNL     1      11.198  28.776   9.332  1.00  0.00     0.000 C 
BRANCH  15  16
HETATM   16  C12 UNL     1      11.906  29.286  10.557  1.00  0.00     0.000 C 
BRANCH  16  17
HETATM   17  C13 UNL     1      13.368  29.523  10.346  1.00  0.00     0.000 C 
BRANCH  17  18
HETATM   18  C14 UNL     1      13.814  29.149   8.950  1.00  0.00     0.005 C 
BRANCH  18  19
HETATM   19  C15 UNL     1      15.064  29.900   8.548  1.00  0.00    -0.006 C 
HETATM   20  C16 UNL     1      15.106  31.299   9.160  1.00  0.00     0.013 C 
HETATM   21  C17 UNL     1      15.230  32.228   7.972  1.00  0.00     0.009 C 
HETATM   22  C18 UNL     1      13.968  32.136   7.223  1.00  0.00    -0.026 C 
HETATM   23  C21 UNL     1      16.135  31.355   7.077  1.00  0.00     0.017 C 
HETATM   24  C19 UNL     1      13.905  30.919   6.695  1.00  0.00    -0.025 C 
HETATM   25  C20 UNL     1      15.150  30.167   7.091  1.00  0.00     0.012 C 
ENDBRANCH  18  19
ENDBRANCH  17  18
ENDBRANCH  16  17
ENDBRANCH  15  16
ENDBRANCH  14  15
ENDBRANCH   1  14
TORSDOF 15
ENDMDL
MODEL 4
REMARK VINA RESULT: -6.847231144      1.006      1.565
REMARK  15 active torsions:
REMARK  status: ('A' for Active; 'I' for Inactive)
REMARK    1  A    between atoms: N1_1  and  C1_5 
REMARK    2  A    between atoms: C1_5  and  C2_6 
REMARK    3  A    between atoms: C2_6  and  C3_7 
REMARK    4  A    between atoms: C3_7  and  C4_8 
REMARK    5  A    between atoms: C4_8  and  C5_9 
REMARK    6  A    between atoms: C5_9  and  C6_10 
REMARK    7  A    between atoms: C6_10  and  C7_11 
REMARK    8  A    between atoms: C7_11  and  C8_12 
REMARK    9  A    between atoms: C8_12  and  C9_13 
REMARK   10  A    between atoms: C9_13  and  C10_14 
REMARK   11  A    between atoms: C10_14  and  C11_15 
REMARK   12  A    between atoms: C11_15  and  C12_16 
REMARK   13  A    between atoms: C12_16  and  C13_17 
REMARK   14  A    between atoms: C13_17  and  C14_18 
REMARK   15  A    between atoms: C14_18  and  C15_19 
ROOT
HETATM    1  C9  UNL     1       9.632  31.188   7.477  1.00  0.00     0.000 C 
ENDROOT
BRANCH   1   2
HETATM    2  C8  UNL     1       8.151  31.339   7.879  1.00  0.00     0.000 C 
BRANCH   2   3
HETATM    3  C7  UNL     1       7.367  31.813   6.698  1.00  0.00     0.000 C 
BRANCH   3   4
HETATM    4  C6  UNL     1       8.272  32.442   5.679  1.00  0.00     0.000 C 
BRANCH   4   5
HETATM    5  C5  UNL     1       7.575  33.596   5.017  1.00  0.00     0.000 C 
BRANCH   5   6
HETATM    6  C4  UNL     1       8.481  34.291   3.972  1.00  0.00     0.000 C 
BRANCH   6   7
HETATM    7  C3  UNL     1       9.834  34.554   4.503  1.00  0.00     0.002 C 
BRANCH   7   8
HETATM    8  C2  UNL     1      10.422  35.840   4.080  1.00  0.00     0.027 C 
BRANCH   8   9
HETATM    9  C1  UNL     1      11.300  36.580   5.004  1.00  0.00     0.229 C 
BRANCH   9  10
HETATM   10  N1  UNL     1      11.067  37.964   5.189  1.00  0.00    -0.079 N 
ATOM     11  H13 UNL     1      11.735  38.492   4.628  1.00  0.00     0.274 HD
ATOM     12  H12 UNL     1      10.189  38.217   4.737  1.00  0.00     0.274 HD
ATOM     13  H11 UNL     1      11.069  38.333   6.140  1.00  0.00     0.274 HD
ENDBRANCH   9  10
ENDBRANCH   8   9
ENDBRANCH   7   8
ENDBRANCH   6   7
ENDBRANCH   5   6
ENDBRANCH   4   5
ENDBRANCH   3   4
ENDBRANCH   2   3
ENDBRANCH   1   2
BRANCH   1  14
HETATM   14  C10 UNL     1      10.492  31.182   8.728  1.00  0.00     0.000 C 
BRANCH  14  15
HETATM   15  C11 UNL     1      11.044  29.834   9.037  1.00  0.00     0.000 C 
BRANCH  15  16
HETATM   16  C12 UNL     1      11.696  29.742  10.389  1.00  0.00     0.000 C 
BRANCH  16  17
HETATM   17  C13 UNL     1      13.164  29.456  10.324  1.00  0.00     0.000 C 
BRANCH  17  18
HETATM   18  C14 UNL     1      13.613  29.069   8.932  1.00  0.00     0.005 C 
BRANCH  18  19
HETATM   19  C15 UNL     1      14.919  29.737   8.566  1.00  0.00    -0.006 C 
HETATM   20  C16 UNL     1      15.090  31.076   9.279  1.00  0.00     0.013 C 
HETATM   21  C17 UNL     1      15.283  32.078   8.162  1.00  0.00     0.009 C 
HETATM   22  C18 UNL     1      14.010  32.153   7.430  1.00  0.00    -0.026 C 
HETATM   23  C21 UNL     1      16.098  31.199   7.190  1.00  0.00     0.017 C 
HETATM   24  C19 UNL     1      13.835  30.989   6.814  1.00  0.00    -0.025 C 
HETATM   25  C20 UNL     1      15.012  30.105   7.132  1.00  0.00     0.012 C 
ENDBRANCH  18  19
ENDBRANCH  17  18
ENDBRANCH  16  17
ENDBRANCH  15  16
ENDBRANCH  14  15
ENDBRANCH   1  14
TORSDOF 15
ENDMDL
MODEL 5
REMARK VINA RESULT: -6.810990435      1.499      2.119
REMARK  15 active torsions:
REMARK  status: ('A' for Active; 'I' for Inactive)
REMARK    1  A    between atoms: N1_1  and  C1_5 
REMARK    2  A    between atoms: C1_5  and  C2_6 
REMARK    3  A    between atoms: C2_6  and  C3_7 
REMARK    4  A    between atoms: C3_7  and  C4_8 
REMARK    5  A    between atoms: C4_8  and  C5_9 
REMARK    6  A    between atoms: C5_9  and  C6_10 
REMARK    7  A    between atoms: C6_10  and  C7_11 
REMARK    8  A    between atoms: C7_11  and  C8_12 
REMARK    9  A    between atoms: C8_12  and  C9_13 
REMARK   10  A    between atoms: C9_13  and  C10_14 
REMARK   11  A    between atoms: C10_14  and  C11_15 
REMARK   12  A    between atoms: C11_15  and  C12_16 
REMARK   13  A    between atoms: C12_16  and  C13_17 
REMARK   14  A    between atoms: C13_17  and  C14_18 
REMARK   15  A    between atoms: C14_18  and  C15_19 
ROOT
HETATM    1  C9  UNL     1       8.517  31.938   5.581  1.00  0.00     0.000 C 
ENDROOT
BRANCH   1   2
HETATM    2  C8  UNL     1       8.206  33.444   5.696  1.00  0.00     0.000 C 
BRANCH   2   3
HETATM    3  C7  UNL     1       7.604  33.921   4.414  1.00  0.00     0.000 C 
BRANCH   3   4
HETATM    4  C6  UNL     1       8.653  34.522   3.526  1.00  0.00     0.000 C 
BRANCH   4   5
HETATM    5  C5  UNL     1       9.731  35.153   4.359  1.00  0.00     0.000 C 
BRANCH   5   6
HETATM    6  C4  UNL     1      11.137  34.906   3.762  1.00  0.00     0.000 C 
BRANCH   6   7
HETATM    7  C3  UNL     1      11.519  33.480   3.821  1.00  0.00     0.002 C 
BRANCH   7   8
HETATM    8  C2  UNL     1      12.393  33.122   4.956  1.00  0.00     0.027 C 
BRANCH   8   9
HETATM    9  C1  UNL     1      13.092  34.183   5.701  1.00  0.00     0.229 C 
BRANCH   9  10
HETATM   10  N1  UNL     1      12.623  34.515   6.995  1.00  0.00    -0.079 N 
ATOM     11  H13 UNL     1      12.261  35.469   6.983  1.00  0.00     0.274 HD
ATOM     12  H12 UNL     1      11.774  33.985   7.188  1.00  0.00     0.274 HD
ATOM     13  H11 UNL     1      13.263  34.415   7.783  1.00  0.00     0.274 HD
ENDBRANCH   9  10
ENDBRANCH   8   9
ENDBRANCH   7   8
ENDBRANCH   6   7
ENDBRANCH   5   6
ENDBRANCH   4   5
ENDBRANCH   3   4
ENDBRANCH   2   3
ENDBRANCH   1   2
BRANCH   1  14
HETATM   14  C10 UNL     1       9.609  31.575   6.571  1.00  0.00     0.000 C 
BRANCH  14  15
HETATM   15  C11 UNL     1       9.174  31.739   7.987  1.00  0.00     0.000 C 
BRANCH  15  16
HETATM   16  C12 UNL     1       8.652  30.474   8.610  1.00  0.00     0.000 C 
BRANCH  16  17
HETATM   17  C13 UNL     1       9.598  29.859   9.593  1.00  0.00     0.000 C 
BRANCH  17  18
HETATM   18  C14 UNL     1      10.618  28.963   8.925  1.00  0.00     0.005 C 
BRANCH  18  19
HETATM   19  C15 UNL     1      11.933  28.970   9.670  1.00  0.00    -0.006 C 
HETATM   20  C16 UNL     1      11.992  30.089  10.708  1.00  0.00     0.013 C 
HETATM   21  C17 UNL     1      13.215  30.894  10.327  1.00  0.00     0.009 C 
HETATM   22  C18 UNL     1      12.921  31.534   9.036  1.00  0.00    -0.026 C 
HETATM   23  C21 UNL     1      14.124  29.741   9.851  1.00  0.00     0.017 C 
HETATM   24  C19 UNL     1      12.851  30.573   8.121  1.00  0.00    -0.025 C 
HETATM   25  C20 UNL     1      13.102  29.253   8.803  1.00  0.00     0.012 C 
ENDBRANCH  18  19
ENDBRANCH  17  18
ENDBRANCH  16  17
ENDBRANCH  15  16
ENDBRANCH  14  15
ENDBRANCH   1  14
TORSDOF 15
ENDMDL
