MODEL 1
REMARK VINA RESULT: -6.603941220      0.000      0.000
REMARK  14 active torsions:
REMARK  status: ('A' for Active; 'I' for Inactive)
REMARK    1  A    between atoms: C3_3  and  C4_4 
REMARK    2  A    between atoms: C4_4  and  C5_5 
REMARK    3  A    between atoms: C5_5  and  C6_6 
REMARK    4  A    between atoms: C6_6  and  C7_7 
REMARK    5  A    between atoms: C7_7  and  C8_8 
REMARK    6  A    between atoms: C8_8  and  C9_9 
REMARK    7  A    between atoms: C9_9  and  C10_10 
REMARK    8  A    between atoms: C10_10  and  C11_11 
REMARK    9  A    between atoms: C11_11  and  C12_12 
REMARK   10  A    between atoms: C12_12  and  C13_13 
REMARK   11  A    between atoms: C13_13  and  C14_14 
REMARK   12  A    between atoms: C14_14  and  C15_15 
REMARK   13  A    between atoms: C15_15  and  C16_16 
REMARK   14  A    between atoms: C16_16  and  C17_17 
ROOT
HETATM    1  C1  UNL     1      12.774  33.514   8.925  1.00  0.00     0.012 C 
HETATM    2  C2  UNL     1      12.658  32.640   8.109  1.00  0.00    -0.117 C 
HETATM    3  C3  UNL     1      12.537  31.584   7.105  1.00  0.00     0.093 C 
ENDROOT
BRANCH   3   4
HETATM    4  C4  UNL     1      13.831  31.378   6.339  1.00  0.00     0.012 C 
BRANCH   4   5
HETATM    5  C5  UNL     1      14.591  30.163   6.859  1.00  0.00     0.001 C 
BRANCH   5   6
HETATM    6  C6  UNL     1      15.836  30.550   7.585  1.00  0.00     0.000 C 
BRANCH   6   7
HETATM    7  C7  UNL     1      15.638  30.386   9.061  1.00  0.00     0.000 C 
BRANCH   7   8
HETATM    8  C8  UNL     1      14.452  29.546   9.433  1.00  0.00     0.000 C 
BRANCH   8   9
HETATM    9  C9  UNL     1      13.598  30.143  10.513  1.00  0.00     0.000 C 
BRANCH   9  10
HETATM   10  C10 UNL     1      12.325  29.377  10.680  1.00  0.00     0.000 C 
BRANCH  10  11
HETATM   11  C11 UNL     1      12.037  28.545   9.475  1.00  0.00     0.004 C 
BRANCH  11  12
HETATM   12  C12 UNL     1      10.576  28.649   9.010  1.00  0.00     0.027 C 
BRANCH  12  13
HETATM   13  C13 UNL     1       9.994  29.966   9.328  1.00  0.00    -0.031 C 
BRANCH  13  14
HETATM   14  C14 UNL     1       8.789  30.457   8.673  1.00  0.00    -0.031 C 
BRANCH  14  15
HETATM   15  C15 UNL     1       8.722  31.634   7.817  1.00  0.00     0.027 C 
BRANCH  15  16
HETATM   16  C16 UNL     1       7.545  31.789   6.948  1.00  0.00     0.008 C 
BRANCH  16  17
HETATM   17  C17 UNL     1       7.914  32.297   5.551  1.00  0.00    -0.011 C 
HETATM   18  C18 UNL     1       9.391  32.048   5.367  1.00  0.00     0.032 C 
HETATM   19  C19 UNL     1      10.118  33.335   5.033  1.00  0.00     0.232 C 
HETATM   20  N1  UNL     1       9.559  33.940   3.857  1.00  0.00    -0.075 N 
HETATM   21  C20 UNL     1       8.155  34.182   4.038  1.00  0.00     0.232 C 
ATOM     22  H12 UNL     1      10.061  34.788   3.591  1.00  0.00     0.277 HD
ATOM     23  H11 UNL     1       9.745  33.386   3.021  1.00  0.00     0.277 HD
HETATM   24  C21 UNL     1       7.646  33.757   5.398  1.00  0.00     0.032 C 
ENDBRANCH  16  17
ENDBRANCH  15  16
ENDBRANCH  14  15
ENDBRANCH  13  14
ENDBRANCH  12  13
ENDBRANCH  11  12
ENDBRANCH  10  11
ENDBRANCH   9  10
ENDBRANCH   8   9
ENDBRANCH   7   8
ENDBRANCH   6   7
ENDBRANCH   5   6
ENDBRANCH   4   5
ENDBRANCH   3   4
TORSDOF 14
ENDMDL
MODEL 2
REMARK VINA RESULT: -6.561781884      1.953      6.278
REMARK  14 active torsions:
REMARK  status: ('A' for Active; 'I' for Inactive)
REMARK    1  A    between atoms: C3_3  and  C4_4 
REMARK    2  A    between atoms: C4_4  and  C5_5 
REMARK    3  A    between atoms: C5_5  and  C6_6 
REMARK    4  A    between atoms: C6_6  and  C7_7 
REMARK    5  A    between atoms: C7_7  and  C8_8 
REMARK    6  A    between atoms: C8_8  and  C9_9 
REMARK    7  A    between atoms: C9_9  and  C10_10 
REMARK    8  A    between atoms: C10_10  and  C11_11 
REMARK    9  A    between atoms: C11_11  and  C12_12 
REMARK   10  A    between atoms: C12_12  and  C13_13 
REMARK   11  A    between atoms: C13_13  and  C14_14 
REMARK   12  A    between atoms: C14_14  and  C15_15 
REMARK   13  A    between atoms: C15_15  and  C16_16 
REMARK   14  A    between atoms: C16_16  and  C17_17 
ROOT
HETATM    1  C1  UNL     1      12.625  34.355   5.981  1.00  0.00     0.012 C 
HETATM    2  C2  UNL     1      11.948  34.441   4.993  1.00  0.00    -0.117 C 
HETATM    3  C3  UNL     1      11.104  34.549   3.803  1.00  0.00     0.093 C 
ENDROOT
BRANCH   3   4
HETATM    4  C4  UNL     1       9.765  35.191   4.115  1.00  0.00     0.012 C 
BRANCH   4   5
HETATM    5  C5  UNL     1       8.651  34.577   3.275  1.00  0.00     0.001 C 
BRANCH   5   6
HETATM    6  C6  UNL     1       7.472  34.192   4.104  1.00  0.00     0.000 C 
BRANCH   6   7
HETATM    7  C7  UNL     1       7.918  33.819   5.485  1.00  0.00     0.000 C 
BRANCH   7   8
HETATM    8  C8  UNL     1       7.920  32.342   5.752  1.00  0.00     0.000 C 
BRANCH   8   9
HETATM    9  C9  UNL     1       9.277  31.710   5.664  1.00  0.00     0.000 C 
BRANCH   9  10
HETATM   10  C10 UNL     1       9.904  31.585   7.016  1.00  0.00     0.000 C 
BRANCH  10  11
HETATM   11  C11 UNL     1       8.900  31.162   8.035  1.00  0.00     0.004 C 
BRANCH  11  12
HETATM   12  C12 UNL     1       9.534  30.454   9.243  1.00  0.00     0.027 C 
BRANCH  12  13
HETATM   13  C13 UNL     1      10.075  29.132   8.879  1.00  0.00    -0.031 C 
BRANCH  13  14
HETATM   14  C14 UNL     1      11.371  28.668   9.357  1.00  0.00    -0.031 C 
BRANCH  14  15
HETATM   15  C15 UNL     1      12.117  29.262  10.459  1.00  0.00     0.027 C 
BRANCH  15  16
HETATM   16  C16 UNL     1      13.198  30.205  10.130  1.00  0.00     0.008 C 
BRANCH  16  17
HETATM   17  C17 UNL     1      13.723  30.015   8.703  1.00  0.00    -0.011 C 
HETATM   18  C18 UNL     1      15.204  29.746   8.810  1.00  0.00     0.032 C 
HETATM   19  C19 UNL     1      15.995  30.749   7.994  1.00  0.00     0.232 C 
HETATM   20  N1  UNL     1      15.577  30.724   6.621  1.00  0.00    -0.075 N 
HETATM   21  C20 UNL     1      14.168  30.987   6.522  1.00  0.00     0.232 C 
ATOM     22  H12 UNL     1      16.125  31.364   6.045  1.00  0.00     0.277 HD
ATOM     23  H11 UNL     1      15.833  29.850   6.161  1.00  0.00     0.277 HD
HETATM   24  C21 UNL     1      13.510  31.230   7.864  1.00  0.00     0.032 C 
ENDBRANCH  16  17
ENDBRANCH  15  16
ENDBRANCH  14  15
ENDBRANCH  13  14
ENDBRANCH  12  13
ENDBRANCH  11  12
ENDBRANCH  10  11
ENDBRANCH   9  10
ENDBRANCH   8   9
ENDBRANCH   7   8
ENDBRANCH   6   7
ENDBRANCH   5   6
ENDBRANCH   4   5
ENDBRANCH   3   4
TORSDOF 14
ENDMDL
MODEL 3
REMARK VINA RESULT: -6.517113038      2.225      6.424
REMARK  14 active torsions:
REMARK  status: ('A' for Active; 'I' for Inactive)
REMARK    1  A    between atoms: C3_3  and  C4_4 
REMARK    2  A    between atoms: C4_4  and  C5_5 
REMARK    3  A    between atoms: C5_5  and  C6_6 
REMARK    4  A    between atoms: C6_6  and  C7_7 
REMARK    5  A    between atoms: C7_7  and  C8_8 
REMARK    6  A    between atoms: C8_8  and  C9_9 
REMARK    7  A    between atoms: C9_9  and  C10_10 
REMARK    8  A    between atoms: C10_10  and  C11_11 
REMARK    9  A    between atoms: C11_11  and  C12_12 
REMARK   10  A    between atoms: C12_12  and  C13_13 
REMARK   11  A    between atoms: C13_13  and  C14_14 
REMARK   12  A    between atoms: C14_14  and  C15_15 
REMARK   13  A    between atoms: C15_15  and  C16_16 
REMARK   14  A    between atoms: C16_16  and  C17_17 
ROOT
HETATM    1  C1  UNL     1      14.094  29.590   8.904  1.00  0.00     0.012 C 
HETATM    2  C2  UNL     1      12.942  29.304   9.086  1.00  0.00    -0.117 C 
HETATM    3  C3  UNL     1      11.534  28.979   9.315  1.00  0.00     0.093 C 
ENDROOT
BRANCH   3   4
HETATM    4  C4  UNL     1      10.672  30.224   9.408  1.00  0.00     0.012 C 
BRANCH   4   5
HETATM    5  C5  UNL     1       9.249  29.944   8.940  1.00  0.00     0.001 C 
BRANCH   5   6
HETATM    6  C6  UNL     1       8.674  31.092   8.181  1.00  0.00     0.000 C 
BRANCH   6   7
HETATM    7  C7  UNL     1       9.651  31.561   7.146  1.00  0.00     0.000 C 
BRANCH   7   8
HETATM    8  C8  UNL     1       9.077  31.672   5.764  1.00  0.00     0.000 C 
BRANCH   8   9
HETATM    9  C9  UNL     1       7.728  32.325   5.716  1.00  0.00     0.000 C 
BRANCH   9  10
HETATM   10  C10 UNL     1       7.850  33.802   5.512  1.00  0.00     0.000 C 
BRANCH  10  11
HETATM   11  C11 UNL     1       7.501  34.181   4.112  1.00  0.00     0.004 C 
BRANCH  11  12
HETATM   12  C12 UNL     1       8.726  34.582   3.276  1.00  0.00     0.027 C 
BRANCH  12  13
HETATM   13  C13 UNL     1       9.760  35.234   4.102  1.00  0.00    -0.031 C 
BRANCH  13  14
HETATM   14  C14 UNL     1      11.169  34.874   4.003  1.00  0.00    -0.031 C 
BRANCH  14  15
HETATM   15  C15 UNL     1      11.680  33.512   3.921  1.00  0.00     0.027 C 
BRANCH  15  16
HETATM   16  C16 UNL     1      12.505  33.018   5.035  1.00  0.00     0.008 C 
BRANCH  16  17
HETATM   17  C17 UNL     1      13.343  34.128   5.677  1.00  0.00    -0.011 C 
HETATM   18  C18 UNL     1      14.782  33.863   5.310  1.00  0.00     0.032 C 
HETATM   19  C19 UNL     1      15.643  33.746   6.551  1.00  0.00     0.232 C 
HETATM   20  N1  UNL     1      15.539  34.933   7.351  1.00  0.00    -0.075 N 
HETATM   21  C20 UNL     1      14.168  35.179   7.705  1.00  0.00     0.232 C 
ATOM     22  H12 UNL     1      16.142  34.892   8.173  1.00  0.00     0.277 HD
ATOM     23  H11 UNL     1      15.963  35.739   6.892  1.00  0.00     0.277 HD
HETATM   24  C21 UNL     1      13.215  34.135   7.163  1.00  0.00     0.032 C 
ENDBRANCH  16  17
ENDBRANCH  15  16
ENDBRANCH  14  15
ENDBRANCH  13  14
ENDBRANCH  12  13
ENDBRANCH  11  12
ENDBRANCH  10  11
ENDBRANCH   9  10
ENDBRANCH   8   9
ENDBRANCH   7   8
ENDBRANCH   6   7
ENDBRANCH   5   6
ENDBRANCH   4   5
ENDBRANCH   3   4
TORSDOF 14
ENDMDL
MODEL 4
REMARK VINA RESULT: -6.456250999      2.256      6.213
REMARK  14 active torsions:
REMARK  status: ('A' for Active; 'I' for Inactive)
REMARK    1  A    between atoms: C3_3  and  C4_4 
REMARK    2  A    between atoms: C4_4  and  C5_5 
REMARK    3  A    between atoms: C5_5  and  C6_6 
REMARK    4  A    between atoms: C6_6  and  C7_7 
REMARK    5  A    between atoms: C7_7  and  C8_8 
REMARK    6  A    between atoms: C8_8  and  C9_9 
REMARK    7  A    between atoms: C9_9  and  C10_10 
REMARK    8  A    between atoms: C10_10  and  C11_11 
REMARK    9  A    between atoms: C11_11  and  C12_12 
REMARK   10  A    between atoms: C12_12  and  C13_13 
REMARK   11  A    between atoms: C13_13  and  C14_14 
REMARK   12  A    between atoms: C14_14  and  C15_15 
REMARK   13  A    between atoms: C15_15  and  C16_16 
REMARK   14  A    between atoms: C16_16  and  C17_17 
ROOT
HETATM    1  C1  UNL     1       7.661  33.296   5.844  1.00  0.00     0.012 C 
HETATM    2  C2  UNL     1       7.975  33.831   4.816  1.00  0.00    -0.117 C 
HETATM    3  C3  UNL     1       8.380  34.486   3.572  1.00  0.00     0.093 C 
ENDROOT
BRANCH   3   4
HETATM    4  C4  UNL     1       9.887  34.627   3.469  1.00  0.00     0.012 C 
BRANCH   4   5
HETATM    5  C5  UNL     1      10.400  35.737   4.379  1.00  0.00     0.001 C 
BRANCH   5   6
HETATM    6  C6  UNL     1      11.883  35.696   4.532  1.00  0.00     0.000 C 
BRANCH   6   7
HETATM    7  C7  UNL     1      12.257  34.760   5.640  1.00  0.00     0.000 C 
BRANCH   7   8
HETATM    8  C8  UNL     1      13.188  33.658   5.227  1.00  0.00     0.000 C 
BRANCH   8   9
HETATM    9  C9  UNL     1      12.666  32.281   5.511  1.00  0.00     0.000 C 
BRANCH   9  10
HETATM   10  C10 UNL     1      11.342  32.338   6.204  1.00  0.00     0.000 C 
BRANCH  10  11
HETATM   11  C11 UNL     1      11.449  31.841   7.607  1.00  0.00     0.004 C 
BRANCH  11  12
HETATM   12  C12 UNL     1      10.183  31.112   8.083  1.00  0.00     0.027 C 
BRANCH  12  13
HETATM   13  C13 UNL     1      10.434  30.323   9.303  1.00  0.00    -0.031 C 
BRANCH  13  14
HETATM   14  C14 UNL     1      10.958  28.964   9.251  1.00  0.00    -0.031 C 
BRANCH  14  15
HETATM   15  C15 UNL     1      12.361  28.603   9.414  1.00  0.00     0.027 C 
BRANCH  15  16
HETATM   16  C16 UNL     1      13.255  29.582  10.051  1.00  0.00     0.008 C 
BRANCH  16  17
HETATM   17  C17 UNL     1      14.540  29.806   9.248  1.00  0.00    -0.011 C 
HETATM   18  C18 UNL     1      14.990  31.221   9.521  1.00  0.00     0.032 C 
HETATM   19  C19 UNL     1      15.128  32.001   8.230  1.00  0.00     0.232 C 
HETATM   20  N1  UNL     1      16.042  31.346   7.339  1.00  0.00    -0.075 N 
HETATM   21  C20 UNL     1      15.608  30.002   7.075  1.00  0.00     0.232 C 
ATOM     22  H12 UNL     1      16.181  31.877   6.478  1.00  0.00     0.277 HD
ATOM     23  H11 UNL     1      17.000  31.374   7.689  1.00  0.00     0.277 HD
HETATM   24  C21 UNL     1      14.319  29.643   7.782  1.00  0.00     0.032 C 
ENDBRANCH  16  17
ENDBRANCH  15  16
ENDBRANCH  14  15
ENDBRANCH  13  14
ENDBRANCH  12  13
ENDBRANCH  11  12
ENDBRANCH  10  11
ENDBRANCH   9  10
ENDBRANCH   8   9
ENDBRANCH   7   8
ENDBRANCH   6   7
ENDBRANCH   5   6
ENDBRANCH   4   5
ENDBRANCH   3   4
TORSDOF 14
ENDMDL
MODEL 5
REMARK VINA RESULT: -6.443216195      1.405      2.217
REMARK  14 active torsions:
REMARK  status: ('A' for Active; 'I' for Inactive)
REMARK    1  A    between atoms: C3_3  and  C4_4 
REMARK    2  A    between atoms: C4_4  and  C5_5 
REMARK    3  A    between atoms: C5_5  and  C6_6 
REMARK    4  A    between atoms: C6_6  and  C7_7 
REMARK    5  A    between atoms: C7_7  and  C8_8 
REMARK    6  A    between atoms: C8_8  and  C9_9 
REMARK    7  A    between atoms: C9_9  and  C10_10 
REMARK    8  A    between atoms: C10_10  and  C11_11 
REMARK    9  A    between atoms: C11_11  and  C12_12 
REMARK   10  A    between atoms: C12_12  and  C13_13 
REMARK   11  A    between atoms: C13_13  and  C14_14 
REMARK   12  A    between atoms: C14_14  and  C15_15 
REMARK   13  A    between atoms: C15_15  and  C16_16 
REMARK   14  A    between atoms: C16_16  and  C17_17 
ROOT
HETATM    1  C1  UNL     1      11.832  32.564  10.810  1.00  0.00     0.012 C 
HETATM    2  C2  UNL     1      12.263  32.858   9.728  1.00  0.00    -0.117 C 
HETATM    3  C3  UNL     1      12.807  33.205   8.416  1.00  0.00     0.093 C 
ENDROOT
BRANCH   3   4
HETATM    4  C4  UNL     1      13.992  32.332   8.045  1.00  0.00     0.012 C 
BRANCH   4   5
HETATM    5  C5  UNL     1      13.551  31.121   7.232  1.00  0.00     0.001 C 
BRANCH   5   6
HETATM    6  C6  UNL     1      14.280  29.883   7.632  1.00  0.00     0.000 C 
BRANCH   6   7
HETATM    7  C7  UNL     1      14.686  29.971   9.072  1.00  0.00     0.000 C 
BRANCH   7   8
HETATM    8  C8  UNL     1      13.654  29.459  10.034  1.00  0.00     0.000 C 
BRANCH   8   9
HETATM    9  C9  UNL     1      12.571  28.647   9.389  1.00  0.00     0.000 C 
BRANCH   9  10
HETATM   10  C10 UNL     1      11.217  29.133   9.795  1.00  0.00     0.000 C 
BRANCH  10  11
HETATM   11  C11 UNL     1      10.471  29.681   8.624  1.00  0.00     0.004 C 
BRANCH  11  12
HETATM   12  C12 UNL     1       9.124  30.311   9.013  1.00  0.00     0.027 C 
BRANCH  12  13
HETATM   13  C13 UNL     1       8.882  31.572   8.287  1.00  0.00    -0.031 C 
BRANCH  13  14
HETATM   14  C14 UNL     1       8.230  31.601   6.984  1.00  0.00    -0.031 C 
BRANCH  14  15
HETATM   15  C15 UNL     1       8.906  31.848   5.717  1.00  0.00     0.027 C 
BRANCH  15  16
HETATM   16  C16 UNL     1      10.296  32.329   5.759  1.00  0.00     0.008 C 
BRANCH  16  17
HETATM   17  C17 UNL     1      10.590  33.360   4.666  1.00  0.00    -0.011 C 
HETATM   18  C18 UNL     1      11.992  33.867   4.902  1.00  0.00     0.032 C 
HETATM   19  C19 UNL     1      12.002  35.374   5.057  1.00  0.00     0.232 C 
HETATM   20  N1  UNL     1      11.428  36.004   3.903  1.00  0.00    -0.075 N 
HETATM   21  C20 UNL     1      10.091  35.526   3.684  1.00  0.00     0.232 C 
ATOM     22  H12 UNL     1      11.461  37.022   3.969  1.00  0.00     0.277 HD
ATOM     23  H11 UNL     1      12.013  35.887   3.075  1.00  0.00     0.277 HD
HETATM   24  C21 UNL     1       9.644  34.513   4.716  1.00  0.00     0.032 C 
ENDBRANCH  16  17
ENDBRANCH  15  16
ENDBRANCH  14  15
ENDBRANCH  13  14
ENDBRANCH  12  13
ENDBRANCH  11  12
ENDBRANCH  10  11
ENDBRANCH   9  10
ENDBRANCH   8   9
ENDBRANCH   7   8
ENDBRANCH   6   7
ENDBRANCH   5   6
ENDBRANCH   4   5
ENDBRANCH   3   4
TORSDOF 14
ENDMDL
