MODEL 1
REMARK VINA RESULT: -6.617498804      0.000      0.000
REMARK  14 active torsions:
REMARK  status: ('A' for Active; 'I' for Inactive)
REMARK    1  A    between atoms: C3_3  and  C4_4 
REMARK    2  A    between atoms: C4_4  and  C5_5 
REMARK    3  A    between atoms: C5_5  and  C6_6 
REMARK    4  A    between atoms: C6_6  and  C7_7 
REMARK    5  A    between atoms: C7_7  and  C8_8 
REMARK    6  A    between atoms: C8_8  and  C9_9 
REMARK    7  A    between atoms: C9_9  and  C10_10 
REMARK    8  A    between atoms: C10_10  and  C11_11 
REMARK    9  A    between atoms: C11_11  and  C12_12 
REMARK   10  A    between atoms: C12_12  and  C13_13 
REMARK   11  A    between atoms: C13_13  and  C14_14 
REMARK   12  A    between atoms: C14_14  and  C15_15 
REMARK   13  A    between atoms: C15_15  and  N1_16 
REMARK   14  A    between atoms: N1_16  and  C16_18 
ROOT
HETATM    1  C1  UNL     1      12.705  32.946  10.242  1.00  0.00     0.012 C 
HETATM    2  C2  UNL     1      12.825  33.109   9.049  1.00  0.00    -0.117 C 
HETATM    3  C3  UNL     1      12.950  33.307   7.591  1.00  0.00     0.093 C 
ENDROOT
BRANCH   3   4
HETATM    4  C4  UNL     1      12.709  31.935   6.931  1.00  0.00     0.012 C 
BRANCH   4   5
HETATM    5  C5  UNL     1      13.891  31.719   6.024  1.00  0.00     0.001 C 
BRANCH   5   6
HETATM    6  C6  UNL     1      15.035  30.998   6.680  1.00  0.00     0.000 C 
BRANCH   6   7
HETATM    7  C7  UNL     1      14.481  29.849   7.509  1.00  0.00     0.000 C 
BRANCH   7   8
HETATM    8  C8  UNL     1      15.010  29.874   8.909  1.00  0.00     0.000 C 
BRANCH   8   9
HETATM    9  C9  UNL     1      13.906  29.618   9.890  1.00  0.00     0.000 C 
BRANCH   9  10
HETATM   10  C10 UNL     1      12.763  28.934   9.229  1.00  0.00     0.000 C 
BRANCH  10  11
HETATM   11  C11 UNL     1      11.430  29.325   9.888  1.00  0.00     0.000 C 
BRANCH  11  12
HETATM   12  C12 UNL     1      10.289  29.218   8.916  1.00  0.00     0.000 C 
BRANCH  12  13
HETATM   13  C13 UNL     1       9.877  30.599   8.474  1.00  0.00     0.002 C 
BRANCH  13  14
HETATM   14  C14 UNL     1       8.395  30.739   8.541  1.00  0.00     0.020 C 
BRANCH  14  15
HETATM   15  C15 UNL     1       7.923  31.657   7.404  1.00  0.00     0.119 C 
BRANCH  15  16
HETATM   16  N1  UNL     1       9.054  32.094   6.652  1.00  0.00    -0.390 N 
ATOM     17  H1  UNL     1       9.981  31.789   6.949  1.00  0.00     0.159 HD
BRANCH  16  18
HETATM   18  C16 UNL     1       8.954  32.937   5.504  1.00  0.00     0.027 A 
HETATM   19  C17 UNL     1      10.048  33.249   4.760  1.00  0.00     0.029 A 
HETATM   20  C18 UNL     1       9.987  34.064   3.642  1.00  0.00     0.002 A 
HETATM   21  C19 UNL     1       8.742  34.570   3.287  1.00  0.00     0.000 A 
HETATM   22  C20 UNL     1       7.607  34.276   4.016  1.00  0.00     0.002 A 
HETATM   23  C21 UNL     1       7.736  33.458   5.120  1.00  0.00     0.029 A 
ENDBRANCH  16  18
ENDBRANCH  15  16
ENDBRANCH  14  15
ENDBRANCH  13  14
ENDBRANCH  12  13
ENDBRANCH  11  12
ENDBRANCH  10  11
ENDBRANCH   9  10
ENDBRANCH   8   9
ENDBRANCH   7   8
ENDBRANCH   6   7
ENDBRANCH   5   6
ENDBRANCH   4   5
ENDBRANCH   3   4
TORSDOF 14
ENDMDL
MODEL 2
REMARK VINA RESULT: -6.570226068      1.540      6.936
REMARK  14 active torsions:
REMARK  status: ('A' for Active; 'I' for Inactive)
REMARK    1  A    between atoms: C3_3  and  C4_4 
REMARK    2  A    between atoms: C4_4  and  C5_5 
REMARK    3  A    between atoms: C5_5  and  C6_6 
REMARK    4  A    between atoms: C6_6  and  C7_7 
REMARK    5  A    between atoms: C7_7  and  C8_8 
REMARK    6  A    between atoms: C8_8  and  C9_9 
REMARK    7  A    between atoms: C9_9  and  C10_10 
REMARK    8  A    between atoms: C10_10  and  C11_11 
REMARK    9  A    between atoms: C11_11  and  C12_12 
REMARK   10  A    between atoms: C12_12  and  C13_13 
REMARK   11  A    between atoms: C13_13  and  C14_14 
REMARK   12  A    between atoms: C14_14  and  C15_15 
REMARK   13  A    between atoms: C15_15  and  N1_16 
REMARK   14  A    between atoms: N1_16  and  C16_18 
ROOT
HETATM    1  C1  UNL     1      10.230  29.164   8.981  1.00  0.00     0.012 C 
HETATM    2  C2  UNL     1       9.695  30.160   8.550  1.00  0.00    -0.117 C 
HETATM    3  C3  UNL     1       9.034  31.364   8.009  1.00  0.00     0.093 C 
ENDROOT
BRANCH   3   4
HETATM    4  C4  UNL     1       9.850  31.808   6.779  1.00  0.00     0.012 C 
BRANCH   4   5
HETATM    5  C5  UNL     1       8.927  31.626   5.603  1.00  0.00     0.001 C 
BRANCH   5   6
HETATM    6  C6  UNL     1       7.646  32.405   5.711  1.00  0.00     0.000 C 
BRANCH   6   7
HETATM    7  C7  UNL     1       7.939  33.873   5.442  1.00  0.00     0.000 C 
BRANCH   7   8
HETATM    8  C8  UNL     1       7.691  34.231   4.010  1.00  0.00     0.000 C 
BRANCH   8   9
HETATM    9  C9  UNL     1       8.984  34.545   3.318  1.00  0.00     0.000 C 
BRANCH   9  10
HETATM   10  C10 UNL     1       9.779  35.523   4.107  1.00  0.00     0.000 C 
BRANCH  10  11
HETATM   11  C11 UNL     1      11.285  35.235   3.986  1.00  0.00     0.000 C 
BRANCH  11  12
HETATM   12  C12 UNL     1      11.557  33.757   3.953  1.00  0.00     0.000 C 
BRANCH  12  13
HETATM   13  C13 UNL     1      12.574  33.412   5.010  1.00  0.00     0.002 C 
BRANCH  13  14
HETATM   14  C14 UNL     1      12.780  34.571   5.923  1.00  0.00     0.020 C 
BRANCH  14  15
HETATM   15  C15 UNL     1      13.555  34.106   7.164  1.00  0.00     0.119 C 
BRANCH  15  16
HETATM   16  N1  UNL     1      12.699  33.310   7.981  1.00  0.00    -0.390 N 
ATOM     17  H1  UNL     1      11.763  33.659   8.187  1.00  0.00     0.159 HD
BRANCH  16  18
HETATM   18  C16 UNL     1      13.087  32.048   8.528  1.00  0.00     0.027 A 
HETATM   19  C17 UNL     1      13.575  31.057   7.736  1.00  0.00     0.029 A 
HETATM   20  C18 UNL     1      13.960  29.822   8.232  1.00  0.00     0.002 A 
HETATM   21  C19 UNL     1      13.831  29.615   9.601  1.00  0.00     0.000 A 
HETATM   22  C20 UNL     1      13.340  30.597  10.438  1.00  0.00     0.002 A 
HETATM   23  C21 UNL     1      12.974  31.805   9.881  1.00  0.00     0.029 A 
ENDBRANCH  16  18
ENDBRANCH  15  16
ENDBRANCH  14  15
ENDBRANCH  13  14
ENDBRANCH  12  13
ENDBRANCH  11  12
ENDBRANCH  10  11
ENDBRANCH   9  10
ENDBRANCH   8   9
ENDBRANCH   7   8
ENDBRANCH   6   7
ENDBRANCH   5   6
ENDBRANCH   4   5
ENDBRANCH   3   4
TORSDOF 14
ENDMDL
MODEL 3
REMARK VINA RESULT: -6.438070012      1.641      6.895
REMARK  14 active torsions:
REMARK  status: ('A' for Active; 'I' for Inactive)
REMARK    1  A    between atoms: C3_3  and  C4_4 
REMARK    2  A    between atoms: C4_4  and  C5_5 
REMARK    3  A    between atoms: C5_5  and  C6_6 
REMARK    4  A    between atoms: C6_6  and  C7_7 
REMARK    5  A    between atoms: C7_7  and  C8_8 
REMARK    6  A    between atoms: C8_8  and  C9_9 
REMARK    7  A    between atoms: C9_9  and  C10_10 
REMARK    8  A    between atoms: C10_10  and  C11_11 
REMARK    9  A    between atoms: C11_11  and  C12_12 
REMARK   10  A    between atoms: C12_12  and  C13_13 
REMARK   11  A    between atoms: C13_13  and  C14_14 
REMARK   12  A    between atoms: C14_14  and  C15_15 
REMARK   13  A    between atoms: C15_15  and  N1_16 
REMARK   14  A    between atoms: N1_16  and  C16_18 
ROOT
HETATM    1  C1  UNL     1      11.837  28.235   9.562  1.00  0.00     0.012 C 
HETATM    2  C2  UNL     1      11.000  29.040   9.222  1.00  0.00    -0.117 C 
HETATM    3  C3  UNL     1       9.981  30.015   8.786  1.00  0.00     0.093 C 
ENDROOT
BRANCH   3   4
HETATM    4  C4  UNL     1      10.730  31.162   8.081  1.00  0.00     0.012 C 
BRANCH   4   5
HETATM    5  C5  UNL     1       9.824  31.599   6.960  1.00  0.00     0.001 C 
BRANCH   5   6
HETATM    6  C6  UNL     1       8.368  31.628   7.334  1.00  0.00     0.000 C 
BRANCH   6   7
HETATM    7  C7  UNL     1       7.570  32.167   6.157  1.00  0.00     0.000 C 
BRANCH   7   8
HETATM    8  C8  UNL     1       8.080  33.501   5.709  1.00  0.00     0.000 C 
BRANCH   8   9
HETATM    9  C9  UNL     1       7.411  33.915   4.433  1.00  0.00     0.000 C 
BRANCH   9  10
HETATM   10  C10 UNL     1       8.379  34.582   3.523  1.00  0.00     0.000 C 
BRANCH  10  11
HETATM   11  C11 UNL     1       9.825  34.365   3.999  1.00  0.00     0.000 C 
BRANCH  11  12
HETATM   12  C12 UNL     1      10.577  35.664   4.069  1.00  0.00     0.000 C 
BRANCH  12  13
HETATM   13  C13 UNL     1      11.771  35.503   4.974  1.00  0.00     0.002 C 
BRANCH  13  14
HETATM   14  C14 UNL     1      11.915  34.078   5.385  1.00  0.00     0.020 C 
BRANCH  14  15
HETATM   15  C15 UNL     1      12.813  33.998   6.629  1.00  0.00     0.119 C 
BRANCH  15  16
HETATM   16  N1  UNL     1      13.901  33.114   6.367  1.00  0.00    -0.390 N 
ATOM     17  H1  UNL     1      14.466  33.274   5.532  1.00  0.00     0.159 HD
BRANCH  16  18
HETATM   18  C16 UNL     1      14.239  32.015   7.214  1.00  0.00     0.027 A 
HETATM   19  C17 UNL     1      14.312  30.747   6.729  1.00  0.00     0.029 A 
HETATM   20  C18 UNL     1      14.637  29.658   7.523  1.00  0.00     0.002 A 
HETATM   21  C19 UNL     1      14.895  29.901   8.867  1.00  0.00     0.000 A 
HETATM   22  C20 UNL     1      14.831  31.176   9.396  1.00  0.00     0.002 A 
HETATM   23  C21 UNL     1      14.502  32.217   8.553  1.00  0.00     0.029 A 
ENDBRANCH  16  18
ENDBRANCH  15  16
ENDBRANCH  14  15
ENDBRANCH  13  14
ENDBRANCH  12  13
ENDBRANCH  11  12
ENDBRANCH  10  11
ENDBRANCH   9  10
ENDBRANCH   8   9
ENDBRANCH   7   8
ENDBRANCH   6   7
ENDBRANCH   5   6
ENDBRANCH   4   5
ENDBRANCH   3   4
TORSDOF 14
ENDMDL
MODEL 4
REMARK VINA RESULT: -6.378011572      1.796      6.126
REMARK  14 active torsions:
REMARK  status: ('A' for Active; 'I' for Inactive)
REMARK    1  A    between atoms: C3_3  and  C4_4 
REMARK    2  A    between atoms: C4_4  and  C5_5 
REMARK    3  A    between atoms: C5_5  and  C6_6 
REMARK    4  A    between atoms: C6_6  and  C7_7 
REMARK    5  A    between atoms: C7_7  and  C8_8 
REMARK    6  A    between atoms: C8_8  and  C9_9 
REMARK    7  A    between atoms: C9_9  and  C10_10 
REMARK    8  A    between atoms: C10_10  and  C11_11 
REMARK    9  A    between atoms: C11_11  and  C12_12 
REMARK   10  A    between atoms: C12_12  and  C13_13 
REMARK   11  A    between atoms: C13_13  and  C14_14 
REMARK   12  A    between atoms: C14_14  and  C15_15 
REMARK   13  A    between atoms: C15_15  and  N1_16 
REMARK   14  A    between atoms: N1_16  and  C16_18 
ROOT
HETATM    1  C1  UNL     1      13.009  31.926   6.499  1.00  0.00     0.012 C 
HETATM    2  C2  UNL     1      13.262  32.956   5.916  1.00  0.00    -0.117 C 
HETATM    3  C3  UNL     1      13.581  34.220   5.222  1.00  0.00     0.093 C 
ENDROOT
BRANCH   3   4
HETATM    4  C4  UNL     1      12.584  35.276   5.736  1.00  0.00     0.012 C 
BRANCH   4   5
HETATM    5  C5  UNL     1      11.972  35.879   4.499  1.00  0.00     0.001 C 
BRANCH   5   6
HETATM    6  C6  UNL     1      10.503  36.168   4.628  1.00  0.00     0.000 C 
BRANCH   6   7
HETATM    7  C7  UNL     1       9.732  35.202   3.740  1.00  0.00     0.000 C 
BRANCH   7   8
HETATM    8  C8  UNL     1       9.072  34.125   4.541  1.00  0.00     0.000 C 
BRANCH   8   9
HETATM    9  C9  UNL     1       9.862  32.854   4.460  1.00  0.00     0.000 C 
BRANCH   9  10
HETATM   10  C10 UNL     1       9.558  31.969   5.616  1.00  0.00     0.000 C 
BRANCH  10  11
HETATM   11  C11 UNL     1       8.098  32.134   6.068  1.00  0.00     0.000 C 
BRANCH  11  12
HETATM   12  C12 UNL     1       7.890  31.584   7.452  1.00  0.00     0.000 C 
BRANCH  12  13
HETATM   13  C13 UNL     1       9.224  31.216   8.049  1.00  0.00     0.002 C 
BRANCH  13  14
HETATM   14  C14 UNL     1       9.064  30.083   9.003  1.00  0.00     0.020 C 
BRANCH  14  15
HETATM   15  C15 UNL     1      10.351  29.245   9.013  1.00  0.00     0.119 C 
BRANCH  15  16
HETATM   16  N1  UNL     1      11.203  29.706  10.060  1.00  0.00    -0.390 N 
ATOM     17  H1  UNL     1      10.833  29.733  11.010  1.00  0.00     0.159 HD
BRANCH  16  18
HETATM   18  C16 UNL     1      12.549  30.132   9.845  1.00  0.00     0.027 A 
HETATM   19  C17 UNL     1      13.439  29.350   9.178  1.00  0.00     0.029 A 
HETATM   20  C18 UNL     1      14.752  29.732   8.952  1.00  0.00     0.002 A 
HETATM   21  C19 UNL     1      15.149  30.972   9.438  1.00  0.00     0.000 A 
HETATM   22  C20 UNL     1      14.274  31.795  10.120  1.00  0.00     0.002 A 
HETATM   23  C21 UNL     1      12.981  31.356  10.312  1.00  0.00     0.029 A 
ENDBRANCH  16  18
ENDBRANCH  15  16
ENDBRANCH  14  15
ENDBRANCH  13  14
ENDBRANCH  12  13
ENDBRANCH  11  12
ENDBRANCH  10  11
ENDBRANCH   9  10
ENDBRANCH   8   9
ENDBRANCH   7   8
ENDBRANCH   6   7
ENDBRANCH   5   6
ENDBRANCH   4   5
ENDBRANCH   3   4
TORSDOF 14
ENDMDL
MODEL 5
REMARK VINA RESULT: -6.344341499      1.876      5.437
REMARK  14 active torsions:
REMARK  status: ('A' for Active; 'I' for Inactive)
REMARK    1  A    between atoms: C3_3  and  C4_4 
REMARK    2  A    between atoms: C4_4  and  C5_5 
REMARK    3  A    between atoms: C5_5  and  C6_6 
REMARK    4  A    between atoms: C6_6  and  C7_7 
REMARK    5  A    between atoms: C7_7  and  C8_8 
REMARK    6  A    between atoms: C8_8  and  C9_9 
REMARK    7  A    between atoms: C9_9  and  C10_10 
REMARK    8  A    between atoms: C10_10  and  C11_11 
REMARK    9  A    between atoms: C11_11  and  C12_12 
REMARK   10  A    between atoms: C12_12  and  C13_13 
REMARK   11  A    between atoms: C13_13  and  C14_14 
REMARK   12  A    between atoms: C14_14  and  C15_15 
REMARK   13  A    between atoms: C15_15  and  N1_16 
REMARK   14  A    between atoms: N1_16  and  C16_18 
ROOT
HETATM    1  C1  UNL     1       8.842  34.483   3.332  1.00  0.00     0.012 C 
HETATM    2  C2  UNL     1       8.348  34.099   4.368  1.00  0.00    -0.117 C 
HETATM    3  C3  UNL     1       7.765  33.629   5.640  1.00  0.00     0.093 C 
ENDROOT
BRANCH   3   4
HETATM    4  C4  UNL     1       8.050  32.117   5.732  1.00  0.00     0.012 C 
BRANCH   4   5
HETATM    5  C5  UNL     1       7.851  31.763   7.182  1.00  0.00     0.001 C 
BRANCH   5   6
HETATM    6  C6  UNL     1       9.124  31.412   7.901  1.00  0.00     0.000 C 
BRANCH   6   7
HETATM    7  C7  UNL     1       8.870  30.200   8.785  1.00  0.00     0.000 C 
BRANCH   7   8
HETATM    8  C8  UNL     1      10.149  29.536   9.190  1.00  0.00     0.000 C 
BRANCH   8   9
HETATM    9  C9  UNL     1      11.233  30.556   9.370  1.00  0.00     0.000 C 
BRANCH   9  10
HETATM   10  C10 UNL     1      12.180  30.135  10.436  1.00  0.00     0.000 C 
BRANCH  10  11
HETATM   11  C11 UNL     1      13.088  28.994   9.950  1.00  0.00     0.000 C 
BRANCH  11  12
HETATM   12  C12 UNL     1      13.856  29.394   8.721  1.00  0.00     0.000 C 
BRANCH  12  13
HETATM   13  C13 UNL     1      14.984  30.314   9.114  1.00  0.00     0.002 C 
BRANCH  13  14
HETATM   14  C14 UNL     1      16.072  30.254   8.098  1.00  0.00     0.020 C 
BRANCH  14  15
HETATM   15  C15 UNL     1      16.050  31.540   7.258  1.00  0.00     0.119 C 
BRANCH  15  16
HETATM   16  N1  UNL     1      15.119  31.386   6.188  1.00  0.00    -0.390 N 
ATOM     17  H1  UNL     1      15.220  30.580   5.570  1.00  0.00     0.159 HD
BRANCH  16  18
HETATM   18  C16 UNL     1      14.053  32.303   5.937  1.00  0.00     0.027 A 
HETATM   19  C17 UNL     1      12.754  31.929   6.077  1.00  0.00     0.029 A 
HETATM   20  C18 UNL     1      11.696  32.792   5.842  1.00  0.00     0.002 A 
HETATM   21  C19 UNL     1      12.004  34.089   5.449  1.00  0.00     0.000 A 
HETATM   22  C20 UNL     1      13.312  34.507   5.296  1.00  0.00     0.002 A 
HETATM   23  C21 UNL     1      14.320  33.598   5.546  1.00  0.00     0.029 A 
ENDBRANCH  16  18
ENDBRANCH  15  16
ENDBRANCH  14  15
ENDBRANCH  13  14
ENDBRANCH  12  13
ENDBRANCH  11  12
ENDBRANCH  10  11
ENDBRANCH   9  10
ENDBRANCH   8   9
ENDBRANCH   7   8
ENDBRANCH   6   7
ENDBRANCH   5   6
ENDBRANCH   4   5
ENDBRANCH   3   4
TORSDOF 14
ENDMDL
