MODEL 1
REMARK VINA RESULT: -6.896129900      0.000      0.000
REMARK  14 active torsions:
REMARK  status: ('A' for Active; 'I' for Inactive)
REMARK    1  A    between atoms: C3_3  and  C4_4 
REMARK    2  A    between atoms: C4_4  and  C5_5 
REMARK    3  A    between atoms: C5_5  and  C6_6 
REMARK    4  A    between atoms: C6_6  and  C7_7 
REMARK    5  A    between atoms: C7_7  and  C8_8 
REMARK    6  A    between atoms: C8_8  and  C9_9 
REMARK    7  A    between atoms: C9_9  and  C10_10 
REMARK    8  A    between atoms: C10_10  and  C11_11 
REMARK    9  A    between atoms: C11_11  and  C12_12 
REMARK   10  A    between atoms: C12_12  and  C13_13 
REMARK   11  A    between atoms: C13_13  and  C14_14 
REMARK   12  A    between atoms: C14_14  and  C15_15 
REMARK   13  A    between atoms: C15_15  and  C16_16 
REMARK   14  A    between atoms: C16_16  and  C17_17 
ROOT
HETATM    1  C11 UNL     1       9.289  31.028   7.833  1.00  0.00     0.000 C 
ENDROOT
BRANCH   1   2
HETATM    2  C10 UNL     1       7.855  31.430   7.861  1.00  0.00     0.000 C 
BRANCH   2   3
HETATM    3  C9  UNL     1       7.300  31.599   6.482  1.00  0.00     0.000 C 
BRANCH   3   4
HETATM    4  C8  UNL     1       8.319  32.250   5.581  1.00  0.00     0.000 C 
BRANCH   4   5
HETATM    5  C7  UNL     1       8.031  33.737   5.522  1.00  0.00     0.000 C 
BRANCH   5   6
HETATM    6  C6  UNL     1       7.557  34.176   4.166  1.00  0.00     0.000 C 
BRANCH   6   7
HETATM    7  C5  UNL     1       8.723  34.503   3.258  1.00  0.00     0.001 C 
BRANCH   7   8
HETATM    8  C4  UNL     1       9.797  35.234   4.008  1.00  0.00     0.009 C 
BRANCH   8   9
HETATM    9  C3  UNL     1      11.155  34.632   3.881  1.00  0.00     0.011 A 
HETATM   10  C2  UNL     1      11.786  34.191   5.150  1.00  0.00    -0.026 A 
HETATM   11  C1  UNL     1      11.898  32.926   4.806  1.00  0.00    -0.030 A 
HETATM   12  C20 UNL     1      11.289  33.219   3.517  1.00  0.00     0.035 A 
ENDBRANCH   8   9
ENDBRANCH   7   8
ENDBRANCH   6   7
ENDBRANCH   5   6
ENDBRANCH   4   5
ENDBRANCH   3   4
ENDBRANCH   2   3
ENDBRANCH   1   2
BRANCH   1  13
HETATM   13  C12 UNL     1       9.666  30.291   9.114  1.00  0.00     0.000 C 
BRANCH  13  14
HETATM   14  C13 UNL     1      10.452  29.046   8.881  1.00  0.00     0.000 C 
BRANCH  14  15
HETATM   15  C14 UNL     1      11.591  28.902   9.882  1.00  0.00     0.000 C 
BRANCH  15  16
HETATM   16  C15 UNL     1      12.897  29.071   9.168  1.00  0.00     0.006 C 
BRANCH  16  17
HETATM   17  C16 UNL     1      13.772  30.140   9.708  1.00  0.00     0.058 C 
BRANCH  17  18
HETATM   18  C17 UNL     1      13.168  31.471   9.836  1.00  0.00     0.025 A 
HETATM   19  C18 UNL     1      12.735  32.369   8.906  1.00  0.00     0.113 A 
HETATM   20  N1  UNL     1      12.244  33.432   9.572  1.00  0.00    -0.360 N 
HETATM   21  C19 UNL     1      12.358  33.225  10.892  1.00  0.00     0.180 A 
ATOM     22  H1  UNL     1      11.847  34.266   9.139  1.00  0.00     0.166 HD
HETATM   23  N2  UNL     1      12.925  32.023  11.045  1.00  0.00    -0.355 N 
ATOM     24  H2  UNL     1      13.140  31.586  11.942  1.00  0.00     0.166 HD
ENDBRANCH  17  18
ENDBRANCH  16  17
ENDBRANCH  15  16
ENDBRANCH  14  15
ENDBRANCH  13  14
ENDBRANCH   1  13
TORSDOF 14
ENDMDL
MODEL 2
REMARK VINA RESULT: -6.869499316      2.047      6.140
REMARK  14 active torsions:
REMARK  status: ('A' for Active; 'I' for Inactive)
REMARK    1  A    between atoms: C3_3  and  C4_4 
REMARK    2  A    between atoms: C4_4  and  C5_5 
REMARK    3  A    between atoms: C5_5  and  C6_6 
REMARK    4  A    between atoms: C6_6  and  C7_7 
REMARK    5  A    between atoms: C7_7  and  C8_8 
REMARK    6  A    between atoms: C8_8  and  C9_9 
REMARK    7  A    between atoms: C9_9  and  C10_10 
REMARK    8  A    between atoms: C10_10  and  C11_11 
REMARK    9  A    between atoms: C11_11  and  C12_12 
REMARK   10  A    between atoms: C12_12  and  C13_13 
REMARK   11  A    between atoms: C13_13  and  C14_14 
REMARK   12  A    between atoms: C14_14  and  C15_15 
REMARK   13  A    between atoms: C15_15  and  C16_16 
REMARK   14  A    between atoms: C16_16  and  C17_17 
ROOT
HETATM    1  C11 UNL     1      10.058  29.392   8.705  1.00  0.00     0.000 C 
ENDROOT
BRANCH   1   2
HETATM    2  C10 UNL     1      10.970  29.274   9.878  1.00  0.00     0.000 C 
BRANCH   2   3
HETATM    3  C9  UNL     1      12.281  28.660   9.501  1.00  0.00     0.000 C 
BRANCH   3   4
HETATM    4  C8  UNL     1      13.403  29.293  10.287  1.00  0.00     0.000 C 
BRANCH   4   5
HETATM    5  C7  UNL     1      14.499  29.697   9.321  1.00  0.00     0.000 C 
BRANCH   5   6
HETATM    6  C6  UNL     1      13.981  29.932   7.932  1.00  0.00     0.000 C 
BRANCH   6   7
HETATM    7  C5  UNL     1      13.962  31.409   7.598  1.00  0.00     0.001 C 
BRANCH   7   8
HETATM    8  C4  UNL     1      12.593  31.987   7.806  1.00  0.00     0.009 C 
BRANCH   8   9
HETATM    9  C3  UNL     1      12.531  33.065   8.835  1.00  0.00     0.011 A 
HETATM   10  C2  UNL     1      11.769  32.739  10.066  1.00  0.00    -0.026 A 
HETATM   11  C1  UNL     1      12.781  32.898  10.891  1.00  0.00    -0.030 A 
HETATM   12  C20 UNL     1      13.645  33.238   9.771  1.00  0.00     0.035 A 
ENDBRANCH   8   9
ENDBRANCH   7   8
ENDBRANCH   6   7
ENDBRANCH   5   6
ENDBRANCH   4   5
ENDBRANCH   3   4
ENDBRANCH   2   3
ENDBRANCH   1   2
BRANCH   1  13
HETATM   13  C12 UNL     1       8.913  30.353   9.008  1.00  0.00     0.000 C 
BRANCH  13  14
HETATM   14  C13 UNL     1       8.851  31.523   8.086  1.00  0.00     0.000 C 
BRANCH  14  15
HETATM   15  C14 UNL     1       7.577  31.516   7.251  1.00  0.00     0.000 C 
BRANCH  15  16
HETATM   16  C15 UNL     1       7.894  31.990   5.866  1.00  0.00     0.006 C 
BRANCH  16  17
HETATM   17  C16 UNL     1       9.336  32.204   5.594  1.00  0.00     0.058 C 
BRANCH  17  18
HETATM   18  C17 UNL     1       9.697  33.481   4.966  1.00  0.00     0.025 A 
HETATM   19  C18 UNL     1       9.115  34.200   3.965  1.00  0.00     0.113 A 
HETATM   20  N1  UNL     1       9.849  35.316   3.792  1.00  0.00    -0.360 N 
HETATM   21  C19 UNL     1      10.875  35.314   4.657  1.00  0.00     0.180 A 
ATOM     22  H1  UNL     1       9.656  36.048   3.110  1.00  0.00     0.166 HD
HETATM   23  N2  UNL     1      10.774  34.188   5.371  1.00  0.00    -0.355 N 
ATOM     24  H2  UNL     1      11.415  33.905   6.112  1.00  0.00     0.166 HD
ENDBRANCH  17  18
ENDBRANCH  16  17
ENDBRANCH  15  16
ENDBRANCH  14  15
ENDBRANCH  13  14
ENDBRANCH   1  13
TORSDOF 14
ENDMDL
MODEL 3
REMARK VINA RESULT: -6.799199503      2.169      6.324
REMARK  14 active torsions:
REMARK  status: ('A' for Active; 'I' for Inactive)
REMARK    1  A    between atoms: C3_3  and  C4_4 
REMARK    2  A    between atoms: C4_4  and  C5_5 
REMARK    3  A    between atoms: C5_5  and  C6_6 
REMARK    4  A    between atoms: C6_6  and  C7_7 
REMARK    5  A    between atoms: C7_7  and  C8_8 
REMARK    6  A    between atoms: C8_8  and  C9_9 
REMARK    7  A    between atoms: C9_9  and  C10_10 
REMARK    8  A    between atoms: C10_10  and  C11_11 
REMARK    9  A    between atoms: C11_11  and  C12_12 
REMARK   10  A    between atoms: C12_12  and  C13_13 
REMARK   11  A    between atoms: C13_13  and  C14_14 
REMARK   12  A    between atoms: C14_14  and  C15_15 
REMARK   13  A    between atoms: C15_15  and  C16_16 
REMARK   14  A    between atoms: C16_16  and  C17_17 
ROOT
HETATM    1  C11 UNL     1       9.704  30.816   9.003  1.00  0.00     0.000 C 
ENDROOT
BRANCH   1   2
HETATM    2  C10 UNL     1       9.979  29.360   8.850  1.00  0.00     0.000 C 
BRANCH   2   3
HETATM    3  C9  UNL     1      11.379  29.015   9.245  1.00  0.00     0.000 C 
BRANCH   3   4
HETATM    4  C8  UNL     1      11.800  29.822  10.448  1.00  0.00     0.000 C 
BRANCH   4   5
HETATM    5  C7  UNL     1      13.315  29.836  10.514  1.00  0.00     0.000 C 
BRANCH   5   6
HETATM    6  C6  UNL     1      13.946  29.220   9.298  1.00  0.00     0.000 C 
BRANCH   6   7
HETATM    7  C5  UNL     1      15.064  30.090   8.762  1.00  0.00     0.001 C 
BRANCH   7   8
HETATM    8  C4  UNL     1      14.800  31.538   9.052  1.00  0.00     0.009 C 
BRANCH   8   9
HETATM    9  C3  UNL     1      14.197  32.293   7.916  1.00  0.00     0.011 A 
HETATM   10  C2  UNL     1      13.837  31.484   6.724  1.00  0.00    -0.026 A 
HETATM   11  C1  UNL     1      12.554  31.772   6.754  1.00  0.00    -0.030 A 
HETATM   12  C20 UNL     1      12.765  32.602   7.931  1.00  0.00     0.035 A 
ENDBRANCH   8   9
ENDBRANCH   7   8
ENDBRANCH   6   7
ENDBRANCH   5   6
ENDBRANCH   4   5
ENDBRANCH   3   4
ENDBRANCH   2   3
ENDBRANCH   1   2
BRANCH   1  13
HETATM   13  C12 UNL     1       8.509  31.231   8.152  1.00  0.00     0.000 C 
BRANCH  13  14
HETATM   14  C13 UNL     1       8.876  31.671   6.776  1.00  0.00     0.000 C 
BRANCH  14  15
HETATM   15  C14 UNL     1       7.666  32.185   6.005  1.00  0.00     0.000 C 
BRANCH  15  16
HETATM   16  C15 UNL     1       7.842  33.647   5.733  1.00  0.00     0.006 C 
BRANCH  16  17
HETATM   17  C16 UNL     1       8.398  33.972   4.397  1.00  0.00     0.058 C 
BRANCH  17  18
HETATM   18  C17 UNL     1       9.662  34.718   4.382  1.00  0.00     0.025 A 
HETATM   19  C18 UNL     1      10.080  35.786   3.646  1.00  0.00     0.113 A 
HETATM   20  N1  UNL     1      11.330  36.088   4.050  1.00  0.00    -0.360 N 
HETATM   21  C19 UNL     1      11.704  35.238   5.018  1.00  0.00     0.180 A 
ATOM     22  H1  UNL     1      11.902  36.845   3.678  1.00  0.00     0.166 HD
HETATM   23  N2  UNL     1      10.677  34.403   5.215  1.00  0.00    -0.355 N 
ATOM     24  H2  UNL     1      10.663  33.642   5.894  1.00  0.00     0.166 HD
ENDBRANCH  17  18
ENDBRANCH  16  17
ENDBRANCH  15  16
ENDBRANCH  14  15
ENDBRANCH  13  14
ENDBRANCH   1  13
TORSDOF 14
ENDMDL
MODEL 4
REMARK VINA RESULT: -6.740550650      1.990      2.405
REMARK  14 active torsions:
REMARK  status: ('A' for Active; 'I' for Inactive)
REMARK    1  A    between atoms: C3_3  and  C4_4 
REMARK    2  A    between atoms: C4_4  and  C5_5 
REMARK    3  A    between atoms: C5_5  and  C6_6 
REMARK    4  A    between atoms: C6_6  and  C7_7 
REMARK    5  A    between atoms: C7_7  and  C8_8 
REMARK    6  A    between atoms: C8_8  and  C9_9 
REMARK    7  A    between atoms: C9_9  and  C10_10 
REMARK    8  A    between atoms: C10_10  and  C11_11 
REMARK    9  A    between atoms: C11_11  and  C12_12 
REMARK   10  A    between atoms: C12_12  and  C13_13 
REMARK   11  A    between atoms: C13_13  and  C14_14 
REMARK   12  A    between atoms: C14_14  and  C15_15 
REMARK   13  A    between atoms: C15_15  and  C16_16 
REMARK   14  A    between atoms: C16_16  and  C17_17 
ROOT
HETATM    1  C11 UNL     1       9.496  30.823   8.803  1.00  0.00     0.000 C 
ENDROOT
BRANCH   1   2
HETATM    2  C10 UNL     1       9.260  31.172   7.374  1.00  0.00     0.000 C 
BRANCH   2   3
HETATM    3  C9  UNL     1       7.993  31.946   7.195  1.00  0.00     0.000 C 
BRANCH   3   4
HETATM    4  C8  UNL     1       7.758  32.238   5.733  1.00  0.00     0.000 C 
BRANCH   4   5
HETATM    5  C7  UNL     1       7.816  33.739   5.526  1.00  0.00     0.000 C 
BRANCH   5   6
HETATM    6  C6  UNL     1       7.427  34.141   4.133  1.00  0.00     0.000 C 
BRANCH   6   7
HETATM    7  C5  UNL     1       8.634  34.585   3.334  1.00  0.00     0.001 C 
BRANCH   7   8
HETATM    8  C4  UNL     1       9.751  35.006   4.242  1.00  0.00     0.009 C 
BRANCH   8   9
HETATM    9  C3  UNL     1      11.016  34.238   4.058  1.00  0.00     0.011 A 
HETATM   10  C2  UNL     1      11.472  33.455   5.235  1.00  0.00    -0.026 A 
HETATM   11  C1  UNL     1      11.430  32.285   4.635  1.00  0.00    -0.030 A 
HETATM   12  C20 UNL     1      10.977  32.924   3.410  1.00  0.00     0.035 A 
ENDBRANCH   8   9
ENDBRANCH   7   8
ENDBRANCH   6   7
ENDBRANCH   5   6
ENDBRANCH   4   5
ENDBRANCH   3   4
ENDBRANCH   2   3
ENDBRANCH   1   2
BRANCH   1  13
HETATM   13  C12 UNL     1      10.280  29.519   8.917  1.00  0.00     0.000 C 
BRANCH  13  14
HETATM   14  C13 UNL     1      11.377  29.565   9.924  1.00  0.00     0.000 C 
BRANCH  14  15
HETATM   15  C14 UNL     1      12.690  29.042   9.353  1.00  0.00     0.000 C 
BRANCH  15  16
HETATM   16  C15 UNL     1      13.735  30.108   9.470  1.00  0.00     0.006 C 
BRANCH  16  17
HETATM   17  C16 UNL     1      15.001  29.824   8.753  1.00  0.00     0.058 C 
BRANCH  17  18
HETATM   18  C17 UNL     1      15.285  30.657   7.578  1.00  0.00     0.025 A 
HETATM   19  C18 UNL     1      16.344  30.693   6.722  1.00  0.00     0.113 A 
HETATM   20  N1  UNL     1      16.083  31.640   5.800  1.00  0.00    -0.360 N 
HETATM   21  C19 UNL     1      14.890  32.197   6.056  1.00  0.00     0.180 A 
ATOM     22  H1  UNL     1      16.697  31.895   5.027  1.00  0.00     0.166 HD
HETATM   23  N2  UNL     1      14.408  31.589   7.146  1.00  0.00    -0.355 N 
ATOM     24  H2  UNL     1      13.512  31.799   7.586  1.00  0.00     0.166 HD
ENDBRANCH  17  18
ENDBRANCH  16  17
ENDBRANCH  15  16
ENDBRANCH  14  15
ENDBRANCH  13  14
ENDBRANCH   1  13
TORSDOF 14
ENDMDL
MODEL 5
REMARK VINA RESULT: -6.707890313      2.458      6.029
REMARK  14 active torsions:
REMARK  status: ('A' for Active; 'I' for Inactive)
REMARK    1  A    between atoms: C3_3  and  C4_4 
REMARK    2  A    between atoms: C4_4  and  C5_5 
REMARK    3  A    between atoms: C5_5  and  C6_6 
REMARK    4  A    between atoms: C6_6  and  C7_7 
REMARK    5  A    between atoms: C7_7  and  C8_8 
REMARK    6  A    between atoms: C8_8  and  C9_9 
REMARK    7  A    between atoms: C9_9  and  C10_10 
REMARK    8  A    between atoms: C10_10  and  C11_11 
REMARK    9  A    between atoms: C11_11  and  C12_12 
REMARK   10  A    between atoms: C12_12  and  C13_13 
REMARK   11  A    between atoms: C13_13  and  C14_14 
REMARK   12  A    between atoms: C14_14  and  C15_15 
REMARK   13  A    between atoms: C15_15  and  C16_16 
REMARK   14  A    between atoms: C16_16  and  C17_17 
ROOT
HETATM    1  C11 UNL     1      10.929  28.767   9.040  1.00  0.00     0.000 C 
ENDROOT
BRANCH   1   2
HETATM    2  C10 UNL     1      12.244  28.751   9.740  1.00  0.00     0.000 C 
BRANCH   2   3
HETATM    3  C9  UNL     1      12.445  29.979  10.570  1.00  0.00     0.000 C 
BRANCH   3   4
HETATM    4  C8  UNL     1      13.831  30.537  10.357  1.00  0.00     0.000 C 
BRANCH   4   5
HETATM    5  C7  UNL     1      14.539  29.686   9.321  1.00  0.00     0.000 C 
BRANCH   5   6
HETATM    6  C6  UNL     1      15.793  30.332   8.808  1.00  0.00     0.000 C 
BRANCH   6   7
HETATM    7  C5  UNL     1      15.693  30.621   7.326  1.00  0.00     0.001 C 
BRANCH   7   8
HETATM    8  C4  UNL     1      14.325  30.289   6.807  1.00  0.00     0.009 C 
BRANCH   8   9
HETATM    9  C3  UNL     1      13.579  31.454   6.249  1.00  0.00     0.011 A 
HETATM   10  C2  UNL     1      12.800  32.250   7.231  1.00  0.00    -0.026 A 
HETATM   11  C1  UNL     1      13.440  33.380   7.018  1.00  0.00    -0.030 A 
HETATM   12  C20 UNL     1      14.279  32.723   6.028  1.00  0.00     0.035 A 
ENDBRANCH   8   9
ENDBRANCH   7   8
ENDBRANCH   6   7
ENDBRANCH   5   6
ENDBRANCH   4   5
ENDBRANCH   3   4
ENDBRANCH   2   3
ENDBRANCH   1   2
BRANCH   1  13
HETATM   13  C12 UNL     1      10.315  30.162   9.079  1.00  0.00     0.000 C 
BRANCH  13  14
HETATM   14  C13 UNL     1       8.828  30.167   8.978  1.00  0.00     0.000 C 
BRANCH  14  15
HETATM   15  C14 UNL     1       8.333  31.214   7.989  1.00  0.00     0.000 C 
BRANCH  15  16
HETATM   16  C15 UNL     1       9.393  31.457   6.959  1.00  0.00     0.006 C 
BRANCH  16  17
HETATM   17  C16 UNL     1       8.909  32.059   5.693  1.00  0.00     0.058 C 
BRANCH  17  18
HETATM   18  C17 UNL     1       9.890  32.835   4.925  1.00  0.00     0.025 A 
HETATM   19  C18 UNL     1      10.176  34.167   4.897  1.00  0.00     0.113 A 
HETATM   20  N1  UNL     1      11.187  34.343   4.024  1.00  0.00    -0.360 N 
HETATM   21  C19 UNL     1      11.540  33.158   3.504  1.00  0.00     0.180 A 
ATOM     22  H1  UNL     1      11.617  35.238   3.793  1.00  0.00     0.166 HD
HETATM   23  N2  UNL     1      10.741  32.241   4.061  1.00  0.00    -0.355 N 
ATOM     24  H2  UNL     1      10.770  31.240   3.863  1.00  0.00     0.166 HD
ENDBRANCH  17  18
ENDBRANCH  16  17
ENDBRANCH  15  16
ENDBRANCH  14  15
ENDBRANCH  13  14
ENDBRANCH   1  13
TORSDOF 14
ENDMDL
