MODEL 1
REMARK VINA RESULT: -6.704143401      0.000      0.000
REMARK  14 active torsions:
REMARK  status: ('A' for Active; 'I' for Inactive)
REMARK    1  A    between atoms: C3_3  and  C4_4 
REMARK    2  A    between atoms: C4_4  and  C5_5 
REMARK    3  A    between atoms: C5_5  and  C6_6 
REMARK    4  A    between atoms: C6_6  and  C7_7 
REMARK    5  A    between atoms: C7_7  and  C8_8 
REMARK    6  A    between atoms: C8_8  and  C9_9 
REMARK    7  A    between atoms: C9_9  and  C10_10 
REMARK    8  A    between atoms: C10_10  and  N1_11 
REMARK    9  A    between atoms: N1_11  and  C11_13 
REMARK   10  A    between atoms: C11_13  and  C12_14 
REMARK   11  A    between atoms: C12_14  and  C13_15 
REMARK   12  A    between atoms: C13_15  and  C14_16 
REMARK   13  A    between atoms: C14_16  and  C15_17 
REMARK   14  A    between atoms: C15_17  and  C16_18 
ROOT
HETATM    1  C1  UNL     1      11.958  32.338   5.039  1.00  0.00     0.096 C 
HETATM    2  C2  UNL     1      12.326  33.496   5.181  1.00  0.00    -0.188 C 
HETATM    3  C3  UNL     1      12.789  34.880   5.369  1.00  0.00     0.079 C 
ENDROOT
BRANCH   3   4
HETATM    4  C4  UNL     1      12.047  35.801   4.448  1.00  0.00     0.011 C 
BRANCH   4   5
HETATM    5  C5  UNL     1      10.578  35.716   4.714  1.00  0.00     0.001 C 
BRANCH   5   6
HETATM    6  C6  UNL     1       9.834  35.642   3.390  1.00  0.00     0.000 C 
BRANCH   6   7
HETATM    7  C7  UNL     1       8.796  34.524   3.504  1.00  0.00     0.000 C 
BRANCH   7   8
HETATM    8  C8  UNL     1       8.643  34.184   4.959  1.00  0.00     0.002 C 
BRANCH   8   9
HETATM    9  C9  UNL     1       7.478  33.282   5.200  1.00  0.00     0.019 C 
BRANCH   9  10
HETATM   10  C10 UNL     1       7.971  31.989   5.818  1.00  0.00     0.113 C 
BRANCH  10  11
HETATM   11  N1  UNL     1       8.841  32.291   6.897  1.00  0.00    -0.421 N 
ATOM     12  H1  UNL     1       9.480  33.085   6.861  1.00  0.00     0.153 HD
BRANCH  11  13
HETATM   13  C11 UNL     1       8.783  31.436   8.032  1.00  0.00     0.113 C 
BRANCH  13  14
HETATM   14  C12 UNL     1      10.106  30.729   8.186  1.00  0.00     0.019 C 
BRANCH  14  15
HETATM   15  C13 UNL     1       9.961  29.632   9.207  1.00  0.00     0.002 C 
BRANCH  15  16
HETATM   16  C14 UNL     1      11.202  28.802   9.274  1.00  0.00     0.000 C 
BRANCH  16  17
HETATM   17  C15 UNL     1      12.042  29.112  10.494  1.00  0.00     0.004 C 
BRANCH  17  18
HETATM   18  C16 UNL     1      13.388  29.712  10.142  1.00  0.00    -0.014 C 
HETATM   19  C17 UNL     1      13.820  29.271   8.779  1.00  0.00     0.004 C 
HETATM   20  C18 UNL     1      14.769  30.296   8.180  1.00  0.00     0.000 C 
HETATM   21  C19 UNL     1      13.950  31.539   7.959  1.00  0.00     0.000 C 
HETATM   22  C20 UNL     1      13.477  32.089   9.259  1.00  0.00     0.000 C 
HETATM   23  C21 UNL     1      13.468  31.169  10.420  1.00  0.00     0.004 C 
ENDBRANCH  17  18
ENDBRANCH  16  17
ENDBRANCH  15  16
ENDBRANCH  14  15
ENDBRANCH  13  14
ENDBRANCH  11  13
ENDBRANCH  10  11
ENDBRANCH   9  10
ENDBRANCH   8   9
ENDBRANCH   7   8
ENDBRANCH   6   7
ENDBRANCH   5   6
ENDBRANCH   4   5
ENDBRANCH   3   4
TORSDOF 14
ENDMDL
MODEL 2
REMARK VINA RESULT: -6.656265666      1.292      6.402
REMARK  14 active torsions:
REMARK  status: ('A' for Active; 'I' for Inactive)
REMARK    1  A    between atoms: C3_3  and  C4_4 
REMARK    2  A    between atoms: C4_4  and  C5_5 
REMARK    3  A    between atoms: C5_5  and  C6_6 
REMARK    4  A    between atoms: C6_6  and  C7_7 
REMARK    5  A    between atoms: C7_7  and  C8_8 
REMARK    6  A    between atoms: C8_8  and  C9_9 
REMARK    7  A    between atoms: C9_9  and  C10_10 
REMARK    8  A    between atoms: C10_10  and  N1_11 
REMARK    9  A    between atoms: N1_11  and  C11_13 
REMARK   10  A    between atoms: C11_13  and  C12_14 
REMARK   11  A    between atoms: C12_14  and  C13_15 
REMARK   12  A    between atoms: C13_15  and  C14_16 
REMARK   13  A    between atoms: C14_16  and  C15_17 
REMARK   14  A    between atoms: C15_17  and  C16_18 
ROOT
HETATM    1  C1  UNL     1      15.572  33.030   6.288  1.00  0.00     0.096 C 
HETATM    2  C2  UNL     1      14.871  32.037   6.434  1.00  0.00    -0.188 C 
HETATM    3  C3  UNL     1      14.009  30.856   6.595  1.00  0.00     0.079 C 
ENDROOT
BRANCH   3   4
HETATM    4  C4  UNL     1      14.769  29.750   7.264  1.00  0.00     0.011 C 
BRANCH   4   5
HETATM    5  C5  UNL     1      14.683  29.897   8.749  1.00  0.00     0.001 C 
BRANCH   5   6
HETATM    6  C6  UNL     1      13.393  29.258   9.241  1.00  0.00     0.000 C 
BRANCH   6   7
HETATM    7  C7  UNL     1      12.687  30.275  10.140  1.00  0.00     0.000 C 
BRANCH   7   8
HETATM    8  C8  UNL     1      11.423  30.701   9.451  1.00  0.00     0.002 C 
BRANCH   8   9
HETATM    9  C9  UNL     1      10.608  29.531   9.007  1.00  0.00     0.019 C 
BRANCH   9  10
HETATM   10  C10 UNL     1       9.140  29.840   9.221  1.00  0.00     0.113 C 
BRANCH  10  11
HETATM   11  N1  UNL     1       8.892  31.191   8.867  1.00  0.00    -0.421 N 
ATOM     12  H1  UNL     1       9.348  31.963   9.355  1.00  0.00     0.153 HD
BRANCH  11  13
HETATM   13  C11 UNL     1       7.979  31.423   7.801  1.00  0.00     0.113 C 
BRANCH  13  14
HETATM   14  C12 UNL     1       8.746  31.877   6.584  1.00  0.00     0.019 C 
BRANCH  14  15
HETATM   15  C13 UNL     1       7.781  32.456   5.584  1.00  0.00     0.002 C 
BRANCH  15  16
HETATM   16  C14 UNL     1       8.076  33.901   5.337  1.00  0.00     0.000 C 
BRANCH  16  17
HETATM   17  C15 UNL     1       8.327  34.199   3.875  1.00  0.00     0.004 C 
BRANCH  17  18
HETATM   18  C16 UNL     1       9.771  34.560   3.590  1.00  0.00    -0.014 C 
HETATM   19  C17 UNL     1      10.247  35.613   4.540  1.00  0.00     0.004 C 
HETATM   20  C18 UNL     1      11.757  35.525   4.695  1.00  0.00     0.000 C 
HETATM   21  C19 UNL     1      12.026  34.213   5.382  1.00  0.00     0.000 C 
HETATM   22  C20 UNL     1      11.610  33.077   4.516  1.00  0.00     0.000 C 
HETATM   23  C21 UNL     1      10.648  33.372   3.428  1.00  0.00     0.004 C 
ENDBRANCH  17  18
ENDBRANCH  16  17
ENDBRANCH  15  16
ENDBRANCH  14  15
ENDBRANCH  13  14
ENDBRANCH  11  13
ENDBRANCH  10  11
ENDBRANCH   9  10
ENDBRANCH   8   9
ENDBRANCH   7   8
ENDBRANCH   6   7
ENDBRANCH   5   6
ENDBRANCH   4   5
ENDBRANCH   3   4
TORSDOF 14
ENDMDL
MODEL 3
REMARK VINA RESULT: -6.470309824      1.211      2.719
REMARK  14 active torsions:
REMARK  status: ('A' for Active; 'I' for Inactive)
REMARK    1  A    between atoms: C3_3  and  C4_4 
REMARK    2  A    between atoms: C4_4  and  C5_5 
REMARK    3  A    between atoms: C5_5  and  C6_6 
REMARK    4  A    between atoms: C6_6  and  C7_7 
REMARK    5  A    between atoms: C7_7  and  C8_8 
REMARK    6  A    between atoms: C8_8  and  C9_9 
REMARK    7  A    between atoms: C9_9  and  C10_10 
REMARK    8  A    between atoms: C10_10  and  N1_11 
REMARK    9  A    between atoms: N1_11  and  C11_13 
REMARK   10  A    between atoms: C11_13  and  C12_14 
REMARK   11  A    between atoms: C12_14  and  C13_15 
REMARK   12  A    between atoms: C13_15  and  C14_16 
REMARK   13  A    between atoms: C14_16  and  C15_17 
REMARK   14  A    between atoms: C15_17  and  C16_18 
ROOT
HETATM    1  C1  UNL     1      12.584  35.660   5.895  1.00  0.00     0.096 C 
HETATM    2  C2  UNL     1      11.866  35.441   4.929  1.00  0.00    -0.188 C 
HETATM    3  C3  UNL     1      11.018  35.195   3.752  1.00  0.00     0.079 C 
ENDROOT
BRANCH   3   4
HETATM    4  C4  UNL     1      10.076  34.061   4.023  1.00  0.00     0.011 C 
BRANCH   4   5
HETATM    5  C5  UNL     1       8.688  34.441   3.616  1.00  0.00     0.001 C 
BRANCH   5   6
HETATM    6  C6  UNL     1       7.702  33.913   4.647  1.00  0.00     0.000 C 
BRANCH   6   7
HETATM    7  C7  UNL     1       8.426  32.849   5.475  1.00  0.00     0.000 C 
BRANCH   7   8
HETATM    8  C8  UNL     1       7.652  32.649   6.747  1.00  0.00     0.002 C 
BRANCH   8   9
HETATM    9  C9  UNL     1       7.792  31.259   7.272  1.00  0.00     0.019 C 
BRANCH   9  10
HETATM   10  C10 UNL     1       8.727  31.270   8.464  1.00  0.00     0.113 C 
BRANCH  10  11
HETATM   11  N1  UNL     1       9.465  30.058   8.488  1.00  0.00    -0.421 N 
ATOM     12  H1  UNL     1       9.373  29.363   7.747  1.00  0.00     0.153 HD
BRANCH  11  13
HETATM   13  C11 UNL     1      10.339  29.856   9.592  1.00  0.00     0.113 C 
BRANCH  13  14
HETATM   14  C12 UNL     1      11.380  28.831   9.216  1.00  0.00     0.019 C 
BRANCH  14  15
HETATM   15  C13 UNL     1      12.692  29.210   9.848  1.00  0.00     0.002 C 
BRANCH  15  16
HETATM   16  C14 UNL     1      13.795  29.177   8.840  1.00  0.00     0.000 C 
BRANCH  16  17
HETATM   17  C15 UNL     1      14.756  30.337   8.994  1.00  0.00     0.004 C 
BRANCH  17  18
HETATM   18  C16 UNL     1      14.490  31.453   8.003  1.00  0.00    -0.014 C 
HETATM   19  C17 UNL     1      14.051  30.894   6.687  1.00  0.00     0.004 C 
HETATM   20  C18 UNL     1      13.211  31.920   5.943  1.00  0.00     0.000 C 
HETATM   21  C19 UNL     1      11.951  32.085   6.750  1.00  0.00     0.000 C 
HETATM   22  C20 UNL     1      12.260  32.660   8.087  1.00  0.00     0.000 C 
HETATM   23  C21 UNL     1      13.657  32.546   8.567  1.00  0.00     0.004 C 
ENDBRANCH  17  18
ENDBRANCH  16  17
ENDBRANCH  15  16
ENDBRANCH  14  15
ENDBRANCH  13  14
ENDBRANCH  11  13
ENDBRANCH  10  11
ENDBRANCH   9  10
ENDBRANCH   8   9
ENDBRANCH   7   8
ENDBRANCH   6   7
ENDBRANCH   5   6
ENDBRANCH   4   5
ENDBRANCH   3   4
TORSDOF 14
ENDMDL
MODEL 4
REMARK VINA RESULT: -6.467156137      0.968      6.484
REMARK  14 active torsions:
REMARK  status: ('A' for Active; 'I' for Inactive)
REMARK    1  A    between atoms: C3_3  and  C4_4 
REMARK    2  A    between atoms: C4_4  and  C5_5 
REMARK    3  A    between atoms: C5_5  and  C6_6 
REMARK    4  A    between atoms: C6_6  and  C7_7 
REMARK    5  A    between atoms: C7_7  and  C8_8 
REMARK    6  A    between atoms: C8_8  and  C9_9 
REMARK    7  A    between atoms: C9_9  and  C10_10 
REMARK    8  A    between atoms: C10_10  and  N1_11 
REMARK    9  A    between atoms: N1_11  and  C11_13 
REMARK   10  A    between atoms: C11_13  and  C12_14 
REMARK   11  A    between atoms: C12_14  and  C13_15 
REMARK   12  A    between atoms: C13_15  and  C14_16 
REMARK   13  A    between atoms: C14_16  and  C15_17 
REMARK   14  A    between atoms: C15_17  and  C16_18 
ROOT
HETATM    1  C1  UNL     1      14.145  32.948  10.259  1.00  0.00     0.096 C 
HETATM    2  C2  UNL     1      14.531  31.900   9.757  1.00  0.00    -0.188 C 
HETATM    3  C3  UNL     1      15.021  30.650   9.156  1.00  0.00     0.079 C 
ENDROOT
BRANCH   3   4
HETATM    4  C4  UNL     1      13.891  29.679   8.993  1.00  0.00     0.011 C 
BRANCH   4   5
HETATM    5  C5  UNL     1      13.324  29.326  10.331  1.00  0.00     0.001 C 
BRANCH   5   6
HETATM    6  C6  UNL     1      11.868  29.764  10.387  1.00  0.00     0.000 C 
BRANCH   6   7
HETATM    7  C7  UNL     1      11.352  29.840   8.949  1.00  0.00     0.000 C 
BRANCH   7   8
HETATM    8  C8  UNL     1       9.943  29.322   8.936  1.00  0.00     0.002 C 
BRANCH   8   9
HETATM    9  C9  UNL     1       8.949  30.417   8.728  1.00  0.00     0.019 C 
BRANCH   9  10
HETATM   10  C10 UNL     1       9.369  31.248   7.532  1.00  0.00     0.113 C 
BRANCH  10  11
HETATM   11  N1  UNL     1       8.414  32.275   7.321  1.00  0.00    -0.421 N 
ATOM     12  H1  UNL     1       8.081  32.860   8.088  1.00  0.00     0.153 HD
BRANCH  11  13
HETATM   13  C11 UNL     1       7.941  32.454   5.992  1.00  0.00     0.113 C 
BRANCH  13  14
HETATM   14  C12 UNL     1       8.031  33.916   5.628  1.00  0.00     0.019 C 
BRANCH  14  15
HETATM   15  C13 UNL     1       7.587  34.095   4.201  1.00  0.00     0.002 C 
BRANCH  15  16
HETATM   16  C14 UNL     1       8.723  34.552   3.345  1.00  0.00     0.000 C 
BRANCH  16  17
HETATM   17  C15 UNL     1       9.762  35.327   4.126  1.00  0.00     0.004 C 
BRANCH  17  18
HETATM   18  C16 UNL     1      11.155  34.746   3.985  1.00  0.00    -0.014 C 
HETATM   19  C17 UNL     1      12.023  35.175   5.125  1.00  0.00     0.004 C 
HETATM   20  C18 UNL     1      13.132  34.158   5.343  1.00  0.00     0.000 C 
HETATM   21  C19 UNL     1      12.451  32.899   5.809  1.00  0.00     0.000 C 
HETATM   22  C20 UNL     1      11.568  32.359   4.740  1.00  0.00     0.000 C 
HETATM   23  C21 UNL     1      11.151  33.294   3.669  1.00  0.00     0.004 C 
ENDBRANCH  17  18
ENDBRANCH  16  17
ENDBRANCH  15  16
ENDBRANCH  14  15
ENDBRANCH  13  14
ENDBRANCH  11  13
ENDBRANCH  10  11
ENDBRANCH   9  10
ENDBRANCH   8   9
ENDBRANCH   7   8
ENDBRANCH   6   7
ENDBRANCH   5   6
ENDBRANCH   4   5
ENDBRANCH   3   4
TORSDOF 14
ENDMDL
MODEL 5
REMARK VINA RESULT: -6.454495083      1.286      2.226
REMARK  14 active torsions:
REMARK  status: ('A' for Active; 'I' for Inactive)
REMARK    1  A    between atoms: C3_3  and  C4_4 
REMARK    2  A    between atoms: C4_4  and  C5_5 
REMARK    3  A    between atoms: C5_5  and  C6_6 
REMARK    4  A    between atoms: C6_6  and  C7_7 
REMARK    5  A    between atoms: C7_7  and  C8_8 
REMARK    6  A    between atoms: C8_8  and  C9_9 
REMARK    7  A    between atoms: C9_9  and  C10_10 
REMARK    8  A    between atoms: C10_10  and  N1_11 
REMARK    9  A    between atoms: N1_11  and  C11_13 
REMARK   10  A    between atoms: C11_13  and  C12_14 
REMARK   11  A    between atoms: C12_14  and  C13_15 
REMARK   12  A    between atoms: C13_15  and  C14_16 
REMARK   13  A    between atoms: C14_16  and  C15_17 
REMARK   14  A    between atoms: C15_17  and  C16_18 
ROOT
HETATM    1  C1  UNL     1      12.016  32.014   6.233  1.00  0.00     0.096 C 
HETATM    2  C2  UNL     1      11.898  32.882   5.378  1.00  0.00    -0.188 C 
HETATM    3  C3  UNL     1      11.783  33.931   4.353  1.00  0.00     0.079 C 
ENDROOT
BRANCH   3   4
HETATM    4  C4  UNL     1      10.447  33.850   3.679  1.00  0.00     0.011 C 
BRANCH   4   5
HETATM    5  C5  UNL     1       9.425  34.592   4.480  1.00  0.00     0.001 C 
BRANCH   5   6
HETATM    6  C6  UNL     1       8.106  33.835   4.430  1.00  0.00     0.000 C 
BRANCH   6   7
HETATM    7  C7  UNL     1       7.730  33.465   5.866  1.00  0.00     0.000 C 
BRANCH   7   8
HETATM    8  C8  UNL     1       8.227  32.072   6.129  1.00  0.00     0.002 C 
BRANCH   8   9
HETATM    9  C9  UNL     1       7.749  31.549   7.443  1.00  0.00     0.019 C 
BRANCH   9  10
HETATM   10  C10 UNL     1       8.914  30.920   8.180  1.00  0.00     0.113 C 
BRANCH  10  11
HETATM   11  N1  UNL     1       9.576  31.918   8.940  1.00  0.00    -0.421 N 
ATOM     12  H1  UNL     1       9.246  32.884   8.955  1.00  0.00     0.153 HD
BRANCH  11  13
HETATM   13  C11 UNL     1      10.721  31.513   9.680  1.00  0.00     0.113 C 
BRANCH  13  14
HETATM   14  C12 UNL     1      11.103  30.112   9.271  1.00  0.00     0.019 C 
BRANCH  14  15
HETATM   15  C13 UNL     1      11.767  29.425  10.434  1.00  0.00     0.002 C 
BRANCH  15  16
HETATM   16  C14 UNL     1      13.248  29.368  10.242  1.00  0.00     0.000 C 
BRANCH  16  17
HETATM   17  C15 UNL     1      13.642  29.335   8.782  1.00  0.00     0.004 C 
BRANCH  17  18
HETATM   18  C16 UNL     1      14.997  29.964   8.526  1.00  0.00    -0.014 C 
HETATM   19  C17 UNL     1      15.275  30.040   7.059  1.00  0.00     0.004 C 
HETATM   20  C18 UNL     1      16.248  31.172   6.773  1.00  0.00     0.000 C 
HETATM   21  C19 UNL     1      15.514  32.443   7.109  1.00  0.00     0.000 C 
HETATM   22  C20 UNL     1      15.199  32.494   8.562  1.00  0.00     0.000 C 
HETATM   23  C21 UNL     1      15.216  31.211   9.304  1.00  0.00     0.004 C 
ENDBRANCH  17  18
ENDBRANCH  16  17
ENDBRANCH  15  16
ENDBRANCH  14  15
ENDBRANCH  13  14
ENDBRANCH  11  13
ENDBRANCH  10  11
ENDBRANCH   9  10
ENDBRANCH   8   9
ENDBRANCH   7   8
ENDBRANCH   6   7
ENDBRANCH   5   6
ENDBRANCH   4   5
ENDBRANCH   3   4
TORSDOF 14
ENDMDL
