MODEL 1
REMARK VINA RESULT: -6.849181671      0.000      0.000
REMARK  14 active torsions:
REMARK  status: ('A' for Active; 'I' for Inactive)
REMARK    1  A    between atoms: C2_2  and  C3_3 
REMARK    2  A    between atoms: C3_3  and  C4_4 
REMARK    3  A    between atoms: C4_4  and  C5_5 
REMARK    4  A    between atoms: C5_5  and  C6_6 
REMARK    5  A    between atoms: C6_6  and  C7_7 
REMARK    6  A    between atoms: C7_7  and  C8_8 
REMARK    7  A    between atoms: C8_8  and  C9_9 
REMARK    8  A    between atoms: C9_9  and  C10_10 
REMARK    9  A    between atoms: C10_10  and  C11_11 
REMARK   10  A    between atoms: C11_11  and  C12_12 
REMARK   11  A    between atoms: C12_12  and  C13_13 
REMARK   12  A    between atoms: C13_13  and  C14_14 
REMARK   13  A    between atoms: C14_14  and  C15_15 
REMARK   14  A    between atoms: C15_15  and  C16_16 
ROOT
HETATM    1  C6  UNL     1       7.549  34.202   4.021  1.00  0.00     0.000 C 
ENDROOT
BRANCH   1   2
HETATM    2  C5  UNL     1       8.809  34.649   3.349  1.00  0.00     0.000 C 
BRANCH   2   3
HETATM    3  C4  UNL     1       9.803  35.190   4.319  1.00  0.00     0.004 C 
BRANCH   3   4
HETATM    4  C3  UNL     1      11.206  35.055   3.789  1.00  0.00     0.035 C 
BRANCH   4   5
HETATM    5  C2  UNL     1      12.028  34.425   4.890  1.00  0.00    -0.058 C 
HETATM    6  C1  UNL     1      12.256  33.138   4.829  1.00  0.00    -0.021 C 
HETATM    7  C21 UNL     1      13.053  32.471   5.876  1.00  0.00     0.055 C 
HETATM    8  C20 UNL     1      13.008  33.308   7.123  1.00  0.00     0.236 C 
HETATM    9  N1  UNL     1      13.406  34.680   6.879  1.00  0.00    -0.071 N 
HETATM   10  C19 UNL     1      12.509  35.341   5.954  1.00  0.00     0.266 C 
ATOM     11  H12 UNL     1      14.374  34.736   6.562  1.00  0.00     0.277 HD
ATOM     12  H11 UNL     1      13.494  35.202   7.750  1.00  0.00     0.277 HD
ENDBRANCH   4   5
ENDBRANCH   3   4
ENDBRANCH   2   3
ENDBRANCH   1   2
BRANCH   1  13
HETATM   13  C7  UNL     1       7.870  33.832   5.457  1.00  0.00     0.000 C 
BRANCH  13  14
HETATM   14  C8  UNL     1       7.649  32.378   5.767  1.00  0.00     0.000 C 
BRANCH  14  15
HETATM   15  C9  UNL     1       9.036  31.716   5.708  1.00  0.00     0.000 C 
BRANCH  15  16
HETATM   16  C10 UNL     1       9.621  31.588   7.076  1.00  0.00     0.000 C 
BRANCH  16  17
HETATM   17  C11 UNL     1       8.582  31.198   8.086  1.00  0.00     0.000 C 
BRANCH  17  18
HETATM   18  C12 UNL     1       9.055  30.098   8.974  1.00  0.00     0.000 C 
BRANCH  18  19
HETATM   19  C13 UNL     1      10.565  29.934   8.868  1.00  0.00     0.000 C 
BRANCH  19  20
HETATM   20  C14 UNL     1      11.017  28.540   9.241  1.00  0.00     0.000 C 
BRANCH  20  21
HETATM   21  C15 UNL     1      12.499  28.672   9.606  1.00  0.00     0.004 C 
BRANCH  21  22
HETATM   22  C16 UNL     1      13.047  29.852   8.824  1.00  0.00    -0.014 A 
HETATM   23  C17 UNL     1      14.360  30.445   9.228  1.00  0.00     0.005 A 
HETATM   24  C18 UNL     1      14.303  29.627   7.990  1.00  0.00     0.005 A 
ENDBRANCH  21  22
ENDBRANCH  20  21
ENDBRANCH  19  20
ENDBRANCH  18  19
ENDBRANCH  17  18
ENDBRANCH  16  17
ENDBRANCH  15  16
ENDBRANCH  14  15
ENDBRANCH  13  14
ENDBRANCH   1  13
TORSDOF 14
ENDMDL
MODEL 2
REMARK VINA RESULT: -6.713168890      1.080      6.025
REMARK  14 active torsions:
REMARK  status: ('A' for Active; 'I' for Inactive)
REMARK    1  A    between atoms: C2_2  and  C3_3 
REMARK    2  A    between atoms: C3_3  and  C4_4 
REMARK    3  A    between atoms: C4_4  and  C5_5 
REMARK    4  A    between atoms: C5_5  and  C6_6 
REMARK    5  A    between atoms: C6_6  and  C7_7 
REMARK    6  A    between atoms: C7_7  and  C8_8 
REMARK    7  A    between atoms: C8_8  and  C9_9 
REMARK    8  A    between atoms: C9_9  and  C10_10 
REMARK    9  A    between atoms: C10_10  and  C11_11 
REMARK   10  A    between atoms: C11_11  and  C12_12 
REMARK   11  A    between atoms: C12_12  and  C13_13 
REMARK   12  A    between atoms: C13_13  and  C14_14 
REMARK   13  A    between atoms: C14_14  and  C15_15 
REMARK   14  A    between atoms: C15_15  and  C16_16 
ROOT
HETATM    1  C6  UNL     1      11.848  29.316  10.588  1.00  0.00     0.000 C 
ENDROOT
BRANCH   1   2
HETATM    2  C5  UNL     1      13.328  29.389  10.378  1.00  0.00     0.000 C 
BRANCH   2   3
HETATM    3  C4  UNL     1      13.694  29.367   8.934  1.00  0.00     0.004 C 
BRANCH   3   4
HETATM    4  C3  UNL     1      14.622  30.502   8.593  1.00  0.00     0.035 C 
BRANCH   4   5
HETATM    5  C2  UNL     1      13.786  31.555   7.901  1.00  0.00    -0.058 C 
HETATM    6  C1  UNL     1      13.455  31.355   6.651  1.00  0.00    -0.021 C 
HETATM    7  C21 UNL     1      12.640  32.348   5.926  1.00  0.00     0.055 C 
HETATM    8  C20 UNL     1      12.788  33.681   6.605  1.00  0.00     0.236 C 
HETATM    9  N1  UNL     1      12.492  33.612   8.022  1.00  0.00    -0.071 N 
HETATM   10  C19 UNL     1      13.411  32.735   8.719  1.00  0.00     0.266 C 
ATOM     11  H12 UNL     1      11.522  33.341   8.187  1.00  0.00     0.277 HD
ATOM     12  H11 UNL     1      12.472  34.540   8.443  1.00  0.00     0.277 HD
ENDBRANCH   4   5
ENDBRANCH   3   4
ENDBRANCH   2   3
ENDBRANCH   1   2
BRANCH   1  13
HETATM   13  C7  UNL     1      11.202  28.812   9.311  1.00  0.00     0.000 C 
BRANCH  13  14
HETATM   14  C8  UNL     1       9.868  29.441   9.022  1.00  0.00     0.000 C 
BRANCH  14  15
HETATM   15  C9  UNL     1      10.153  30.928   8.749  1.00  0.00     0.000 C 
BRANCH  15  16
HETATM   16  C10 UNL     1       9.555  31.351   7.447  1.00  0.00     0.000 C 
BRANCH  16  17
HETATM   17  C11 UNL     1       8.063  31.485   7.542  1.00  0.00     0.000 C 
BRANCH  17  18
HETATM   18  C12 UNL     1       7.463  31.943   6.257  1.00  0.00     0.000 C 
BRANCH  18  19
HETATM   19  C13 UNL     1       7.617  33.449   6.098  1.00  0.00     0.000 C 
BRANCH  19  20
HETATM   20  C14 UNL     1       7.876  33.850   4.664  1.00  0.00     0.000 C 
BRANCH  20  21
HETATM   21  C15 UNL     1       9.399  33.813   4.495  1.00  0.00     0.004 C 
BRANCH  21  22
HETATM   22  C16 UNL     1       9.808  35.126   3.851  1.00  0.00    -0.014 A 
HETATM   23  C17 UNL     1      10.538  36.142   4.672  1.00  0.00     0.005 A 
HETATM   24  C18 UNL     1      11.297  35.380   3.648  1.00  0.00     0.005 A 
ENDBRANCH  21  22
ENDBRANCH  20  21
ENDBRANCH  19  20
ENDBRANCH  18  19
ENDBRANCH  17  18
ENDBRANCH  16  17
ENDBRANCH  15  16
ENDBRANCH  14  15
ENDBRANCH  13  14
ENDBRANCH   1  13
TORSDOF 14
ENDMDL
MODEL 3
REMARK VINA RESULT: -6.599422514      1.907      5.278
REMARK  14 active torsions:
REMARK  status: ('A' for Active; 'I' for Inactive)
REMARK    1  A    between atoms: C2_2  and  C3_3 
REMARK    2  A    between atoms: C3_3  and  C4_4 
REMARK    3  A    between atoms: C4_4  and  C5_5 
REMARK    4  A    between atoms: C5_5  and  C6_6 
REMARK    5  A    between atoms: C6_6  and  C7_7 
REMARK    6  A    between atoms: C7_7  and  C8_8 
REMARK    7  A    between atoms: C8_8  and  C9_9 
REMARK    8  A    between atoms: C9_9  and  C10_10 
REMARK    9  A    between atoms: C10_10  and  C11_11 
REMARK   10  A    between atoms: C11_11  and  C12_12 
REMARK   11  A    between atoms: C12_12  and  C13_13 
REMARK   12  A    between atoms: C13_13  and  C14_14 
REMARK   13  A    between atoms: C14_14  and  C15_15 
REMARK   14  A    between atoms: C15_15  and  C16_16 
ROOT
HETATM    1  C6  UNL     1       9.846  29.325   8.935  1.00  0.00     0.000 C 
ENDROOT
BRANCH   1   2
HETATM    2  C5  UNL     1       8.972  30.493   8.605  1.00  0.00     0.000 C 
BRANCH   2   3
HETATM    3  C4  UNL     1       9.480  31.264   7.435  1.00  0.00     0.004 C 
BRANCH   3   4
HETATM    4  C3  UNL     1       8.360  31.984   6.734  1.00  0.00     0.035 C 
BRANCH   4   5
HETATM    5  C2  UNL     1       8.971  32.679   5.538  1.00  0.00    -0.058 C 
HETATM    6  C1  UNL     1      10.132  32.258   5.107  1.00  0.00    -0.021 C 
HETATM    7  C21 UNL     1      10.774  32.898   3.944  1.00  0.00     0.055 C 
HETATM    8  C20 UNL     1      10.219  34.287   3.791  1.00  0.00     0.236 C 
HETATM    9  N1  UNL     1       8.771  34.297   3.732  1.00  0.00    -0.071 N 
HETATM   10  C19 UNL     1       8.181  33.792   4.955  1.00  0.00     0.266 C 
ATOM     11  H12 UNL     1       8.429  33.788   2.916  1.00  0.00     0.277 HD
ATOM     12  H11 UNL     1       8.415  35.224   3.501  1.00  0.00     0.277 HD
ENDBRANCH   4   5
ENDBRANCH   3   4
ENDBRANCH   2   3
ENDBRANCH   1   2
BRANCH   1  13
HETATM   13  C7  UNL     1      11.271  29.816   9.100  1.00  0.00     0.000 C 
BRANCH  13  14
HETATM   14  C8  UNL     1      11.879  29.466  10.429  1.00  0.00     0.000 C 
BRANCH  14  15
HETATM   15  C9  UNL     1      13.403  29.537  10.230  1.00  0.00     0.000 C 
BRANCH  15  16
HETATM   16  C10 UNL     1      13.762  29.289   8.802  1.00  0.00     0.000 C 
BRANCH  16  17
HETATM   17  C11 UNL     1      15.008  30.027   8.410  1.00  0.00     0.000 C 
BRANCH  17  18
HETATM   18  C12 UNL     1      14.987  30.428   6.974  1.00  0.00     0.000 C 
BRANCH  18  19
HETATM   19  C13 UNL     1      13.713  31.193   6.647  1.00  0.00     0.000 C 
BRANCH  19  20
HETATM   20  C14 UNL     1      13.834  32.668   6.960  1.00  0.00     0.000 C 
BRANCH  20  21
HETATM   21  C15 UNL     1      12.611  33.009   7.816  1.00  0.00     0.004 C 
BRANCH  21  22
HETATM   22  C16 UNL     1      13.094  33.144   9.250  1.00  0.00    -0.014 A 
HETATM   23  C17 UNL     1      12.802  34.406   9.999  1.00  0.00     0.005 A 
HETATM   24  C18 UNL     1      12.040  33.180  10.350  1.00  0.00     0.005 A 
ENDBRANCH  21  22
ENDBRANCH  20  21
ENDBRANCH  19  20
ENDBRANCH  18  19
ENDBRANCH  17  18
ENDBRANCH  16  17
ENDBRANCH  15  16
ENDBRANCH  14  15
ENDBRANCH  13  14
ENDBRANCH   1  13
TORSDOF 14
ENDMDL
MODEL 4
REMARK VINA RESULT: -6.582139837      1.590      4.200
REMARK  14 active torsions:
REMARK  status: ('A' for Active; 'I' for Inactive)
REMARK    1  A    between atoms: C2_2  and  C3_3 
REMARK    2  A    between atoms: C3_3  and  C4_4 
REMARK    3  A    between atoms: C4_4  and  C5_5 
REMARK    4  A    between atoms: C5_5  and  C6_6 
REMARK    5  A    between atoms: C6_6  and  C7_7 
REMARK    6  A    between atoms: C7_7  and  C8_8 
REMARK    7  A    between atoms: C8_8  and  C9_9 
REMARK    8  A    between atoms: C9_9  and  C10_10 
REMARK    9  A    between atoms: C10_10  and  C11_11 
REMARK   10  A    between atoms: C11_11  and  C12_12 
REMARK   11  A    between atoms: C12_12  and  C13_13 
REMARK   12  A    between atoms: C13_13  and  C14_14 
REMARK   13  A    between atoms: C14_14  and  C15_15 
REMARK   14  A    between atoms: C15_15  and  C16_16 
ROOT
HETATM    1  C6  UNL     1      11.957  36.082   5.244  1.00  0.00     0.000 C 
ENDROOT
BRANCH   1   2
HETATM    2  C5  UNL     1      11.448  35.466   3.980  1.00  0.00     0.000 C 
BRANCH   2   3
HETATM    3  C4  UNL     1       9.966  35.577   3.857  1.00  0.00     0.004 C 
BRANCH   3   4
HETATM    4  C3  UNL     1       9.357  34.262   3.450  1.00  0.00     0.035 C 
BRANCH   4   5
HETATM    5  C2  UNL     1       9.070  33.503   4.725  1.00  0.00    -0.058 C 
HETATM    6  C1  UNL     1       9.887  32.540   5.067  1.00  0.00    -0.021 C 
HETATM    7  C21 UNL     1       9.656  31.768   6.302  1.00  0.00     0.055 C 
HETATM    8  C20 UNL     1       8.204  31.874   6.673  1.00  0.00     0.236 C 
HETATM    9  N1  UNL     1       7.758  33.250   6.759  1.00  0.00    -0.071 N 
HETATM   10  C19 UNL     1       7.868  33.930   5.485  1.00  0.00     0.266 C 
ATOM     11  H12 UNL     1       8.253  33.756   7.494  1.00  0.00     0.277 HD
ATOM     12  H11 UNL     1       6.811  33.312   7.133  1.00  0.00     0.277 HD
ENDBRANCH   4   5
ENDBRANCH   3   4
ENDBRANCH   2   3
ENDBRANCH   1   2
BRANCH   1  13
HETATM   13  C7  UNL     1      12.707  35.023   6.031  1.00  0.00     0.000 C 
BRANCH  13  14
HETATM   14  C8  UNL     1      13.210  33.888   5.185  1.00  0.00     0.000 C 
BRANCH  14  15
HETATM   15  C9  UNL     1      14.206  33.113   6.066  1.00  0.00     0.000 C 
BRANCH  15  16
HETATM   16  C10 UNL     1      13.679  31.754   6.391  1.00  0.00     0.000 C 
BRANCH  16  17
HETATM   17  C11 UNL     1      14.786  30.752   6.534  1.00  0.00     0.000 C 
BRANCH  17  18
HETATM   18  C12 UNL     1      14.453  29.694   7.530  1.00  0.00     0.000 C 
BRANCH  18  19
HETATM   19  C13 UNL     1      14.822  30.145   8.937  1.00  0.00     0.000 C 
BRANCH  19  20
HETATM   20  C14 UNL     1      13.833  29.659   9.972  1.00  0.00     0.000 C 
BRANCH  20  21
HETATM   21  C15 UNL     1      12.767  28.884   9.190  1.00  0.00     0.004 C 
BRANCH  21  22
HETATM   22  C16 UNL     1      11.429  29.190   9.839  1.00  0.00    -0.014 A 
HETATM   23  C17 UNL     1      10.764  30.499   9.549  1.00  0.00     0.005 A 
HETATM   24  C18 UNL     1      10.206  29.268   8.933  1.00  0.00     0.005 A 
ENDBRANCH  21  22
ENDBRANCH  20  21
ENDBRANCH  19  20
ENDBRANCH  18  19
ENDBRANCH  17  18
ENDBRANCH  16  17
ENDBRANCH  15  16
ENDBRANCH  14  15
ENDBRANCH  13  14
ENDBRANCH   1  13
TORSDOF 14
ENDMDL
MODEL 5
REMARK VINA RESULT: -6.574167566      1.760      6.153
REMARK  14 active torsions:
REMARK  status: ('A' for Active; 'I' for Inactive)
REMARK    1  A    between atoms: C2_2  and  C3_3 
REMARK    2  A    between atoms: C3_3  and  C4_4 
REMARK    3  A    between atoms: C4_4  and  C5_5 
REMARK    4  A    between atoms: C5_5  and  C6_6 
REMARK    5  A    between atoms: C6_6  and  C7_7 
REMARK    6  A    between atoms: C7_7  and  C8_8 
REMARK    7  A    between atoms: C8_8  and  C9_9 
REMARK    8  A    between atoms: C9_9  and  C10_10 
REMARK    9  A    between atoms: C10_10  and  C11_11 
REMARK   10  A    between atoms: C11_11  and  C12_12 
REMARK   11  A    between atoms: C12_12  and  C13_13 
REMARK   12  A    between atoms: C13_13  and  C14_14 
REMARK   13  A    between atoms: C14_14  and  C15_15 
REMARK   14  A    between atoms: C15_15  and  C16_16 
ROOT
HETATM    1  C6  UNL     1      13.888  32.428   6.824  1.00  0.00     0.000 C 
ENDROOT
BRANCH   1   2
HETATM    2  C5  UNL     1      14.892  31.432   6.338  1.00  0.00     0.000 C 
BRANCH   2   3
HETATM    3  C4  UNL     1      14.728  30.102   6.990  1.00  0.00     0.004 C 
BRANCH   3   4
HETATM    4  C3  UNL     1      15.139  30.155   8.438  1.00  0.00     0.035 C 
BRANCH   4   5
HETATM    5  C2  UNL     1      13.901  29.861   9.253  1.00  0.00    -0.058 C 
HETATM    6  C1  UNL     1      13.152  28.849   8.894  1.00  0.00    -0.021 C 
HETATM    7  C21 UNL     1      11.933  28.516   9.654  1.00  0.00     0.055 C 
HETATM    8  C20 UNL     1      11.476  29.741  10.394  1.00  0.00     0.236 C 
HETATM    9  N1  UNL     1      12.528  30.315  11.210  1.00  0.00    -0.071 N 
HETATM   10  C19 UNL     1      13.647  30.761  10.405  1.00  0.00     0.266 C 
ATOM     11  H12 UNL     1      12.829  29.667  11.938  1.00  0.00     0.277 HD
ATOM     12  H11 UNL     1      12.172  31.066  11.802  1.00  0.00     0.277 HD
ENDBRANCH   4   5
ENDBRANCH   3   4
ENDBRANCH   2   3
ENDBRANCH   1   2
BRANCH   1  13
HETATM   13  C7  UNL     1      12.502  31.950   6.431  1.00  0.00     0.000 C 
BRANCH  13  14
HETATM   14  C8  UNL     1      11.497  32.038   7.545  1.00  0.00     0.000 C 
BRANCH  14  15
HETATM   15  C9  UNL     1      10.282  31.215   7.085  1.00  0.00     0.000 C 
BRANCH  15  16
HETATM   16  C10 UNL     1       9.097  31.490   7.953  1.00  0.00     0.000 C 
BRANCH  16  17
HETATM   17  C11 UNL     1       7.901  31.893   7.142  1.00  0.00     0.000 C 
BRANCH  17  18
HETATM   18  C12 UNL     1       8.268  32.219   5.734  1.00  0.00     0.000 C 
BRANCH  18  19
HETATM   19  C13 UNL     1       7.750  33.597   5.349  1.00  0.00     0.000 C 
BRANCH  19  20
HETATM   20  C14 UNL     1       8.486  34.174   4.161  1.00  0.00     0.000 C 
BRANCH  20  21
HETATM   21  C15 UNL     1       9.931  33.680   4.292  1.00  0.00     0.004 C 
BRANCH  21  22
HETATM   22  C16 UNL     1      10.834  34.832   3.888  1.00  0.00    -0.014 A 
HETATM   23  C17 UNL     1      10.775  36.109   4.666  1.00  0.00     0.005 A 
HETATM   24  C18 UNL     1      11.953  35.223   4.847  1.00  0.00     0.005 A 
ENDBRANCH  21  22
ENDBRANCH  20  21
ENDBRANCH  19  20
ENDBRANCH  18  19
ENDBRANCH  17  18
ENDBRANCH  16  17
ENDBRANCH  15  16
ENDBRANCH  14  15
ENDBRANCH  13  14
ENDBRANCH   1  13
TORSDOF 14
ENDMDL
