MODEL 1
REMARK VINA RESULT: -6.258061100      0.000      0.000
REMARK  14 active torsions:
REMARK  status: ('A' for Active; 'I' for Inactive)
REMARK    1  A    between atoms: C3_3  and  C4_4 
REMARK    2  A    between atoms: C4_4  and  C5_5 
REMARK    3  A    between atoms: C5_5  and  C6_6 
REMARK    4  A    between atoms: C6_6  and  C7_7 
REMARK    5  A    between atoms: C7_7  and  C8_8 
REMARK    6  A    between atoms: C8_8  and  C9_9 
REMARK    7  A    between atoms: C9_9  and  C10_10 
REMARK    8  A    between atoms: C10_10  and  C11_11 
REMARK    9  A    between atoms: C11_11  and  C12_12 
REMARK   10  A    between atoms: C12_12  and  C13_13 
REMARK   11  A    between atoms: C13_13  and  C14_14 
REMARK   12  A    between atoms: C14_14  and  C15_15 
REMARK   13  A    between atoms: C15_15  and  N1_16 
REMARK   14  A    between atoms: N1_16  and  C16_18 
ROOT
HETATM    1  C1  UNL     1      12.215  33.225  10.777  1.00  0.00     0.012 C 
HETATM    2  C2  UNL     1      12.772  33.200   9.703  1.00  0.00    -0.117 C 
HETATM    3  C3  UNL     1      13.434  33.177   8.382  1.00  0.00     0.093 C 
ENDROOT
BRANCH   3   4
HETATM    4  C4  UNL     1      12.438  32.495   7.422  1.00  0.00     0.012 C 
BRANCH   4   5
HETATM    5  C5  UNL     1      13.271  31.613   6.539  1.00  0.00     0.001 C 
BRANCH   5   6
HETATM    6  C6  UNL     1      14.606  31.359   7.193  1.00  0.00     0.000 C 
BRANCH   6   7
HETATM    7  C7  UNL     1      14.862  29.888   7.237  1.00  0.00     0.000 C 
BRANCH   7   8
HETATM    8  C8  UNL     1      13.963  29.225   8.222  1.00  0.00     0.000 C 
BRANCH   8   9
HETATM    9  C9  UNL     1      14.216  29.717   9.625  1.00  0.00     0.000 C 
BRANCH   9  10
HETATM   10  C10 UNL     1      12.904  29.513  10.370  1.00  0.00     0.000 C 
BRANCH  10  11
HETATM   11  C11 UNL     1      11.778  29.147   9.462  1.00  0.00     0.000 C 
BRANCH  11  12
HETATM   12  C12 UNL     1      10.604  30.070   9.548  1.00  0.00     0.000 C 
BRANCH  12  13
HETATM   13  C13 UNL     1       9.771  30.135   8.321  1.00  0.00     0.005 C 
BRANCH  13  14
HETATM   14  C14 UNL     1       8.655  31.148   8.389  1.00  0.00     0.044 C 
BRANCH  14  15
HETATM   15  C15 UNL     1       8.401  31.875   7.117  1.00  0.00     0.056 C 
BRANCH  15  16
HETATM   16  N1  UNL     1       9.215  31.712   6.019  1.00  0.00    -0.398 N 
ATOM     17  H1  UNL     1       9.831  30.899   6.028  1.00  0.00     0.159 HD
BRANCH  16  18
HETATM   18  C16 UNL     1       9.289  32.527   4.906  1.00  0.00     0.080 C 
HETATM   19  C17 UNL     1      10.598  32.993   4.374  1.00  0.00     0.025 C 
HETATM   20  C18 UNL     1      10.829  34.487   4.533  1.00  0.00     0.002 C 
HETATM   21  C19 UNL     1       9.808  35.271   3.721  1.00  0.00     0.000 C 
HETATM   22  C20 UNL     1       8.513  34.450   3.632  1.00  0.00     0.002 C 
HETATM   23  C21 UNL     1       8.388  33.765   4.976  1.00  0.00     0.025 C 
ENDBRANCH  16  18
ENDBRANCH  15  16
ENDBRANCH  14  15
ENDBRANCH  13  14
ENDBRANCH  12  13
ENDBRANCH  11  12
ENDBRANCH  10  11
ENDBRANCH   9  10
ENDBRANCH   8   9
ENDBRANCH   7   8
ENDBRANCH   6   7
ENDBRANCH   5   6
ENDBRANCH   4   5
ENDBRANCH   3   4
TORSDOF 14
ENDMDL
MODEL 2
REMARK VINA RESULT: -6.224475187      1.806      6.860
REMARK  14 active torsions:
REMARK  status: ('A' for Active; 'I' for Inactive)
REMARK    1  A    between atoms: C3_3  and  C4_4 
REMARK    2  A    between atoms: C4_4  and  C5_5 
REMARK    3  A    between atoms: C5_5  and  C6_6 
REMARK    4  A    between atoms: C6_6  and  C7_7 
REMARK    5  A    between atoms: C7_7  and  C8_8 
REMARK    6  A    between atoms: C8_8  and  C9_9 
REMARK    7  A    between atoms: C9_9  and  C10_10 
REMARK    8  A    between atoms: C10_10  and  C11_11 
REMARK    9  A    between atoms: C11_11  and  C12_12 
REMARK   10  A    between atoms: C12_12  and  C13_13 
REMARK   11  A    between atoms: C13_13  and  C14_14 
REMARK   12  A    between atoms: C14_14  and  C15_15 
REMARK   13  A    between atoms: C15_15  and  N1_16 
REMARK   14  A    between atoms: N1_16  and  C16_18 
ROOT
HETATM    1  C1  UNL     1       9.816  29.521   8.964  1.00  0.00     0.012 C 
HETATM    2  C2  UNL     1       9.202  30.444   8.478  1.00  0.00    -0.117 C 
HETATM    3  C3  UNL     1       8.449  31.559   7.866  1.00  0.00     0.093 C 
ENDROOT
BRANCH   3   4
HETATM    4  C4  UNL     1       9.036  31.739   6.451  1.00  0.00     0.012 C 
BRANCH   4   5
HETATM    5  C5  UNL     1       7.902  32.242   5.606  1.00  0.00     0.001 C 
BRANCH   5   6
HETATM    6  C6  UNL     1       7.973  33.745   5.509  1.00  0.00     0.000 C 
BRANCH   6   7
HETATM    7  C7  UNL     1       7.521  34.173   4.151  1.00  0.00     0.000 C 
BRANCH   7   8
HETATM    8  C8  UNL     1       8.685  34.538   3.298  1.00  0.00     0.000 C 
BRANCH   8   9
HETATM    9  C9  UNL     1       9.893  34.895   4.128  1.00  0.00     0.000 C 
BRANCH   9  10
HETATM   10  C10 UNL     1      11.027  34.035   3.587  1.00  0.00     0.000 C 
BRANCH  10  11
HETATM   11  C11 UNL     1      11.894  33.480   4.668  1.00  0.00     0.000 C 
BRANCH  11  12
HETATM   12  C12 UNL     1      12.183  34.447   5.771  1.00  0.00     0.000 C 
BRANCH  12  13
HETATM   13  C13 UNL     1      13.608  34.518   6.180  1.00  0.00     0.005 C 
BRANCH  13  14
HETATM   14  C14 UNL     1      14.530  33.665   5.345  1.00  0.00     0.044 C 
BRANCH  14  15
HETATM   15  C15 UNL     1      15.302  32.652   6.113  1.00  0.00     0.056 C 
BRANCH  15  16
HETATM   16  N1  UNL     1      14.922  31.329   6.144  1.00  0.00    -0.398 N 
ATOM     17  H1  UNL     1      15.193  30.761   5.341  1.00  0.00     0.159 HD
BRANCH  16  18
HETATM   18  C16 UNL     1      14.216  30.685   7.141  1.00  0.00     0.080 C 
HETATM   19  C17 UNL     1      12.894  31.187   7.601  1.00  0.00     0.025 C 
HETATM   20  C18 UNL     1      12.902  31.733   9.020  1.00  0.00     0.002 C 
HETATM   21  C19 UNL     1      13.234  30.627  10.011  1.00  0.00     0.000 C 
HETATM   22  C20 UNL     1      14.137  29.596   9.317  1.00  0.00     0.002 C 
HETATM   23  C21 UNL     1      15.035  30.408   8.407  1.00  0.00     0.025 C 
ENDBRANCH  16  18
ENDBRANCH  15  16
ENDBRANCH  14  15
ENDBRANCH  13  14
ENDBRANCH  12  13
ENDBRANCH  11  12
ENDBRANCH  10  11
ENDBRANCH   9  10
ENDBRANCH   8   9
ENDBRANCH   7   8
ENDBRANCH   6   7
ENDBRANCH   5   6
ENDBRANCH   4   5
ENDBRANCH   3   4
TORSDOF 14
ENDMDL
MODEL 3
REMARK VINA RESULT: -6.150213020      1.972      6.277
REMARK  14 active torsions:
REMARK  status: ('A' for Active; 'I' for Inactive)
REMARK    1  A    between atoms: C3_3  and  C4_4 
REMARK    2  A    between atoms: C4_4  and  C5_5 
REMARK    3  A    between atoms: C5_5  and  C6_6 
REMARK    4  A    between atoms: C6_6  and  C7_7 
REMARK    5  A    between atoms: C7_7  and  C8_8 
REMARK    6  A    between atoms: C8_8  and  C9_9 
REMARK    7  A    between atoms: C9_9  and  C10_10 
REMARK    8  A    between atoms: C10_10  and  C11_11 
REMARK    9  A    between atoms: C11_11  and  C12_12 
REMARK   10  A    between atoms: C12_12  and  C13_13 
REMARK   11  A    between atoms: C13_13  and  C14_14 
REMARK   12  A    between atoms: C14_14  and  C15_15 
REMARK   13  A    between atoms: C15_15  and  N1_16 
REMARK   14  A    between atoms: N1_16  and  C16_18 
ROOT
HETATM    1  C1  UNL     1       9.035  31.822   6.085  1.00  0.00     0.012 C 
HETATM    2  C2  UNL     1       8.555  32.775   5.514  1.00  0.00    -0.117 C 
HETATM    3  C3  UNL     1       7.972  33.930   4.799  1.00  0.00     0.093 C 
ENDROOT
BRANCH   3   4
HETATM    4  C4  UNL     1       8.989  34.305   3.703  1.00  0.00     0.012 C 
BRANCH   4   5
HETATM    5  C5  UNL     1       9.918  35.297   4.338  1.00  0.00     0.001 C 
BRANCH   5   6
HETATM    6  C6  UNL     1      11.322  35.068   3.836  1.00  0.00     0.000 C 
BRANCH   6   7
HETATM    7  C7  UNL     1      12.296  35.514   4.876  1.00  0.00     0.000 C 
BRANCH   7   8
HETATM    8  C8  UNL     1      13.137  34.375   5.335  1.00  0.00     0.000 C 
BRANCH   8   9
HETATM    9  C9  UNL     1      12.400  33.496   6.314  1.00  0.00     0.000 C 
BRANCH   9  10
HETATM   10  C10 UNL     1      12.691  32.067   5.878  1.00  0.00     0.000 C 
BRANCH  10  11
HETATM   11  C11 UNL     1      14.094  31.651   6.168  1.00  0.00     0.000 C 
BRANCH  11  12
HETATM   12  C12 UNL     1      14.202  30.433   7.027  1.00  0.00     0.000 C 
BRANCH  12  13
HETATM   13  C13 UNL     1      15.512  30.259   7.702  1.00  0.00     0.005 C 
BRANCH  13  14
HETATM   14  C14 UNL     1      15.443  30.337   9.208  1.00  0.00     0.044 C 
BRANCH  14  15
HETATM   15  C15 UNL     1      14.646  31.477   9.733  1.00  0.00     0.056 C 
BRANCH  15  16
HETATM   16  N1  UNL     1      13.713  31.304  10.731  1.00  0.00    -0.398 N 
ATOM     17  H1  UNL     1      13.984  31.616  11.663  1.00  0.00     0.159 HD
BRANCH  16  18
HETATM   18  C16 UNL     1      12.451  30.756  10.609  1.00  0.00     0.080 C 
HETATM   19  C17 UNL     1      12.235  29.286  10.687  1.00  0.00     0.025 C 
HETATM   20  C18 UNL     1      11.796  28.659   9.374  1.00  0.00     0.002 C 
HETATM   21  C19 UNL     1      10.438  29.203   8.954  1.00  0.00     0.000 C 
HETATM   22  C20 UNL     1      10.292  30.634   9.492  1.00  0.00     0.002 C 
HETATM   23  C21 UNL     1      11.675  31.240   9.379  1.00  0.00     0.025 C 
ENDBRANCH  16  18
ENDBRANCH  15  16
ENDBRANCH  14  15
ENDBRANCH  13  14
ENDBRANCH  12  13
ENDBRANCH  11  12
ENDBRANCH  10  11
ENDBRANCH   9  10
ENDBRANCH   8   9
ENDBRANCH   7   8
ENDBRANCH   6   7
ENDBRANCH   5   6
ENDBRANCH   4   5
ENDBRANCH   3   4
TORSDOF 14
ENDMDL
MODEL 4
REMARK VINA RESULT: -6.124324461      1.489      4.417
REMARK  14 active torsions:
REMARK  status: ('A' for Active; 'I' for Inactive)
REMARK    1  A    between atoms: C3_3  and  C4_4 
REMARK    2  A    between atoms: C4_4  and  C5_5 
REMARK    3  A    between atoms: C5_5  and  C6_6 
REMARK    4  A    between atoms: C6_6  and  C7_7 
REMARK    5  A    between atoms: C7_7  and  C8_8 
REMARK    6  A    between atoms: C8_8  and  C9_9 
REMARK    7  A    between atoms: C9_9  and  C10_10 
REMARK    8  A    between atoms: C10_10  and  C11_11 
REMARK    9  A    between atoms: C11_11  and  C12_12 
REMARK   10  A    between atoms: C12_12  and  C13_13 
REMARK   11  A    between atoms: C13_13  and  C14_14 
REMARK   12  A    between atoms: C14_14  and  C15_15 
REMARK   13  A    between atoms: C15_15  and  N1_16 
REMARK   14  A    between atoms: N1_16  and  C16_18 
ROOT
HETATM    1  C1  UNL     1      14.862  29.817   6.905  1.00  0.00     0.012 C 
HETATM    2  C2  UNL     1      14.893  30.261   8.030  1.00  0.00    -0.117 C 
HETATM    3  C3  UNL     1      14.920  30.787   9.411  1.00  0.00     0.093 C 
ENDROOT
BRANCH   3   4
HETATM    4  C4  UNL     1      13.491  30.605   9.961  1.00  0.00     0.012 C 
BRANCH   4   5
HETATM    5  C5  UNL     1      13.355  29.139  10.252  1.00  0.00     0.001 C 
BRANCH   5   6
HETATM    6  C6  UNL     1      12.003  28.656   9.789  1.00  0.00     0.000 C 
BRANCH   6   7
HETATM    7  C7  UNL     1      11.235  29.807   9.227  1.00  0.00     0.000 C 
BRANCH   7   8
HETATM    8  C8  UNL     1       9.889  29.368   8.765  1.00  0.00     0.000 C 
BRANCH   8   9
HETATM    9  C9  UNL     1       8.865  30.466   8.909  1.00  0.00     0.000 C 
BRANCH   9  10
HETATM   10  C10 UNL     1       8.999  31.314   7.652  1.00  0.00     0.000 C 
BRANCH  10  11
HETATM   11  C11 UNL     1       7.680  31.772   7.124  1.00  0.00     0.000 C 
BRANCH  11  12
HETATM   12  C12 UNL     1       7.720  32.220   5.698  1.00  0.00     0.000 C 
BRANCH  12  13
HETATM   13  C13 UNL     1       7.732  33.692   5.508  1.00  0.00     0.005 C 
BRANCH  13  14
HETATM   14  C14 UNL     1       7.890  34.124   4.070  1.00  0.00     0.044 C 
BRANCH  14  15
HETATM   15  C15 UNL     1       9.265  34.548   3.699  1.00  0.00     0.056 C 
BRANCH  15  16
HETATM   16  N1  UNL     1      10.366  33.786   4.020  1.00  0.00    -0.398 N 
ATOM     17  H1  UNL     1      10.619  33.053   3.357  1.00  0.00     0.159 HD
BRANCH  16  18
HETATM   18  C16 UNL     1      11.166  33.904   5.141  1.00  0.00     0.080 C 
HETATM   19  C17 UNL     1      12.303  34.861   5.182  1.00  0.00     0.025 C 
HETATM   20  C18 UNL     1      13.668  34.192   5.224  1.00  0.00     0.002 C 
HETATM   21  C19 UNL     1      13.825  33.386   6.505  1.00  0.00     0.000 C 
HETATM   22  C20 UNL     1      12.441  32.891   6.950  1.00  0.00     0.002 C 
HETATM   23  C21 UNL     1      11.707  32.569   5.665  1.00  0.00     0.025 C 
ENDBRANCH  16  18
ENDBRANCH  15  16
ENDBRANCH  14  15
ENDBRANCH  13  14
ENDBRANCH  12  13
ENDBRANCH  11  12
ENDBRANCH  10  11
ENDBRANCH   9  10
ENDBRANCH   8   9
ENDBRANCH   7   8
ENDBRANCH   6   7
ENDBRANCH   5   6
ENDBRANCH   4   5
ENDBRANCH   3   4
TORSDOF 14
ENDMDL
MODEL 5
REMARK VINA RESULT: -6.110899732      1.892      5.366
REMARK  14 active torsions:
REMARK  status: ('A' for Active; 'I' for Inactive)
REMARK    1  A    between atoms: C3_3  and  C4_4 
REMARK    2  A    between atoms: C4_4  and  C5_5 
REMARK    3  A    between atoms: C5_5  and  C6_6 
REMARK    4  A    between atoms: C6_6  and  C7_7 
REMARK    5  A    between atoms: C7_7  and  C8_8 
REMARK    6  A    between atoms: C8_8  and  C9_9 
REMARK    7  A    between atoms: C9_9  and  C10_10 
REMARK    8  A    between atoms: C10_10  and  C11_11 
REMARK    9  A    between atoms: C11_11  and  C12_12 
REMARK   10  A    between atoms: C12_12  and  C13_13 
REMARK   11  A    between atoms: C13_13  and  C14_14 
REMARK   12  A    between atoms: C14_14  and  C15_15 
REMARK   13  A    between atoms: C15_15  and  N1_16 
REMARK   14  A    between atoms: N1_16  and  C16_18 
ROOT
HETATM    1  C1  UNL     1       8.842  34.599   3.112  1.00  0.00     0.012 C 
HETATM    2  C2  UNL     1       8.325  34.234   4.144  1.00  0.00    -0.117 C 
HETATM    3  C3  UNL     1       7.713  33.785   5.411  1.00  0.00     0.093 C 
ENDROOT
BRANCH   3   4
HETATM    4  C4  UNL     1       8.363  32.425   5.736  1.00  0.00     0.012 C 
BRANCH   4   5
HETATM    5  C5  UNL     1       7.306  31.634   6.449  1.00  0.00     0.001 C 
BRANCH   5   6
HETATM    6  C6  UNL     1       7.802  31.253   7.822  1.00  0.00     0.000 C 
BRANCH   6   7
HETATM    7  C7  UNL     1       9.295  31.201   7.810  1.00  0.00     0.000 C 
BRANCH   7   8
HETATM    8  C8  UNL     1       9.788  30.022   8.574  1.00  0.00     0.000 C 
BRANCH   8   9
HETATM    9  C9  UNL     1      10.958  30.380   9.457  1.00  0.00     0.000 C 
BRANCH   9  10
HETATM   10  C10 UNL     1      11.704  29.074   9.692  1.00  0.00     0.000 C 
BRANCH  10  11
HETATM   11  C11 UNL     1      12.981  29.268  10.440  1.00  0.00     0.000 C 
BRANCH  11  12
HETATM   12  C12 UNL     1      13.950  30.181   9.759  1.00  0.00     0.000 C 
BRANCH  12  13
HETATM   13  C13 UNL     1      14.587  29.617   8.542  1.00  0.00     0.005 C 
BRANCH  13  14
HETATM   14  C14 UNL     1      15.882  30.290   8.159  1.00  0.00     0.044 C 
BRANCH  14  15
HETATM   15  C15 UNL     1      15.758  31.300   7.075  1.00  0.00     0.056 C 
BRANCH  15  16
HETATM   16  N1  UNL     1      15.357  32.591   7.335  1.00  0.00    -0.398 N 
ATOM     17  H1  UNL     1      15.978  33.150   7.919  1.00  0.00     0.159 HD
BRANCH  16  18
HETATM   18  C16 UNL     1      14.206  33.213   6.892  1.00  0.00     0.080 C 
HETATM   19  C17 UNL     1      12.870  32.583   7.067  1.00  0.00     0.025 C 
HETATM   20  C18 UNL     1      12.218  32.151   5.763  1.00  0.00     0.002 C 
HETATM   21  C19 UNL     1      11.936  33.362   4.884  1.00  0.00     0.000 C 
HETATM   22  C20 UNL     1      12.985  34.443   5.182  1.00  0.00     0.002 C 
HETATM   23  C21 UNL     1      14.271  33.685   5.435  1.00  0.00     0.025 C 
ENDBRANCH  16  18
ENDBRANCH  15  16
ENDBRANCH  14  15
ENDBRANCH  13  14
ENDBRANCH  12  13
ENDBRANCH  11  12
ENDBRANCH  10  11
ENDBRANCH   9  10
ENDBRANCH   8   9
ENDBRANCH   7   8
ENDBRANCH   6   7
ENDBRANCH   5   6
ENDBRANCH   4   5
ENDBRANCH   3   4
TORSDOF 14
ENDMDL
