MODEL 1
REMARK VINA RESULT: -8.403678214      0.000      0.000
REMARK  13 active torsions:
REMARK  status: ('A' for Active; 'I' for Inactive)
REMARK    1  A    between atoms: N1_2  and  C2_5 
REMARK    2  A    between atoms: C2_5  and  C3_6 
REMARK    3  A    between atoms: C3_6  and  N2_7 
REMARK    4  A    between atoms: N2_7  and  C4_8 
REMARK    5  A    between atoms: C9_14  and  O2_15 
REMARK    6  A    between atoms: O2_15  and  C10_16 
REMARK    7  A    between atoms: C12_18  and  O3_19 
REMARK    8  A    between atoms: O3_19  and  C13_20 
REMARK    9  A    between atoms: C16_24  and  O5_25 
REMARK   10  A    between atoms: C17_27  and  O6_28 
REMARK   11  A    between atoms: C18_30  and  O7_31 
REMARK   12  A    between atoms: C19_33  and  N3_34 
REMARK   13  A    between atoms: C21_39  and  N4_40 
ROOT
HETATM    1  C10 UNL     1      25.244   9.899  21.760  1.00  0.00     0.158 C 
HETATM    2  C11 UNL     1      24.481  10.238  23.032  1.00  0.00     0.068 C 
HETATM    3  C12 UNL     1      25.413  10.470  24.196  1.00  0.00     0.157 C 
HETATM    4  C19 UNL     1      26.616  11.282  23.869  1.00  0.00     0.214 C 
HETATM    5  C20 UNL     1      27.271  10.925  22.566  1.00  0.00     0.070 C 
HETATM    6  C21 UNL     1      26.684   9.607  22.103  1.00  0.00     0.214 C 
ENDROOT
BRANCH   1   7
HETATM    7  O2  UNL     1      24.597   8.948  21.023  1.00  0.00    -0.347 OA
BRANCH   7   8
HETATM    8  C9  UNL     1      23.484   8.420  21.601  1.00  0.00     0.321 C 
HETATM    9  C4  UNL     1      22.214   8.574  20.850  1.00  0.00     0.116 C 
HETATM   10  C5  UNL     1      21.009   8.248  21.721  1.00  0.00     0.076 C 
HETATM   11  C6  UNL     1      21.436   7.414  22.900  1.00  0.00     0.038 C 
HETATM   12  C7  UNL     1      22.657   6.600  22.715  1.00  0.00     0.121 C 
HETATM   13  C8  UNL     1      22.344   5.135  22.409  1.00  0.00     0.040 C 
HETATM   14  O1  UNL     1      23.582   7.035  21.814  1.00  0.00    -0.350 OA
BRANCH   9  15
HETATM   15  N2  UNL     1      22.044   8.895  19.713  1.00  0.00    -0.424 NA
BRANCH  15  16
HETATM   16  C3  UNL     1      21.853   9.255  18.465  1.00  0.00     0.182 C 
BRANCH  16  17
HETATM   17  C2  UNL     1      21.836  10.754  18.149  1.00  0.00     0.290 C 
BRANCH  17  18
HETATM   18  N1  UNL     1      20.684  11.381  18.720  1.00  0.00    -0.074 N 
HETATM   19  C1  UNL     1      21.044  12.379  19.679  1.00  0.00     0.267 C 
ATOM     20  H12 UNL     1      20.048  10.693  19.122  1.00  0.00     0.277 HD
ATOM     21  H11 UNL     1      20.073  11.762  17.999  1.00  0.00     0.277 HD
ENDBRANCH  17  18
ENDBRANCH  16  17
ENDBRANCH  15  16
ENDBRANCH   9  15
ENDBRANCH   7   8
ENDBRANCH   1   7
BRANCH   6  22
HETATM   22  N4  UNL     1      27.450   9.043  21.038  1.00  0.00    -0.072 N 
ATOM     23  H43 UNL     1      27.257   8.045  20.952  1.00  0.00     0.274 HD
ATOM     24  H42 UNL     1      27.098   9.368  20.138  1.00  0.00     0.274 HD
ATOM     25  H41 UNL     1      28.456   9.204  21.102  1.00  0.00     0.274 HD
ENDBRANCH   6  22
BRANCH   3  26
HETATM   26  O3  UNL     1      24.599  11.105  25.166  1.00  0.00    -0.351 OA
BRANCH  26  27
HETATM   27  C13 UNL     1      24.675  10.519  26.396  1.00  0.00     0.292 C 
HETATM   28  O4  UNL     1      25.724  11.014  27.174  1.00  0.00    -0.351 OA
HETATM   29  C14 UNL     1      25.983  10.275  28.292  1.00  0.00     0.152 C 
HETATM   30  C15 UNL     1      26.619  11.241  29.308  1.00  0.00     0.042 C 
HETATM   31  C16 UNL     1      24.848   9.600  28.958  1.00  0.00     0.178 C 
HETATM   32  C17 UNL     1      23.497   9.760  28.378  1.00  0.00     0.183 C 
HETATM   33  C18 UNL     1      23.434  10.776  27.264  1.00  0.00     0.204 C 
BRANCH  31  34
HETATM   34  O5  UNL     1      24.784   9.888  30.338  1.00  0.00    -0.390 OA
ATOM     35  H5  UNL     1      25.152   9.193  30.872  1.00  0.00     0.210 HD
ENDBRANCH  31  34
BRANCH  32  36
HETATM   36  O6  UNL     1      22.576  10.147  29.355  1.00  0.00    -0.390 OA
ATOM     37  H6  UNL     1      22.070  10.898  29.068  1.00  0.00     0.210 HD
ENDBRANCH  32  36
BRANCH  33  38
HETATM   38  O7  UNL     1      23.599  12.038  27.825  1.00  0.00    -0.388 OA
ATOM     39  H7  UNL     1      22.726  12.377  27.986  1.00  0.00     0.210 HD
ENDBRANCH  33  38
ENDBRANCH  26  27
ENDBRANCH   3  26
BRANCH   4  40
HETATM   40  N3  UNL     1      27.663  11.129  24.896  1.00  0.00    -0.072 N 
ATOM     41  H33 UNL     1      27.737  10.162  25.213  1.00  0.00     0.274 HD
ATOM     42  H32 UNL     1      28.596  11.236  24.499  1.00  0.00     0.274 HD
ATOM     43  H31 UNL     1      27.514  11.767  25.677  1.00  0.00     0.274 HD
ENDBRANCH   4  40
TORSDOF 13
ENDMDL
MODEL 2
REMARK VINA RESULT: -8.293844348      3.191      8.096
REMARK  13 active torsions:
REMARK  status: ('A' for Active; 'I' for Inactive)
REMARK    1  A    between atoms: N1_2  and  C2_5 
REMARK    2  A    between atoms: C2_5  and  C3_6 
REMARK    3  A    between atoms: C3_6  and  N2_7 
REMARK    4  A    between atoms: N2_7  and  C4_8 
REMARK    5  A    between atoms: C9_14  and  O2_15 
REMARK    6  A    between atoms: O2_15  and  C10_16 
REMARK    7  A    between atoms: C12_18  and  O3_19 
REMARK    8  A    between atoms: O3_19  and  C13_20 
REMARK    9  A    between atoms: C16_24  and  O5_25 
REMARK   10  A    between atoms: C17_27  and  O6_28 
REMARK   11  A    between atoms: C18_30  and  O7_31 
REMARK   12  A    between atoms: C19_33  and  N3_34 
REMARK   13  A    between atoms: C21_39  and  N4_40 
ROOT
HETATM    1  C10 UNL     1      22.666  11.947  24.194  1.00  0.00     0.158 C 
HETATM    2  C11 UNL     1      21.889  11.408  23.002  1.00  0.00     0.068 C 
HETATM    3  C12 UNL     1      20.450  11.861  23.024  1.00  0.00     0.157 C 
HETATM    4  C19 UNL     1      20.260  13.291  23.388  1.00  0.00     0.214 C 
HETATM    5  C20 UNL     1      21.113  13.758  24.532  1.00  0.00     0.070 C 
HETATM    6  C21 UNL     1      21.702  12.531  25.197  1.00  0.00     0.214 C 
ENDROOT
BRANCH   1   7
HETATM    7  O2  UNL     1      23.552  11.025  24.677  1.00  0.00    -0.347 OA
BRANCH   7   8
HETATM    8  C9  UNL     1      24.801  11.081  24.141  1.00  0.00     0.321 C 
HETATM    9  C4  UNL     1      25.927  10.779  25.058  1.00  0.00     0.116 C 
HETATM   10  C5  UNL     1      27.263  11.185  24.453  1.00  0.00     0.076 C 
HETATM   11  C6  UNL     1      27.133  11.314  22.958  1.00  0.00     0.038 C 
HETATM   12  C7  UNL     1      26.068  10.507  22.323  1.00  0.00     0.121 C 
HETATM   13  C8  UNL     1      26.606   9.229  21.680  1.00  0.00     0.040 C 
HETATM   14  O1  UNL     1      24.982  10.180  23.078  1.00  0.00    -0.350 OA
BRANCH   9  15
HETATM   15  N2  UNL     1      25.904  10.277  26.142  1.00  0.00    -0.424 NA
BRANCH  15  16
HETATM   16  C3  UNL     1      25.879   9.718  27.329  1.00  0.00     0.182 C 
BRANCH  16  17
HETATM   17  C2  UNL     1      24.613   8.957  27.733  1.00  0.00     0.290 C 
BRANCH  17  18
HETATM   18  N1  UNL     1      23.456   9.788  27.604  1.00  0.00    -0.074 N 
HETATM   19  C1  UNL     1      23.061  10.347  28.860  1.00  0.00     0.267 C 
ATOM     20  H12 UNL     1      22.686   9.286  27.162  1.00  0.00     0.277 HD
ATOM     21  H11 UNL     1      23.598  10.514  26.902  1.00  0.00     0.277 HD
ENDBRANCH  17  18
ENDBRANCH  16  17
ENDBRANCH  15  16
ENDBRANCH   9  15
ENDBRANCH   7   8
ENDBRANCH   1   7
BRANCH   6  22
HETATM   22  N4  UNL     1      22.279  12.852  26.464  1.00  0.00    -0.072 N 
ATOM     23  H43 UNL     1      21.792  12.357  27.211  1.00  0.00     0.274 HD
ATOM     24  H42 UNL     1      23.205  12.432  26.548  1.00  0.00     0.274 HD
ATOM     25  H41 UNL     1      22.324  13.850  26.672  1.00  0.00     0.274 HD
ENDBRANCH   6  22
BRANCH   3  26
HETATM   26  O3  UNL     1      19.984  11.587  21.714  1.00  0.00    -0.351 OA
BRANCH  26  27
HETATM   27  C13 UNL     1      20.990  11.324  20.832  1.00  0.00     0.292 C 
HETATM   28  O4  UNL     1      20.887  10.061  20.245  1.00  0.00    -0.351 OA
HETATM   29  C14 UNL     1      22.005   9.671  19.565  1.00  0.00     0.152 C 
HETATM   30  C15 UNL     1      21.529   8.676  18.491  1.00  0.00     0.042 C 
HETATM   31  C16 UNL     1      22.808  10.714  18.891  1.00  0.00     0.178 C 
HETATM   32  C17 UNL     1      22.359  12.121  18.992  1.00  0.00     0.183 C 
HETATM   33  C18 UNL     1      21.000  12.277  19.627  1.00  0.00     0.204 C 
BRANCH  31  34
HETATM   34  O5  UNL     1      23.052  10.415  17.534  1.00  0.00    -0.390 OA
ATOM     35  H5  UNL     1      23.978  10.311  17.346  1.00  0.00     0.210 HD
ENDBRANCH  31  34
BRANCH  32  36
HETATM   36  O6  UNL     1      22.309  12.721  17.731  1.00  0.00    -0.390 OA
ATOM     37  H6  UNL     1      22.252  13.667  17.807  1.00  0.00     0.210 HD
ENDBRANCH  32  36
BRANCH  33  38
HETATM   38  O7  UNL     1      20.051  11.793  18.732  1.00  0.00    -0.388 OA
ATOM     39  H7  UNL     1      19.354  12.437  18.704  1.00  0.00     0.210 HD
ENDBRANCH  33  38
ENDBRANCH  26  27
ENDBRANCH   3  26
BRANCH   4  40
HETATM   40  N3  UNL     1      18.868  13.563  23.791  1.00  0.00    -0.072 N 
ATOM     41  H33 UNL     1      18.507  14.405  23.342  1.00  0.00     0.274 HD
ATOM     42  H32 UNL     1      18.223  12.882  23.390  1.00  0.00     0.274 HD
ATOM     43  H31 UNL     1      18.777  13.612  24.805  1.00  0.00     0.274 HD
ENDBRANCH   4  40
TORSDOF 13
ENDMDL
MODEL 3
REMARK VINA RESULT: -8.087345180      2.883      8.261
REMARK  13 active torsions:
REMARK  status: ('A' for Active; 'I' for Inactive)
REMARK    1  A    between atoms: N1_2  and  C2_5 
REMARK    2  A    between atoms: C2_5  and  C3_6 
REMARK    3  A    between atoms: C3_6  and  N2_7 
REMARK    4  A    between atoms: N2_7  and  C4_8 
REMARK    5  A    between atoms: C9_14  and  O2_15 
REMARK    6  A    between atoms: O2_15  and  C10_16 
REMARK    7  A    between atoms: C12_18  and  O3_19 
REMARK    8  A    between atoms: O3_19  and  C13_20 
REMARK    9  A    between atoms: C16_24  and  O5_25 
REMARK   10  A    between atoms: C17_27  and  O6_28 
REMARK   11  A    between atoms: C18_30  and  O7_31 
REMARK   12  A    between atoms: C19_33  and  N3_34 
REMARK   13  A    between atoms: C21_39  and  N4_40 
ROOT
HETATM    1  C10 UNL     1      21.948   7.864  23.204  1.00  0.00     0.158 C 
HETATM    2  C11 UNL     1      21.604   9.180  22.522  1.00  0.00     0.068 C 
HETATM    3  C12 UNL     1      21.309   8.986  21.055  1.00  0.00     0.157 C 
HETATM    4  C19 UNL     1      20.464   7.801  20.747  1.00  0.00     0.214 C 
HETATM    5  C20 UNL     1      20.830   6.562  21.512  1.00  0.00     0.070 C 
HETATM    6  C21 UNL     1      22.180   6.803  22.157  1.00  0.00     0.214 C 
ENDROOT
BRANCH   1   7
HETATM    7  O2  UNL     1      22.940   8.022  24.131  1.00  0.00    -0.347 OA
BRANCH   7   8
HETATM    8  C9  UNL     1      23.869   8.971  23.836  1.00  0.00     0.321 C 
HETATM    9  C4  UNL     1      24.682   9.473  24.969  1.00  0.00     0.116 C 
HETATM   10  C5  UNL     1      25.441  10.738  24.593  1.00  0.00     0.076 C 
HETATM   11  C6  UNL     1      25.548  10.848  23.095  1.00  0.00     0.038 C 
HETATM   12  C7  UNL     1      25.493   9.577  22.342  1.00  0.00     0.121 C 
HETATM   13  C8  UNL     1      26.878   9.086  21.919  1.00  0.00     0.040 C 
HETATM   14  O1  UNL     1      24.824   8.532  22.904  1.00  0.00    -0.350 OA
BRANCH   9  15
HETATM   15  N2  UNL     1      24.808   9.021  26.067  1.00  0.00    -0.424 NA
BRANCH  15  16
HETATM   16  C3  UNL     1      24.940   8.530  27.277  1.00  0.00     0.182 C 
BRANCH  16  17
HETATM   17  C2  UNL     1      25.715   9.362  28.304  1.00  0.00     0.290 C 
BRANCH  17  18
HETATM   18  N1  UNL     1      25.024   9.397  29.555  1.00  0.00    -0.074 N 
HETATM   19  C1  UNL     1      23.887  10.264  29.510  1.00  0.00     0.267 C 
ATOM     20  H12 UNL     1      25.652   9.647  30.319  1.00  0.00     0.277 HD
ATOM     21  H11 UNL     1      24.764   8.460  29.862  1.00  0.00     0.277 HD
ENDBRANCH  17  18
ENDBRANCH  16  17
ENDBRANCH  15  16
ENDBRANCH   9  15
ENDBRANCH   7   8
ENDBRANCH   1   7
BRANCH   6  22
HETATM   22  N4  UNL     1      22.744   5.587  22.652  1.00  0.00    -0.072 N 
ATOM     23  H43 UNL     1      23.703   5.742  22.962  1.00  0.00     0.274 HD
ATOM     24  H42 UNL     1      22.310   5.332  23.539  1.00  0.00     0.274 HD
ATOM     25  H41 UNL     1      22.705   4.802  22.001  1.00  0.00     0.274 HD
ENDBRANCH   6  22
BRANCH   3  26
HETATM   26  O3  UNL     1      20.680  10.195  20.669  1.00  0.00    -0.351 OA
BRANCH  26  27
HETATM   27  C13 UNL     1      21.508  11.036  19.985  1.00  0.00     0.292 C 
HETATM   28  O4  UNL     1      22.059  10.451  18.843  1.00  0.00    -0.351 OA
HETATM   29  C14 UNL     1      23.081  11.168  18.289  1.00  0.00     0.152 C 
HETATM   30  C15 UNL     1      23.105  10.797  16.795  1.00  0.00     0.042 C 
HETATM   31  C16 UNL     1      23.029  12.643  18.389  1.00  0.00     0.178 C 
HETATM   32  C17 UNL     1      21.876  13.259  19.083  1.00  0.00     0.183 C 
HETATM   33  C18 UNL     1      20.787  12.277  19.436  1.00  0.00     0.204 C 
BRANCH  31  34
HETATM   34  O5  UNL     1      23.192  13.274  17.138  1.00  0.00    -0.390 OA
ATOM     35  H5  UNL     1      23.390  12.657  16.443  1.00  0.00     0.210 HD
ENDBRANCH  31  34
BRANCH  32  36
HETATM   36  O6  UNL     1      21.302  14.265  18.301  1.00  0.00    -0.390 OA
ATOM     37  H6  UNL     1      20.415  14.036  18.050  1.00  0.00     0.210 HD
ENDBRANCH  32  36
BRANCH  33  38
HETATM   38  O7  UNL     1      20.166  11.884  18.256  1.00  0.00    -0.388 OA
ATOM     39  H7  UNL     1      20.843  11.508  17.707  1.00  0.00     0.210 HD
ENDBRANCH  33  38
ENDBRANCH  26  27
ENDBRANCH   3  26
BRANCH   4  40
HETATM   40  N3  UNL     1      20.554   7.432  19.322  1.00  0.00    -0.072 N 
ATOM     41  H33 UNL     1      21.524   7.328  19.024  1.00  0.00     0.274 HD
ATOM     42  H32 UNL     1      20.237   6.476  19.163  1.00  0.00     0.274 HD
ATOM     43  H31 UNL     1      20.052   8.096  18.734  1.00  0.00     0.274 HD
ENDBRANCH   4  40
TORSDOF 13
ENDMDL
MODEL 4
REMARK VINA RESULT: -8.028500987      1.186      3.114
REMARK  13 active torsions:
REMARK  status: ('A' for Active; 'I' for Inactive)
REMARK    1  A    between atoms: N1_2  and  C2_5 
REMARK    2  A    between atoms: C2_5  and  C3_6 
REMARK    3  A    between atoms: C3_6  and  N2_7 
REMARK    4  A    between atoms: N2_7  and  C4_8 
REMARK    5  A    between atoms: C9_14  and  O2_15 
REMARK    6  A    between atoms: O2_15  and  C10_16 
REMARK    7  A    between atoms: C12_18  and  O3_19 
REMARK    8  A    between atoms: O3_19  and  C13_20 
REMARK    9  A    between atoms: C16_24  and  O5_25 
REMARK   10  A    between atoms: C17_27  and  O6_28 
REMARK   11  A    between atoms: C18_30  and  O7_31 
REMARK   12  A    between atoms: C19_33  and  N3_34 
REMARK   13  A    between atoms: C21_39  and  N4_40 
ROOT
HETATM    1  C10 UNL     1      24.652   9.919  22.188  1.00  0.00     0.158 C 
HETATM    2  C11 UNL     1      24.131  10.277  23.572  1.00  0.00     0.068 C 
HETATM    3  C12 UNL     1      25.256  10.483  24.555  1.00  0.00     0.157 C 
HETATM    4  C19 UNL     1      26.405  11.263  24.022  1.00  0.00     0.214 C 
HETATM    5  C20 UNL     1      26.814  10.891  22.627  1.00  0.00     0.070 C 
HETATM    6  C21 UNL     1      26.122   9.588  22.277  1.00  0.00     0.214 C 
ENDROOT
BRANCH   1   7
HETATM    7  O2  UNL     1      23.862   8.987  21.578  1.00  0.00    -0.347 OA
BRANCH   7   8
HETATM    8  C9  UNL     1      23.205   9.417  20.466  1.00  0.00     0.321 C 
HETATM    9  C4  UNL     1      22.039   8.608  20.035  1.00  0.00     0.116 C 
HETATM   10  C5  UNL     1      21.594   8.980  18.627  1.00  0.00     0.076 C 
HETATM   11  C6  UNL     1      22.115  10.346  18.267  1.00  0.00     0.038 C 
HETATM   12  C7  UNL     1      22.379  11.263  19.396  1.00  0.00     0.121 C 
HETATM   13  C8  UNL     1      21.255  12.278  19.602  1.00  0.00     0.040 C 
HETATM   14  O1  UNL     1      22.683  10.713  20.605  1.00  0.00    -0.350 OA
BRANCH   9  15
HETATM   15  N2  UNL     1      21.445   7.762  20.631  1.00  0.00    -0.424 NA
BRANCH  15  16
HETATM   16  C3  UNL     1      20.795   6.834  21.294  1.00  0.00     0.182 C 
BRANCH  16  17
HETATM   17  C2  UNL     1      21.607   5.903  22.200  1.00  0.00     0.290 C 
BRANCH  17  18
HETATM   18  N1  UNL     1      22.513   6.649  23.015  1.00  0.00    -0.074 N 
HETATM   19  C1  UNL     1      21.848   7.266  24.121  1.00  0.00     0.267 C 
ATOM     20  H12 UNL     1      23.031   7.334  22.465  1.00  0.00     0.277 HD
ATOM     21  H11 UNL     1      23.294   6.072  23.327  1.00  0.00     0.277 HD
ENDBRANCH  17  18
ENDBRANCH  16  17
ENDBRANCH  15  16
ENDBRANCH   9  15
ENDBRANCH   7   8
ENDBRANCH   1   7
BRANCH   6  22
HETATM   22  N4  UNL     1      26.676   9.005  21.097  1.00  0.00    -0.072 N 
ATOM     23  H43 UNL     1      27.251   8.198  21.338  1.00  0.00     0.274 HD
ATOM     24  H42 UNL     1      25.946   8.546  20.552  1.00  0.00     0.274 HD
ATOM     25  H41 UNL     1      27.203   9.651  20.508  1.00  0.00     0.274 HD
ENDBRANCH   6  22
BRANCH   3  26
HETATM   26  O3  UNL     1      24.639  11.138  25.650  1.00  0.00    -0.351 OA
BRANCH  26  27
HETATM   27  C13 UNL     1      24.921  10.555  26.851  1.00  0.00     0.292 C 
HETATM   28  O4  UNL     1      26.073  11.068  27.451  1.00  0.00    -0.351 OA
HETATM   29  C14 UNL     1      26.520  10.334  28.512  1.00  0.00     0.152 C 
HETATM   30  C15 UNL     1      27.296  11.311  29.413  1.00  0.00     0.042 C 
HETATM   31  C16 UNL     1      25.517   9.643  29.352  1.00  0.00     0.178 C 
HETATM   32  C17 UNL     1      24.088   9.782  28.996  1.00  0.00     0.183 C 
HETATM   33  C18 UNL     1      23.831  10.794  27.908  1.00  0.00     0.204 C 
BRANCH  31  34
HETATM   34  O5  UNL     1      25.671   9.932  30.724  1.00  0.00    -0.390 OA
ATOM     35  H5  UNL     1      25.935   9.172  31.228  1.00  0.00     0.210 HD
ENDBRANCH  31  34
BRANCH  32  36
HETATM   36  O6  UNL     1      23.330  10.156  30.109  1.00  0.00    -0.390 OA
ATOM     37  H6  UNL     1      23.543  11.040  30.384  1.00  0.00     0.210 HD
ENDBRANCH  32  36
BRANCH  33  38
HETATM   38  O7  UNL     1      24.065  12.060  28.436  1.00  0.00    -0.388 OA
ATOM     39  H7  UNL     1      23.359  12.231  29.048  1.00  0.00     0.210 HD
ENDBRANCH  33  38
ENDBRANCH  26  27
ENDBRANCH   3  26
BRANCH   4  40
HETATM   40  N3  UNL     1      27.610  11.081  24.853  1.00  0.00    -0.072 N 
ATOM     41  H33 UNL     1      28.432  10.888  24.281  1.00  0.00     0.274 HD
ATOM     42  H32 UNL     1      27.912  11.960  25.272  1.00  0.00     0.274 HD
ATOM     43  H31 UNL     1      27.469  10.359  25.559  1.00  0.00     0.274 HD
ENDBRANCH   4  40
TORSDOF 13
ENDMDL
MODEL 5
REMARK VINA RESULT: -7.934723923      2.462      3.059
REMARK  13 active torsions:
REMARK  status: ('A' for Active; 'I' for Inactive)
REMARK    1  A    between atoms: N1_2  and  C2_5 
REMARK    2  A    between atoms: C2_5  and  C3_6 
REMARK    3  A    between atoms: C3_6  and  N2_7 
REMARK    4  A    between atoms: N2_7  and  C4_8 
REMARK    5  A    between atoms: C9_14  and  O2_15 
REMARK    6  A    between atoms: O2_15  and  C10_16 
REMARK    7  A    between atoms: C12_18  and  O3_19 
REMARK    8  A    between atoms: O3_19  and  C13_20 
REMARK    9  A    between atoms: C16_24  and  O5_25 
REMARK   10  A    between atoms: C17_27  and  O6_28 
REMARK   11  A    between atoms: C18_30  and  O7_31 
REMARK   12  A    between atoms: C19_33  and  N3_34 
REMARK   13  A    between atoms: C21_39  and  N4_40 
ROOT
HETATM    1  C10 UNL     1      22.305  10.423  23.908  1.00  0.00     0.158 C 
HETATM    2  C11 UNL     1      22.858   9.770  25.166  1.00  0.00     0.068 C 
HETATM    3  C12 UNL     1      23.121  10.785  26.251  1.00  0.00     0.157 C 
HETATM    4  C19 UNL     1      22.052  11.807  26.411  1.00  0.00     0.214 C 
HETATM    5  C20 UNL     1      21.516  12.353  25.119  1.00  0.00     0.070 C 
HETATM    6  C21 UNL     1      22.458  11.921  24.013  1.00  0.00     0.214 C 
ENDROOT
BRANCH   1   7
HETATM    7  O2  UNL     1      22.808   9.845  22.777  1.00  0.00    -0.347 OA
BRANCH   7   8
HETATM    8  C9  UNL     1      22.114   8.770  22.314  1.00  0.00     0.321 C 
HETATM    9  C4  UNL     1      21.933   8.685  20.844  1.00  0.00     0.116 C 
HETATM   10  C5  UNL     1      20.885   7.646  20.472  1.00  0.00     0.076 C 
HETATM   11  C6  UNL     1      20.688   6.681  21.611  1.00  0.00     0.038 C 
HETATM   12  C7  UNL     1      21.837   6.508  22.525  1.00  0.00     0.121 C 
HETATM   13  C8  UNL     1      22.637   5.240  22.227  1.00  0.00     0.040 C 
HETATM   14  O1  UNL     1      22.712   7.545  22.651  1.00  0.00    -0.350 OA
BRANCH   9  15
HETATM   15  N2  UNL     1      22.488   9.292  19.979  1.00  0.00    -0.424 NA
BRANCH  15  16
HETATM   16  C3  UNL     1      23.106   9.958  19.032  1.00  0.00     0.182 C 
BRANCH  16  17
HETATM   17  C2  UNL     1      22.247  10.665  17.979  1.00  0.00     0.290 C 
BRANCH  17  18
HETATM   18  N1  UNL     1      21.021  11.128  18.551  1.00  0.00    -0.074 N 
HETATM   19  C1  UNL     1      21.115  12.491  18.975  1.00  0.00     0.267 C 
ATOM     20  H12 UNL     1      20.713  10.523  19.312  1.00  0.00     0.277 HD
ATOM     21  H11 UNL     1      20.238  10.992  17.912  1.00  0.00     0.277 HD
ENDBRANCH  17  18
ENDBRANCH  16  17
ENDBRANCH  15  16
ENDBRANCH   9  15
ENDBRANCH   7   8
ENDBRANCH   1   7
BRANCH   6  22
HETATM   22  N4  UNL     1      22.200  12.634  22.802  1.00  0.00    -0.072 N 
ATOM     23  H43 UNL     1      21.210  12.868  22.734  1.00  0.00     0.274 HD
ATOM     24  H42 UNL     1      22.600  13.572  22.852  1.00  0.00     0.274 HD
ATOM     25  H41 UNL     1      22.511  12.162  21.953  1.00  0.00     0.274 HD
ENDBRANCH   6  22
BRANCH   3  26
HETATM   26  O3  UNL     1      23.279  10.003  27.422  1.00  0.00    -0.351 OA
BRANCH  26  27
HETATM   27  C13 UNL     1      24.478  10.202  28.042  1.00  0.00     0.292 C 
HETATM   28  O4  UNL     1      24.770  11.552  28.245  1.00  0.00    -0.351 OA
HETATM   29  C14 UNL     1      26.061  11.790  28.620  1.00  0.00     0.152 C 
HETATM   30  C15 UNL     1      26.041  13.109  29.414  1.00  0.00     0.042 C 
HETATM   31  C16 UNL     1      26.743  10.773  29.450  1.00  0.00     0.178 C 
HETATM   32  C17 UNL     1      25.992   9.555  29.825  1.00  0.00     0.183 C 
HETATM   33  C18 UNL     1      24.530   9.609  29.458  1.00  0.00     0.204 C 
BRANCH  31  34
HETATM   34  O5  UNL     1      27.319  11.324  30.613  1.00  0.00    -0.390 OA
ATOM     35  H5  UNL     1      27.956  10.743  31.014  1.00  0.00     0.210 HD
ENDBRANCH  31  34
BRANCH  32  36
HETATM   36  O6  UNL     1      26.075   9.320  31.200  1.00  0.00    -0.390 OA
ATOM     37  H6  UNL     1      26.494   8.486  31.378  1.00  0.00     0.210 HD
ENDBRANCH  32  36
BRANCH  33  38
HETATM   38  O7  UNL     1      23.912  10.531  30.296  1.00  0.00    -0.388 OA
ATOM     39  H7  UNL     1      23.043  10.677  29.942  1.00  0.00     0.210 HD
ENDBRANCH  33  38
ENDBRANCH  26  27
ENDBRANCH   3  26
BRANCH   4  40
HETATM   40  N3  UNL     1      22.535  12.977  27.167  1.00  0.00    -0.072 N 
ATOM     41  H33 UNL     1      22.866  12.711  28.095  1.00  0.00     0.274 HD
ATOM     42  H32 UNL     1      23.411  13.334  26.785  1.00  0.00     0.274 HD
ATOM     43  H31 UNL     1      21.825  13.706  27.219  1.00  0.00     0.274 HD
ENDBRANCH   4  40
TORSDOF 13
ENDMDL
