MODEL 1
REMARK VINA RESULT: -8.116832242      0.000      0.000
REMARK  11 active torsions:
REMARK  status: ('A' for Active; 'I' for Inactive)
REMARK    1  A    between atoms: O1_2  and  C2_3 
REMARK    2  A    between atoms: C3_5  and  C4_6 
REMARK    3  A    between atoms: C4_6  and  O3_7 
REMARK    4  A    between atoms: O3_7  and  C5_8 
REMARK       I    between atoms: C5_8  and  N1_10 
REMARK    5  A    between atoms: N1_10  and  C6_12 
REMARK    6  A    between atoms: C10_16  and  O5_17 
REMARK    7  A    between atoms: O5_17  and  C11_18 
REMARK    8  A    between atoms: C13_20  and  O6_21 
REMARK    9  A    between atoms: C16_28  and  O7_29 
REMARK   10  A    between atoms: C17_31  and  N3_32 
REMARK       I    between atoms: N3_32  and  C18_34 
REMARK   11  A    between atoms: C20_37  and  O9_38 
ROOT
HETATM    1  C2  UNL     1      20.554  12.078  22.894  1.00  0.00     0.290 C 
HETATM    2  O2  UNL     1      21.778  12.627  23.134  1.00  0.00    -0.349 OA
HETATM    3  C3  UNL     1      22.750  11.789  23.608  1.00  0.00     0.180 C 
HETATM    4  C10 UNL     1      23.011  10.563  22.809  1.00  0.00     0.178 C 
HETATM    5  C17 UNL     1      21.862  10.319  21.851  1.00  0.00     0.149 C 
HETATM    6  C20 UNL     1      20.561  10.627  22.512  1.00  0.00     0.198 C 
ENDROOT
BRANCH   4   7
HETATM    7  O5  UNL     1      24.149  10.615  22.030  1.00  0.00    -0.371 OA
BRANCH   7   8
HETATM    8  C11 UNL     1      24.983   9.554  22.097  1.00  0.00     0.180 C 
HETATM    9  C12 UNL     1      25.523   9.485  23.533  1.00  0.00     0.070 C 
HETATM   10  C13 UNL     1      26.410  10.724  23.716  1.00  0.00     0.151 C 
HETATM   11  C14 UNL     1      27.600  10.512  22.816  1.00  0.00     0.213 C 
HETATM   12  C15 UNL     1      28.678  11.548  23.022  1.00  0.00     0.043 C 
HETATM   13  N2  UNL     1      27.098  10.625  21.444  1.00  0.00    -0.040 N 
HETATM   14  C16 UNL     1      26.148   9.579  21.152  1.00  0.00     0.348 C 
ATOM     15  H22 UNL     1      26.706  11.550  21.262  1.00  0.00     0.280 HD
ATOM     16  H21 UNL     1      27.859  10.642  20.765  1.00  0.00     0.280 HD
BRANCH  10  17
HETATM   17  O6  UNL     1      26.746  10.927  25.035  1.00  0.00    -0.393 OA
ATOM     18  H6  UNL     1      26.304  11.683  25.402  1.00  0.00     0.210 HD
ENDBRANCH  10  17
BRANCH  14  19
HETATM   19  O7  UNL     1      26.823   8.362  21.295  1.00  0.00    -0.368 OA
ATOM     20  H7  UNL     1      27.686   8.559  21.638  1.00  0.00     0.212 HD
ENDBRANCH  14  19
ENDBRANCH   7   8
ENDBRANCH   4   7
BRANCH   3  21
HETATM   21  C4  UNL     1      22.418  11.484  25.073  1.00  0.00     0.215 C 
BRANCH  21  22
HETATM   22  O3  UNL     1      23.042  10.277  25.485  1.00  0.00    -0.301 OA
BRANCH  22  23
HETATM   23  C5  UNL     1      23.435  10.221  26.820  1.00  0.00     0.360 C 
HETATM   24  O4  UNL     1      22.749   9.559  27.669  1.00  0.00    -0.239 OA
HETATM   25  N1  UNL     1      24.585  10.882  27.272  1.00  0.00    -0.332 N 
ATOM     26  H1  UNL     1      25.142  11.414  26.602  1.00  0.00     0.165 HD
BRANCH  25  27
HETATM   27  C6  UNL     1      25.008  10.838  28.639  1.00  0.00     0.086 C 
HETATM   28  C7  UNL     1      26.078   9.784  28.948  1.00  0.00     0.025 C 
HETATM   29  C8  UNL     1      26.646  10.799  29.949  1.00  0.00     0.004 C 
HETATM   30  C9  UNL     1      26.025  11.879  29.055  1.00  0.00     0.025 C 
ENDBRANCH  25  27
ENDBRANCH  22  23
ENDBRANCH  21  22
ENDBRANCH   3  21
BRANCH   5  31
HETATM   31  N3  UNL     1      21.985  11.108  20.639  1.00  0.00    -0.352 N 
HETATM   32  C18 UNL     1      21.674  10.608  19.356  1.00  0.00     0.214 C 
HETATM   33  C19 UNL     1      21.832  11.491  18.177  1.00  0.00     0.117 C 
HETATM   34  O8  UNL     1      21.265   9.440  19.150  1.00  0.00    -0.274 OA
ATOM     35  H3  UNL     1      22.312  12.071  20.718  1.00  0.00     0.163 HD
ENDBRANCH   5  31
BRANCH   6  36
HETATM   36  O9  UNL     1      19.520  10.410  21.582  1.00  0.00    -0.388 OA
ATOM     37  H9  UNL     1      19.097   9.587  21.795  1.00  0.00     0.210 HD
ENDBRANCH   6  36
BRANCH   1  38
HETATM   38  O1  UNL     1      19.648  12.233  23.940  1.00  0.00    -0.363 OA
HETATM   39  C1  UNL     1      18.858  13.364  23.814  1.00  0.00     0.204 C 
ENDBRANCH   1  38
TORSDOF 11
ENDMDL
MODEL 2
REMARK VINA RESULT: -8.075731649      2.145      5.884
REMARK  11 active torsions:
REMARK  status: ('A' for Active; 'I' for Inactive)
REMARK    1  A    between atoms: O1_2  and  C2_3 
REMARK    2  A    between atoms: C3_5  and  C4_6 
REMARK    3  A    between atoms: C4_6  and  O3_7 
REMARK    4  A    between atoms: O3_7  and  C5_8 
REMARK       I    between atoms: C5_8  and  N1_10 
REMARK    5  A    between atoms: N1_10  and  C6_12 
REMARK    6  A    between atoms: C10_16  and  O5_17 
REMARK    7  A    between atoms: O5_17  and  C11_18 
REMARK    8  A    between atoms: C13_20  and  O6_21 
REMARK    9  A    between atoms: C16_28  and  O7_29 
REMARK   10  A    between atoms: C17_31  and  N3_32 
REMARK       I    between atoms: N3_32  and  C18_34 
REMARK   11  A    between atoms: C20_37  and  O9_38 
ROOT
HETATM    1  C2  UNL     1      20.976   9.406  21.758  1.00  0.00     0.290 C 
HETATM    2  O2  UNL     1      20.844   8.821  22.981  1.00  0.00    -0.349 OA
HETATM    3  C3  UNL     1      21.879   8.982  23.861  1.00  0.00     0.180 C 
HETATM    4  C10 UNL     1      22.304  10.381  24.131  1.00  0.00     0.178 C 
HETATM    5  C17 UNL     1      21.746  11.302  23.064  1.00  0.00     0.149 C 
HETATM    6  C20 UNL     1      21.816  10.650  21.725  1.00  0.00     0.198 C 
ENDROOT
BRANCH   4   7
HETATM    7  O5  UNL     1      21.870  10.890  25.337  1.00  0.00    -0.371 OA
BRANCH   7   8
HETATM    8  C11 UNL     1      22.650  11.828  25.919  1.00  0.00     0.180 C 
HETATM    9  C12 UNL     1      23.935  11.127  26.387  1.00  0.00     0.070 C 
HETATM   10  C13 UNL     1      23.516  10.174  27.514  1.00  0.00     0.151 C 
HETATM   11  C14 UNL     1      23.087  11.057  28.658  1.00  0.00     0.213 C 
HETATM   12  C15 UNL     1      22.830  10.281  29.928  1.00  0.00     0.043 C 
HETATM   13  N2  UNL     1      21.835  11.690  28.235  1.00  0.00    -0.040 N 
HETATM   14  C16 UNL     1      22.047  12.544  27.091  1.00  0.00     0.348 C 
ATOM     15  H22 UNL     1      21.105  10.999  28.059  1.00  0.00     0.280 HD
ATOM     16  H21 UNL     1      21.390  12.193  29.003  1.00  0.00     0.280 HD
BRANCH  10  17
HETATM   17  O6  UNL     1      24.521   9.294  27.845  1.00  0.00    -0.393 OA
ATOM     18  H6  UNL     1      25.280   9.394  27.283  1.00  0.00     0.210 HD
ENDBRANCH  10  17
BRANCH  14  19
HETATM   19  O7  UNL     1      22.953  13.534  27.483  1.00  0.00    -0.368 OA
ATOM     20  H7  UNL     1      22.574  14.372  27.247  1.00  0.00     0.212 HD
ENDBRANCH  14  19
ENDBRANCH   7   8
ENDBRANCH   4   7
BRANCH   3  21
HETATM   21  C4  UNL     1      23.032   8.094  23.378  1.00  0.00     0.215 C 
BRANCH  21  22
HETATM   22  O3  UNL     1      24.278   8.751  23.561  1.00  0.00    -0.301 OA
BRANCH  22  23
HETATM   23  C5  UNL     1      25.091   8.836  22.433  1.00  0.00     0.360 C 
HETATM   24  O4  UNL     1      24.749   8.264  21.344  1.00  0.00    -0.239 OA
HETATM   25  N1  UNL     1      26.301   9.543  22.456  1.00  0.00    -0.332 N 
ATOM     26  H1  UNL     1      26.585  10.004  23.321  1.00  0.00     0.165 HD
BRANCH  25  27
HETATM   27  C6  UNL     1      27.153   9.643  21.309  1.00  0.00     0.086 C 
HETATM   28  C7  UNL     1      28.235  10.725  21.405  1.00  0.00     0.025 C 
HETATM   29  C8  UNL     1      29.132   9.756  20.622  1.00  0.00     0.004 C 
HETATM   30  C9  UNL     1      28.279   8.634  21.228  1.00  0.00     0.025 C 
ENDBRANCH  25  27
ENDBRANCH  22  23
ENDBRANCH  21  22
ENDBRANCH   3  21
BRANCH   5  31
HETATM   31  N3  UNL     1      20.374  11.688  23.341  1.00  0.00    -0.352 N 
HETATM   32  C18 UNL     1      19.995  13.006  23.679  1.00  0.00     0.214 C 
HETATM   33  C19 UNL     1      18.568  13.303  23.944  1.00  0.00     0.117 C 
HETATM   34  O8  UNL     1      20.808  13.957  23.771  1.00  0.00    -0.274 OA
ATOM     35  H3  UNL     1      19.648  10.974  23.288  1.00  0.00     0.163 HD
ENDBRANCH   5  31
BRANCH   6  36
HETATM   36  O9  UNL     1      21.266  11.528  20.765  1.00  0.00    -0.388 OA
ATOM     37  H9  UNL     1      21.045  12.343  21.200  1.00  0.00     0.210 HD
ENDBRANCH   6  36
BRANCH   1  38
HETATM   38  O1  UNL     1      21.453   8.551  20.768  1.00  0.00    -0.363 OA
HETATM   39  C1  UNL     1      20.673   7.416  20.608  1.00  0.00     0.204 C 
ENDBRANCH   1  38
TORSDOF 11
ENDMDL
MODEL 3
REMARK VINA RESULT: -8.026481800      3.245      4.049
REMARK  11 active torsions:
REMARK  status: ('A' for Active; 'I' for Inactive)
REMARK    1  A    between atoms: O1_2  and  C2_3 
REMARK    2  A    between atoms: C3_5  and  C4_6 
REMARK    3  A    between atoms: C4_6  and  O3_7 
REMARK    4  A    between atoms: O3_7  and  C5_8 
REMARK       I    between atoms: C5_8  and  N1_10 
REMARK    5  A    between atoms: N1_10  and  C6_12 
REMARK    6  A    between atoms: C10_16  and  O5_17 
REMARK    7  A    between atoms: O5_17  and  C11_18 
REMARK    8  A    between atoms: C13_20  and  O6_21 
REMARK    9  A    between atoms: C16_28  and  O7_29 
REMARK   10  A    between atoms: C17_31  and  N3_32 
REMARK       I    between atoms: N3_32  and  C18_34 
REMARK   11  A    between atoms: C20_37  and  O9_38 
ROOT
HETATM    1  C2  UNL     1      21.824  13.993  22.136  1.00  0.00     0.290 C 
HETATM    2  O2  UNL     1      22.535  13.073  22.846  1.00  0.00    -0.349 OA
HETATM    3  C3  UNL     1      21.831  12.038  23.399  1.00  0.00     0.180 C 
HETATM    4  C10 UNL     1      20.977  11.252  22.471  1.00  0.00     0.178 C 
HETATM    5  C17 UNL     1      20.773  12.023  21.181  1.00  0.00     0.149 C 
HETATM    6  C20 UNL     1      20.584  13.474  21.468  1.00  0.00     0.198 C 
ENDROOT
BRANCH   4   7
HETATM    7  O5  UNL     1      21.500  10.030  22.103  1.00  0.00    -0.371 OA
BRANCH   7   8
HETATM    8  C11 UNL     1      20.683   9.196  21.421  1.00  0.00     0.180 C 
HETATM    9  C12 UNL     1      19.962   8.317  22.454  1.00  0.00     0.070 C 
HETATM   10  C13 UNL     1      21.039   7.423  23.081  1.00  0.00     0.151 C 
HETATM   11  C14 UNL     1      21.487   6.491  21.985  1.00  0.00     0.213 C 
HETATM   12  C15 UNL     1      22.408   5.404  22.485  1.00  0.00     0.043 C 
HETATM   13  N2  UNL     1      22.219   7.318  21.022  1.00  0.00    -0.040 N 
HETATM   14  C16 UNL     1      21.352   8.301  20.419  1.00  0.00     0.348 C 
ATOM     15  H22 UNL     1      23.041   7.750  21.445  1.00  0.00     0.280 HD
ATOM     16  H21 UNL     1      22.688   6.748  20.318  1.00  0.00     0.280 HD
BRANCH  10  17
HETATM   17  O6  UNL     1      20.580   6.773  24.204  1.00  0.00    -0.393 OA
ATOM     18  H6  UNL     1      20.815   5.853  24.203  1.00  0.00     0.210 HD
ENDBRANCH  10  17
BRANCH  14  19
HETATM   19  O7  UNL     1      20.342   7.601  19.751  1.00  0.00    -0.368 OA
ATOM     20  H7  UNL     1      19.513   7.977  20.022  1.00  0.00     0.212 HD
ENDBRANCH  14  19
ENDBRANCH   7   8
ENDBRANCH   4   7
BRANCH   3  21
HETATM   21  C4  UNL     1      21.051  12.600  24.592  1.00  0.00     0.215 C 
BRANCH  21  22
HETATM   22  O3  UNL     1      21.941  13.040  25.608  1.00  0.00    -0.301 OA
BRANCH  22  23
HETATM   23  C5  UNL     1      22.057  12.206  26.718  1.00  0.00     0.360 C 
HETATM   24  O4  UNL     1      21.114  12.137  27.576  1.00  0.00    -0.239 OA
HETATM   25  N1  UNL     1      23.201  11.425  26.929  1.00  0.00    -0.332 N 
ATOM     26  H1  UNL     1      23.961  11.473  26.250  1.00  0.00     0.165 HD
BRANCH  25  27
HETATM   27  C6  UNL     1      23.342  10.562  28.063  1.00  0.00     0.086 C 
HETATM   28  C7  UNL     1      24.355   9.425  27.884  1.00  0.00     0.025 C 
HETATM   29  C8  UNL     1      24.685   9.619  29.370  1.00  0.00     0.004 C 
HETATM   30  C9  UNL     1      24.228  11.071  29.180  1.00  0.00     0.025 C 
ENDBRANCH  25  27
ENDBRANCH  22  23
ENDBRANCH  21  22
ENDBRANCH   3  21
BRANCH   5  31
HETATM   31  N3  UNL     1      21.886  11.855  20.264  1.00  0.00    -0.352 N 
HETATM   32  C18 UNL     1      21.719  11.632  18.880  1.00  0.00     0.214 C 
HETATM   33  C19 UNL     1      22.918  11.472  18.024  1.00  0.00     0.117 C 
HETATM   34  O8  UNL     1      20.599  11.558  18.322  1.00  0.00    -0.274 OA
ATOM     35  H3  UNL     1      22.834  11.901  20.638  1.00  0.00     0.163 HD
ENDBRANCH   5  31
BRANCH   6  36
HETATM   36  O9  UNL     1      20.422  14.159  20.243  1.00  0.00    -0.388 OA
ATOM     37  H9  UNL     1      21.029  14.890  20.230  1.00  0.00     0.210 HD
ENDBRANCH   6  36
BRANCH   1  38
HETATM   38  O1  UNL     1      21.467  15.122  22.867  1.00  0.00    -0.363 OA
HETATM   39  C1  UNL     1      22.133  16.267  22.460  1.00  0.00     0.204 C 
ENDBRANCH   1  38
TORSDOF 11
ENDMDL
MODEL 4
REMARK VINA RESULT: -7.922755927      2.044      5.232
REMARK  11 active torsions:
REMARK  status: ('A' for Active; 'I' for Inactive)
REMARK    1  A    between atoms: O1_2  and  C2_3 
REMARK    2  A    between atoms: C3_5  and  C4_6 
REMARK    3  A    between atoms: C4_6  and  O3_7 
REMARK    4  A    between atoms: O3_7  and  C5_8 
REMARK       I    between atoms: C5_8  and  N1_10 
REMARK    5  A    between atoms: N1_10  and  C6_12 
REMARK    6  A    between atoms: C10_16  and  O5_17 
REMARK    7  A    between atoms: O5_17  and  C11_18 
REMARK    8  A    between atoms: C13_20  and  O6_21 
REMARK    9  A    between atoms: C16_28  and  O7_29 
REMARK   10  A    between atoms: C17_31  and  N3_32 
REMARK       I    between atoms: N3_32  and  C18_34 
REMARK   11  A    between atoms: C20_37  and  O9_38 
ROOT
HETATM    1  C2  UNL     1      26.123  10.276  25.248  1.00  0.00     0.290 C 
HETATM    2  O2  UNL     1      25.099   9.379  25.209  1.00  0.00    -0.349 OA
HETATM    3  C3  UNL     1      23.896   9.831  24.738  1.00  0.00     0.180 C 
HETATM    4  C10 UNL     1      23.913  10.476  23.400  1.00  0.00     0.178 C 
HETATM    5  C17 UNL     1      25.335  10.842  23.023  1.00  0.00     0.149 C 
HETATM    6  C20 UNL     1      26.071  11.361  24.212  1.00  0.00     0.198 C 
ENDROOT
BRANCH   4   7
HETATM    7  O5  UNL     1      23.440   9.685  22.373  1.00  0.00    -0.371 OA
BRANCH   7   8
HETATM    8  C11 UNL     1      22.424  10.185  21.635  1.00  0.00     0.180 C 
HETATM    9  C12 UNL     1      21.115   9.821  22.352  1.00  0.00     0.070 C 
HETATM   10  C13 UNL     1      20.987   8.295  22.258  1.00  0.00     0.151 C 
HETATM   11  C14 UNL     1      20.757   7.992  20.800  1.00  0.00     0.213 C 
HETATM   12  C15 UNL     1      20.408   6.545  20.554  1.00  0.00     0.043 C 
HETATM   13  N2  UNL     1      22.020   8.291  20.119  1.00  0.00    -0.040 N 
HETATM   14  C16 UNL     1      22.343   9.695  20.220  1.00  0.00     0.348 C 
ATOM     15  H22 UNL     1      22.780   7.705  20.463  1.00  0.00     0.280 HD
ATOM     16  H21 UNL     1      22.008   7.977  19.149  1.00  0.00     0.280 HD
BRANCH  10  17
HETATM   17  O6  UNL     1      19.998   7.810  23.083  1.00  0.00    -0.393 OA
ATOM     18  H6  UNL     1      19.341   7.321  22.602  1.00  0.00     0.210 HD
ENDBRANCH  10  17
BRANCH  14  19
HETATM   19  O7  UNL     1      21.307  10.398  19.597  1.00  0.00    -0.368 OA
ATOM     20  H7  UNL     1      21.000   9.865  18.874  1.00  0.00     0.212 HD
ENDBRANCH  14  19
ENDBRANCH   7   8
ENDBRANCH   4   7
BRANCH   3  21
HETATM   21  C4  UNL     1      23.288  10.727  25.823  1.00  0.00     0.215 C 
BRANCH  21  22
HETATM   22  O3  UNL     1      22.564   9.948  26.765  1.00  0.00    -0.301 OA
BRANCH  22  23
HETATM   23  C5  UNL     1      23.035   9.987  28.075  1.00  0.00     0.360 C 
HETATM   24  O4  UNL     1      22.218   9.991  29.056  1.00  0.00    -0.239 OA
HETATM   25  N1  UNL     1      24.407  10.024  28.359  1.00  0.00    -0.332 N 
ATOM     26  H1  UNL     1      25.069  10.021  27.583  1.00  0.00     0.165 HD
BRANCH  25  27
HETATM   27  C6  UNL     1      24.913  10.065  29.698  1.00  0.00     0.086 C 
HETATM   28  C7  UNL     1      25.946   8.981  30.028  1.00  0.00     0.025 C 
HETATM   29  C8  UNL     1      26.627  10.040  30.907  1.00  0.00     0.004 C 
HETATM   30  C9  UNL     1      26.005  11.078  29.966  1.00  0.00     0.025 C 
ENDBRANCH  25  27
ENDBRANCH  22  23
ENDBRANCH  21  22
ENDBRANCH   3  21
BRANCH   5  31
HETATM   31  N3  UNL     1      26.058   9.714  22.463  1.00  0.00    -0.352 N 
HETATM   32  C18 UNL     1      27.154   9.858  21.585  1.00  0.00     0.214 C 
HETATM   33  C19 UNL     1      27.828   8.645  21.066  1.00  0.00     0.117 C 
HETATM   34  O8  UNL     1      27.599  10.969  21.212  1.00  0.00    -0.274 OA
ATOM     35  H3  UNL     1      25.759   8.773  22.716  1.00  0.00     0.163 HD
ENDBRANCH   5  31
BRANCH   6  36
HETATM   36  O9  UNL     1      27.395  11.667  23.825  1.00  0.00    -0.388 OA
ATOM     37  H9  UNL     1      27.903  10.865  23.846  1.00  0.00     0.210 HD
ENDBRANCH   6  36
BRANCH   1  38
HETATM   38  O1  UNL     1      26.295  10.887  26.487  1.00  0.00    -0.363 OA
HETATM   39  C1  UNL     1      27.617  10.911  26.903  1.00  0.00     0.204 C 
ENDBRANCH   1  38
TORSDOF 11
ENDMDL
MODEL 5
REMARK VINA RESULT: -7.796021763      2.731      7.461
REMARK  11 active torsions:
REMARK  status: ('A' for Active; 'I' for Inactive)
REMARK    1  A    between atoms: O1_2  and  C2_3 
REMARK    2  A    between atoms: C3_5  and  C4_6 
REMARK    3  A    between atoms: C4_6  and  O3_7 
REMARK    4  A    between atoms: O3_7  and  C5_8 
REMARK       I    between atoms: C5_8  and  N1_10 
REMARK    5  A    between atoms: N1_10  and  C6_12 
REMARK    6  A    between atoms: C10_16  and  O5_17 
REMARK    7  A    between atoms: O5_17  and  C11_18 
REMARK    8  A    between atoms: C13_20  and  O6_21 
REMARK    9  A    between atoms: C16_28  and  O7_29 
REMARK   10  A    between atoms: C17_31  and  N3_32 
REMARK       I    between atoms: N3_32  and  C18_34 
REMARK   11  A    between atoms: C20_37  and  O9_38 
ROOT
HETATM    1  C2  UNL     1      23.442   7.424  22.579  1.00  0.00     0.290 C 
HETATM    2  O2  UNL     1      23.798   8.459  21.768  1.00  0.00    -0.349 OA
HETATM    3  C3  UNL     1      22.817   9.355  21.439  1.00  0.00     0.180 C 
HETATM    4  C10 UNL     1      22.079   9.971  22.572  1.00  0.00     0.178 C 
HETATM    5  C17 UNL     1      22.317   9.169  23.837  1.00  0.00     0.149 C 
HETATM    6  C20 UNL     1      22.320   7.709  23.535  1.00  0.00     0.198 C 
ENDROOT
BRANCH   4   7
HETATM    7  O5  UNL     1      22.455  11.265  22.867  1.00  0.00    -0.371 OA
BRANCH   7   8
HETATM    8  C11 UNL     1      21.966  12.239  22.068  1.00  0.00     0.180 C 
HETATM    9  C12 UNL     1      22.044  13.557  22.854  1.00  0.00     0.070 C 
HETATM   10  C13 UNL     1      21.044  13.425  24.011  1.00  0.00     0.151 C 
HETATM   11  C14 UNL     1      19.679  13.404  23.372  1.00  0.00     0.213 C 
HETATM   12  C15 UNL     1      18.561  13.479  24.383  1.00  0.00     0.043 C 
HETATM   13  N2  UNL     1      19.582  12.126  22.661  1.00  0.00    -0.040 N 
HETATM   14  C16 UNL     1      20.554  12.050  21.597  1.00  0.00     0.348 C 
ATOM     15  H22 UNL     1      19.660  11.334  23.300  1.00  0.00     0.280 HD
ATOM     16  H21 UNL     1      18.636  11.957  22.319  1.00  0.00     0.280 HD
BRANCH  10  17
HETATM   17  O6  UNL     1      21.200  14.425  24.943  1.00  0.00    -0.393 OA
ATOM     18  H6  UNL     1      20.368  14.805  25.200  1.00  0.00     0.210 HD
ENDBRANCH  10  17
BRANCH  14  19
HETATM   19  O7  UNL     1      20.271  13.092  20.709  1.00  0.00    -0.368 OA
ATOM     20  H7  UNL     1      20.044  12.697  19.876  1.00  0.00     0.212 HD
ENDBRANCH  14  19
ENDBRANCH   7   8
ENDBRANCH   4   7
BRANCH   3  21
HETATM   21  C4  UNL     1      21.890   8.668  20.430  1.00  0.00     0.215 C 
BRANCH  21  22
HETATM   22  O3  UNL     1      22.239   9.034  19.103  1.00  0.00    -0.301 OA
BRANCH  22  23
HETATM   23  C5  UNL     1      21.962  10.350  18.742  1.00  0.00     0.360 C 
HETATM   24  O4  UNL     1      20.755  10.752  18.633  1.00  0.00    -0.239 OA
HETATM   25  N1  UNL     1      22.989  11.270  18.487  1.00  0.00    -0.332 N 
ATOM     26  H1  UNL     1      23.958  10.960  18.571  1.00  0.00     0.165 HD
BRANCH  25  27
HETATM   27  C6  UNL     1      22.728  12.627  18.115  1.00  0.00     0.086 C 
HETATM   28  C7  UNL     1      23.254  13.677  19.101  1.00  0.00     0.025 C 
HETATM   29  C8  UNL     1      23.539  14.546  17.868  1.00  0.00     0.004 C 
HETATM   30  C9  UNL     1      23.668  13.229  17.093  1.00  0.00     0.025 C 
ENDBRANCH  25  27
ENDBRANCH  22  23
ENDBRANCH  21  22
ENDBRANCH   3  21
BRANCH   5  31
HETATM   31  N3  UNL     1      23.567   9.529  24.483  1.00  0.00    -0.352 N 
HETATM   32  C18 UNL     1      23.716   9.613  25.885  1.00  0.00     0.214 C 
HETATM   33  C19 UNL     1      25.032   9.988  26.451  1.00  0.00     0.117 C 
HETATM   34  O8  UNL     1      22.785   9.385  26.694  1.00  0.00    -0.274 OA
ATOM     35  H3  UNL     1      24.376   9.731  23.897  1.00  0.00     0.163 HD
ENDBRANCH   5  31
BRANCH   6  36
HETATM   36  O9  UNL     1      22.568   7.000  24.731  1.00  0.00    -0.388 OA
ATOM     37  H9  UNL     1      21.759   6.963  25.227  1.00  0.00     0.210 HD
ENDBRANCH   6  36
BRANCH   1  38
HETATM   38  O1  UNL     1      23.125   6.252  21.897  1.00  0.00    -0.363 OA
HETATM   39  C1  UNL     1      21.860   5.773  22.198  1.00  0.00     0.204 C 
ENDBRANCH   1  38
TORSDOF 11
ENDMDL
