MODEL 1
REMARK VINA RESULT: -8.950142557      0.000      0.000
REMARK  10 active torsions:
REMARK  status: ('A' for Active; 'I' for Inactive)
REMARK    1  A    between atoms: C3_3  and  C4_4 
REMARK    2  A    between atoms: C5_5  and  C6_6 
REMARK    3  A    between atoms: C8_9  and  O2_10 
REMARK    4  A    between atoms: O2_10  and  C9_11 
REMARK    5  A    between atoms: C10_13  and  O4_14 
REMARK    6  A    between atoms: C13_19  and  O5_20 
REMARK    7  A    between atoms: C14_22  and  O6_23 
REMARK    8  A    between atoms: C17_28  and  C18_29 
REMARK    9  A    between atoms: C19_32  and  O10_33 
REMARK   10  A    between atoms: C19_32  and  C20_35 
ROOT
HETATM    1  C6  UNL     1      23.563   9.287  21.999  1.00  0.00     0.157 C 
HETATM    2  O1  UNL     1      23.243  10.589  22.359  1.00  0.00    -0.358 OA
HETATM    3  C7  UNL     1      21.941  10.453  21.937  1.00  0.00     0.193 C 
HETATM    4  C8  UNL     1      21.276  11.569  21.231  1.00  0.00     0.188 C 
HETATM    5  C13 UNL     1      21.988  11.932  19.986  1.00  0.00     0.178 C 
HETATM    6  C14 UNL     1      22.297  10.804  19.081  1.00  0.00     0.152 C 
HETATM    7  C15 UNL     1      22.520   9.475  19.667  1.00  0.00     0.079 C 
HETATM    8  C16 UNL     1      22.356   9.297  21.110  1.00  0.00     0.131 C 
HETATM    9  O7  UNL     1      21.617   8.154  21.408  1.00  0.00    -0.354 OA
HETATM   10  C17 UNL     1      21.797   7.842  22.731  1.00  0.00     0.272 C 
HETATM   11  C19 UNL     1      23.222   8.206  23.004  1.00  0.00     0.220 C 
ENDROOT
BRANCH   4  12
HETATM   12  O2  UNL     1      21.163  12.672  22.080  1.00  0.00    -0.348 OA
BRANCH  12  13
HETATM   13  C9  UNL     1      20.751  12.325  23.344  1.00  0.00     0.297 C 
HETATM   14  O3  UNL     1      21.753  12.549  24.278  1.00  0.00    -0.329 OA
HETATM   15  C10 UNL     1      21.124  12.728  25.502  1.00  0.00     0.263 C 
HETATM   16  C11 UNL     1      19.792  13.342  25.240  1.00  0.00     0.103 C 
HETATM   17  C12 UNL     1      19.522  13.016  23.808  1.00  0.00     0.230 C 
HETATM   18  F1  UNL     1      19.243  14.177  23.112  1.00  0.00    -0.244 F 
BRANCH  15  19
HETATM   19  O4  UNL     1      21.859  13.471  26.397  1.00  0.00    -0.371 OA
ATOM     20  H4  UNL     1      21.520  13.444  27.283  1.00  0.00     0.212 HD
ENDBRANCH  15  19
ENDBRANCH  12  13
ENDBRANCH   4  12
BRANCH   5  21
HETATM   21  O5  UNL     1      23.109  12.763  20.234  1.00  0.00    -0.390 OA
ATOM     22  H5  UNL     1      23.748  12.342  20.797  1.00  0.00     0.210 HD
ENDBRANCH   5  21
BRANCH   6  23
HETATM   23  O6  UNL     1      23.371  11.211  18.250  1.00  0.00    -0.393 OA
ATOM     24  H6  UNL     1      24.135  11.314  18.805  1.00  0.00     0.210 HD
ENDBRANCH   6  23
BRANCH   1  25
HETATM   25  C5  UNL     1      24.867   9.065  21.390  1.00  0.00     0.018 C 
HETATM   26  C4  UNL     1      25.958   9.708  21.707  1.00  0.00    -0.001 C 
BRANCH  26  27
HETATM   27  C3  UNL     1      27.234   9.430  21.054  1.00  0.00    -0.005 C 
HETATM   28  C2  UNL     1      28.320  10.128  21.294  1.00  0.00    -0.031 C 
HETATM   29  C1  UNL     1      28.310  11.263  22.259  1.00  0.00     0.036 C 
ENDBRANCH  26  27
ENDBRANCH   1  25
BRANCH  11  30
HETATM   30  O10 UNL     1      23.973   7.069  22.584  1.00  0.00    -0.373 OA
ATOM     31  H10 UNL     1      23.392   6.330  22.718  1.00  0.00     0.211 HD
ENDBRANCH  11  30
BRANCH  11  32
HETATM   32  C20 UNL     1      23.564   8.504  24.381  1.00  0.00     0.216 C 
HETATM   33  O11 UNL     1      22.719   8.489  25.311  1.00  0.00    -0.646 OA
HETATM   34  O12 UNL     1      24.867   8.828  24.758  1.00  0.00    -0.646 OA
ENDBRANCH  11  32
BRANCH  10  35
HETATM   35  C18 UNL     1      21.629   6.367  22.913  1.00  0.00     0.207 C 
HETATM   36  O8  UNL     1      21.282   5.828  23.997  1.00  0.00    -0.646 OA
HETATM   37  O9  UNL     1      21.867   5.548  21.833  1.00  0.00    -0.646 OA
ENDBRANCH  10  35
TORSDOF 10
ENDMDL
MODEL 2
REMARK VINA RESULT: -8.705380090      2.549      6.362
REMARK  10 active torsions:
REMARK  status: ('A' for Active; 'I' for Inactive)
REMARK    1  A    between atoms: C3_3  and  C4_4 
REMARK    2  A    between atoms: C5_5  and  C6_6 
REMARK    3  A    between atoms: C8_9  and  O2_10 
REMARK    4  A    between atoms: O2_10  and  C9_11 
REMARK    5  A    between atoms: C10_13  and  O4_14 
REMARK    6  A    between atoms: C13_19  and  O5_20 
REMARK    7  A    between atoms: C14_22  and  O6_23 
REMARK    8  A    between atoms: C17_28  and  C18_29 
REMARK    9  A    between atoms: C19_32  and  O10_33 
REMARK   10  A    between atoms: C19_32  and  C20_35 
ROOT
HETATM    1  C6  UNL     1      21.794  10.365  22.363  1.00  0.00     0.157 C 
HETATM    2  O1  UNL     1      23.035  10.976  22.248  1.00  0.00    -0.358 OA
HETATM    3  C7  UNL     1      23.704   9.778  22.332  1.00  0.00     0.193 C 
HETATM    4  C8  UNL     1      24.958   9.687  23.109  1.00  0.00     0.188 C 
HETATM    5  C13 UNL     1      24.749  10.044  24.530  1.00  0.00     0.178 C 
HETATM    6  C14 UNL     1      23.626   9.353  25.198  1.00  0.00     0.152 C 
HETATM    7  C15 UNL     1      22.469   8.949  24.388  1.00  0.00     0.079 C 
HETATM    8  C16 UNL     1      22.498   9.175  22.943  1.00  0.00     0.131 C 
HETATM    9  O7  UNL     1      22.061   8.056  22.237  1.00  0.00    -0.354 OA
HETATM   10  C17 UNL     1      21.768   8.430  20.951  1.00  0.00     0.272 C 
HETATM   11  C19 UNL     1      21.197   9.805  21.089  1.00  0.00     0.220 C 
ENDROOT
BRANCH   4  12
HETATM   12  O2  UNL     1      25.938  10.495  22.531  1.00  0.00    -0.348 OA
BRANCH  12  13
HETATM   13  C9  UNL     1      27.146   9.852  22.405  1.00  0.00     0.297 C 
HETATM   14  O3  UNL     1      27.303   9.320  21.133  1.00  0.00    -0.329 OA
HETATM   15  C10 UNL     1      28.669   9.217  20.910  1.00  0.00     0.263 C 
HETATM   16  C11 UNL     1      29.335  10.314  21.667  1.00  0.00     0.103 C 
HETATM   17  C12 UNL     1      28.332  10.693  22.705  1.00  0.00     0.230 C 
HETATM   18  F1  UNL     1      28.079  12.051  22.633  1.00  0.00    -0.244 F 
BRANCH  15  19
HETATM   19  O4  UNL     1      29.014   9.235  19.578  1.00  0.00    -0.371 OA
ATOM     20  H4  UNL     1      28.592   9.930  19.086  1.00  0.00     0.212 HD
ENDBRANCH  15  19
ENDBRANCH  12  13
ENDBRANCH   4  12
BRANCH   5  21
HETATM   21  O5  UNL     1      24.731  11.447  24.730  1.00  0.00    -0.390 OA
ATOM     22  H5  UNL     1      24.171  11.891  24.104  1.00  0.00     0.210 HD
ENDBRANCH   5  21
BRANCH   6  23
HETATM   23  O6  UNL     1      23.251  10.141  26.316  1.00  0.00    -0.393 OA
ATOM     24  H6  UNL     1      22.318  10.020  26.446  1.00  0.00     0.210 HD
ENDBRANCH   6  23
BRANCH   1  25
HETATM   25  C5  UNL     1      20.791  11.038  23.177  1.00  0.00     0.018 C 
HETATM   26  C4  UNL     1      20.764  12.321  23.417  1.00  0.00    -0.001 C 
BRANCH  26  27
HETATM   27  C3  UNL     1      19.724  12.929  24.243  1.00  0.00    -0.005 C 
HETATM   28  C2  UNL     1      19.924  13.272  25.495  1.00  0.00    -0.031 C 
HETATM   29  C1  UNL     1      21.243  13.056  26.153  1.00  0.00     0.036 C 
ENDBRANCH  26  27
ENDBRANCH   1  25
BRANCH  11  30
HETATM   30  O10 UNL     1      19.819   9.596  21.393  1.00  0.00    -0.373 OA
ATOM     31  H10 UNL     1      19.387   9.552  20.548  1.00  0.00     0.211 HD
ENDBRANCH  11  30
BRANCH  11  32
HETATM   32  C20 UNL     1      21.288  10.666  19.926  1.00  0.00     0.216 C 
HETATM   33  O11 UNL     1      20.402  11.507  19.629  1.00  0.00    -0.646 OA
HETATM   34  O12 UNL     1      22.378  10.609  19.058  1.00  0.00    -0.646 OA
ENDBRANCH  11  32
BRANCH  10  35
HETATM   35  C18 UNL     1      20.715   7.519  20.405  1.00  0.00     0.207 C 
HETATM   36  O8  UNL     1      20.464   7.391  19.177  1.00  0.00    -0.646 OA
HETATM   37  O9  UNL     1      19.974   6.775  21.295  1.00  0.00    -0.646 OA
ENDBRANCH  10  35
TORSDOF 10
ENDMDL
MODEL 3
REMARK VINA RESULT: -8.642887867      2.276      4.266
REMARK  10 active torsions:
REMARK  status: ('A' for Active; 'I' for Inactive)
REMARK    1  A    between atoms: C3_3  and  C4_4 
REMARK    2  A    between atoms: C5_5  and  C6_6 
REMARK    3  A    between atoms: C8_9  and  O2_10 
REMARK    4  A    between atoms: O2_10  and  C9_11 
REMARK    5  A    between atoms: C10_13  and  O4_14 
REMARK    6  A    between atoms: C13_19  and  O5_20 
REMARK    7  A    between atoms: C14_22  and  O6_23 
REMARK    8  A    between atoms: C17_28  and  C18_29 
REMARK    9  A    between atoms: C19_32  and  O10_33 
REMARK   10  A    between atoms: C19_32  and  C20_35 
ROOT
HETATM    1  C6  UNL     1      22.427  10.316  21.609  1.00  0.00     0.157 C 
HETATM    2  O1  UNL     1      23.076  11.118  22.537  1.00  0.00    -0.358 OA
HETATM    3  C7  UNL     1      22.313  10.642  23.576  1.00  0.00     0.193 C 
HETATM    4  C8  UNL     1      21.839  11.569  24.627  1.00  0.00     0.188 C 
HETATM    5  C13 UNL     1      20.994  12.646  24.068  1.00  0.00     0.178 C 
HETATM    6  C14 UNL     1      19.897  12.197  23.183  1.00  0.00     0.152 C 
HETATM    7  C15 UNL     1      20.082  10.962  22.409  1.00  0.00     0.079 C 
HETATM    8  C16 UNL     1      21.306  10.182  22.594  1.00  0.00     0.131 C 
HETATM    9  O7  UNL     1      21.036   8.821  22.725  1.00  0.00    -0.354 OA
HETATM   10  C17 UNL     1      22.197   8.118  22.534  1.00  0.00     0.272 C 
HETATM   11  C19 UNL     1      22.926   8.892  21.482  1.00  0.00     0.220 C 
ENDROOT
BRANCH   4  12
HETATM   12  O2  UNL     1      22.928  12.099  25.322  1.00  0.00    -0.348 OA
BRANCH  12  13
HETATM   13  C9  UNL     1      23.264  11.352  26.425  1.00  0.00     0.297 C 
HETATM   14  O3  UNL     1      24.596  10.963  26.383  1.00  0.00    -0.329 OA
HETATM   15  C10 UNL     1      24.989  10.744  27.695  1.00  0.00     0.263 C 
HETATM   16  C11 UNL     1      24.203  11.666  28.563  1.00  0.00     0.103 C 
HETATM   17  C12 UNL     1      23.019  12.021  27.727  1.00  0.00     0.230 C 
HETATM   18  F1  UNL     1      22.914  13.397  27.631  1.00  0.00    -0.244 F 
BRANCH  15  19
HETATM   19  O4  UNL     1      26.343  10.886  27.897  1.00  0.00    -0.371 OA
ATOM     20  H4  UNL     1      26.648  10.506  28.712  1.00  0.00     0.212 HD
ENDBRANCH  15  19
ENDBRANCH  12  13
ENDBRANCH   4  12
BRANCH   5  21
HETATM   21  O5  UNL     1      21.767  13.691  23.500  1.00  0.00    -0.390 OA
ATOM     22  H5  UNL     1      22.672  13.435  23.368  1.00  0.00     0.210 HD
ENDBRANCH   5  21
BRANCH   6  23
HETATM   23  O6  UNL     1      19.539  13.296  22.363  1.00  0.00    -0.393 OA
ATOM     24  H6  UNL     1      19.619  13.014  21.460  1.00  0.00     0.210 HD
ENDBRANCH   6  23
BRANCH   1  25
HETATM   25  C5  UNL     1      22.137  10.903  20.307  1.00  0.00     0.018 C 
HETATM   26  C4  UNL     1      22.613  12.041  19.879  1.00  0.00    -0.001 C 
BRANCH  26  27
HETATM   27  C3  UNL     1      22.279  12.567  18.558  1.00  0.00    -0.005 C 
HETATM   28  C2  UNL     1      21.620  13.691  18.390  1.00  0.00    -0.031 C 
HETATM   29  C1  UNL     1      21.168  14.502  19.555  1.00  0.00     0.036 C 
ENDBRANCH  26  27
ENDBRANCH   1  25
BRANCH  11  30
HETATM   30  O10 UNL     1      22.384   8.424  20.248  1.00  0.00    -0.373 OA
ATOM     31  H10 UNL     1      22.716   7.539  20.156  1.00  0.00     0.211 HD
ENDBRANCH  11  30
BRANCH  11  32
HETATM   32  C20 UNL     1      24.367   8.736  21.442  1.00  0.00     0.216 C 
HETATM   33  O11 UNL     1      25.011   8.128  22.334  1.00  0.00    -0.646 OA
HETATM   34  O12 UNL     1      25.131   9.260  20.400  1.00  0.00    -0.646 OA
ENDBRANCH  11  32
BRANCH  10  35
HETATM   35  C18 UNL     1      21.865   6.762  21.998  1.00  0.00     0.207 C 
HETATM   36  O8  UNL     1      22.722   5.866  21.775  1.00  0.00    -0.646 OA
HETATM   37  O9  UNL     1      20.546   6.473  21.732  1.00  0.00    -0.646 OA
ENDBRANCH  10  35
TORSDOF 10
ENDMDL
MODEL 4
REMARK VINA RESULT: -8.614794708      2.816      5.877
REMARK  10 active torsions:
REMARK  status: ('A' for Active; 'I' for Inactive)
REMARK    1  A    between atoms: C3_3  and  C4_4 
REMARK    2  A    between atoms: C5_5  and  C6_6 
REMARK    3  A    between atoms: C8_9  and  O2_10 
REMARK    4  A    between atoms: O2_10  and  C9_11 
REMARK    5  A    between atoms: C10_13  and  O4_14 
REMARK    6  A    between atoms: C13_19  and  O5_20 
REMARK    7  A    between atoms: C14_22  and  O6_23 
REMARK    8  A    between atoms: C17_28  and  C18_29 
REMARK    9  A    between atoms: C19_32  and  O10_33 
REMARK   10  A    between atoms: C19_32  and  C20_35 
ROOT
HETATM    1  C6  UNL     1      22.179  10.685  21.739  1.00  0.00     0.157 C 
HETATM    2  O1  UNL     1      22.327   9.819  22.813  1.00  0.00    -0.358 OA
HETATM    3  C7  UNL     1      23.357  10.555  23.348  1.00  0.00     0.193 C 
HETATM    4  C8  UNL     1      24.521   9.868  23.947  1.00  0.00     0.188 C 
HETATM    5  C13 UNL     1      25.213   9.005  22.965  1.00  0.00     0.178 C 
HETATM    6  C14 UNL     1      25.547   9.651  21.678  1.00  0.00     0.152 C 
HETATM    7  C15 UNL     1      24.680  10.731  21.189  1.00  0.00     0.079 C 
HETATM    8  C16 UNL     1      23.565  11.181  22.023  1.00  0.00     0.131 C 
HETATM    9  O7  UNL     1      23.498  12.572  22.088  1.00  0.00    -0.354 OA
HETATM   10  C17 UNL     1      22.263  12.934  22.562  1.00  0.00     0.272 C 
HETATM   11  C19 UNL     1      21.333  11.918  21.978  1.00  0.00     0.220 C 
ENDROOT
BRANCH   4  12
HETATM   12  O2  UNL     1      24.118   9.132  25.063  1.00  0.00    -0.348 OA
BRANCH  12  13
HETATM   13  C9  UNL     1      24.207   9.851  26.230  1.00  0.00     0.297 C 
HETATM   14  O3  UNL     1      22.979   9.919  26.874  1.00  0.00    -0.329 OA
HETATM   15  C10 UNL     1      23.245  10.126  28.220  1.00  0.00     0.263 C 
HETATM   16  C11 UNL     1      24.546   9.468  28.529  1.00  0.00     0.103 C 
HETATM   17  C12 UNL     1      25.210   9.341  27.199  1.00  0.00     0.230 C 
HETATM   18  F1  UNL     1      25.569   8.024  26.982  1.00  0.00    -0.244 F 
BRANCH  15  19
HETATM   19  O4  UNL     1      22.242   9.689  29.055  1.00  0.00    -0.371 OA
ATOM     20  H4  UNL     1      21.925  10.357  29.650  1.00  0.00     0.212 HD
ENDBRANCH  15  19
ENDBRANCH  12  13
ENDBRANCH   4  12
BRANCH   5  21
HETATM   21  O5  UNL     1      24.563   7.755  22.803  1.00  0.00    -0.390 OA
ATOM     22  H5  UNL     1      24.962   7.073  23.331  1.00  0.00     0.210 HD
ENDBRANCH   5  21
BRANCH   6  23
HETATM   23  O6  UNL     1      25.713   8.620  20.718  1.00  0.00    -0.393 OA
ATOM     24  H6  UNL     1      25.301   8.913  19.914  1.00  0.00     0.210 HD
ENDBRANCH   6  23
BRANCH   1  25
HETATM   25  C5  UNL     1      21.911  10.093  20.436  1.00  0.00     0.018 C 
HETATM   26  C4  UNL     1      21.531   8.859  20.241  1.00  0.00    -0.001 C 
BRANCH  26  27
HETATM   27  C3  UNL     1      21.278   8.333  18.902  1.00  0.00    -0.005 C 
HETATM   28  C2  UNL     1      20.534   7.273  18.687  1.00  0.00    -0.031 C 
HETATM   29  C1  UNL     1      19.899   6.534  19.814  1.00  0.00     0.036 C 
ENDBRANCH  26  27
ENDBRANCH   1  25
BRANCH  11  30
HETATM   30  O10 UNL     1      21.030  12.411  20.675  1.00  0.00    -0.373 OA
ATOM     31  H10 UNL     1      20.470  13.164  20.824  1.00  0.00     0.211 HD
ENDBRANCH  11  30
BRANCH  11  32
HETATM   32  C20 UNL     1      20.089  11.693  22.689  1.00  0.00     0.216 C 
HETATM   33  O11 UNL     1      19.125  11.058  22.191  1.00  0.00    -0.646 OA
HETATM   34  O12 UNL     1      19.887  12.177  23.981  1.00  0.00    -0.646 OA
ENDBRANCH  11  32
BRANCH  10  35
HETATM   35  C18 UNL     1      21.909  14.283  22.023  1.00  0.00     0.207 C 
HETATM   36  O8  UNL     1      20.942  14.975  22.440  1.00  0.00    -0.646 OA
HETATM   37  O9  UNL     1      22.684  14.803  21.010  1.00  0.00    -0.646 OA
ENDBRANCH  10  35
TORSDOF 10
ENDMDL
MODEL 5
REMARK VINA RESULT: -8.522808388      2.455      5.501
REMARK  10 active torsions:
REMARK  status: ('A' for Active; 'I' for Inactive)
REMARK    1  A    between atoms: C3_3  and  C4_4 
REMARK    2  A    between atoms: C5_5  and  C6_6 
REMARK    3  A    between atoms: C8_9  and  O2_10 
REMARK    4  A    between atoms: O2_10  and  C9_11 
REMARK    5  A    between atoms: C10_13  and  O4_14 
REMARK    6  A    between atoms: C13_19  and  O5_20 
REMARK    7  A    between atoms: C14_22  and  O6_23 
REMARK    8  A    between atoms: C17_28  and  C18_29 
REMARK    9  A    between atoms: C19_32  and  O10_33 
REMARK   10  A    between atoms: C19_32  and  C20_35 
ROOT
HETATM    1  C6  UNL     1      23.825  10.485  22.365  1.00  0.00     0.157 C 
HETATM    2  O1  UNL     1      23.841   9.168  22.803  1.00  0.00    -0.358 OA
HETATM    3  C7  UNL     1      22.670   9.321  23.507  1.00  0.00     0.193 C 
HETATM    4  C8  UNL     1      22.521   8.689  24.835  1.00  0.00     0.188 C 
HETATM    5  C13 UNL     1      23.541   9.174  25.791  1.00  0.00     0.178 C 
HETATM    6  C14 UNL     1      23.675  10.644  25.883  1.00  0.00     0.152 C 
HETATM    7  C15 UNL     1      23.372  11.452  24.694  1.00  0.00     0.079 C 
HETATM    8  C16 UNL     1      22.878  10.786  23.488  1.00  0.00     0.131 C 
HETATM    9  O7  UNL     1      21.789  11.459  22.937  1.00  0.00    -0.354 OA
HETATM   10  C17 UNL     1      21.601  11.020  21.652  1.00  0.00     0.272 C 
HETATM   11  C19 UNL     1      22.986  10.778  21.140  1.00  0.00     0.220 C 
ENDROOT
BRANCH   4  12
HETATM   12  O2  UNL     1      22.573   7.300  24.712  1.00  0.00    -0.348 OA
BRANCH  12  13
HETATM   13  C9  UNL     1      21.541   6.797  23.959  1.00  0.00     0.297 C 
HETATM   14  O3  UNL     1      20.775   7.817  23.410  1.00  0.00    -0.329 OA
HETATM   15  C10 UNL     1      20.168   7.294  22.277  1.00  0.00     0.263 C 
HETATM   16  C11 UNL     1      21.080   6.260  21.712  1.00  0.00     0.103 C 
HETATM   17  C12 UNL     1      21.957   5.889  22.861  1.00  0.00     0.230 C 
HETATM   18  F1  UNL     1      23.284   6.032  22.498  1.00  0.00    -0.244 F 
BRANCH  15  19
HETATM   19  O4  UNL     1      19.835   8.246  21.341  1.00  0.00    -0.371 OA
ATOM     20  H4  UNL     1      20.238   9.091  21.498  1.00  0.00     0.212 HD
ENDBRANCH  15  19
ENDBRANCH  12  13
ENDBRANCH   4  12
BRANCH   5  21
HETATM   21  O5  UNL     1      24.786   8.517  25.622  1.00  0.00    -0.390 OA
ATOM     22  H5  UNL     1      24.784   7.936  24.869  1.00  0.00     0.210 HD
ENDBRANCH   5  21
BRANCH   6  23
HETATM   23  O6  UNL     1      24.965  10.919  26.404  1.00  0.00    -0.393 OA
ATOM     24  H6  UNL     1      25.334  11.626  25.888  1.00  0.00     0.210 HD
ENDBRANCH   6  23
BRANCH   1  25
HETATM   25  C5  UNL     1      25.098  11.192  22.328  1.00  0.00     0.018 C 
HETATM   26  C4  UNL     1      26.265  10.635  22.509  1.00  0.00    -0.001 C 
BRANCH  26  27
HETATM   27  C3  UNL     1      27.504  11.408  22.455  1.00  0.00    -0.005 C 
HETATM   28  C2  UNL     1      28.533  11.046  21.725  1.00  0.00    -0.031 C 
HETATM   29  C1  UNL     1      28.496   9.805  20.901  1.00  0.00     0.036 C 
ENDBRANCH  26  27
ENDBRANCH   1  25
BRANCH  11  30
HETATM   30  O10 UNL     1      23.432  12.055  20.688  1.00  0.00    -0.373 OA
ATOM     31  H10 UNL     1      23.664  11.924  19.776  1.00  0.00     0.211 HD
ENDBRANCH  11  30
BRANCH  11  32
HETATM   32  C20 UNL     1      23.119   9.830  20.050  1.00  0.00     0.216 C 
HETATM   33  O11 UNL     1      24.143   9.766  19.324  1.00  0.00    -0.646 OA
HETATM   34  O12 UNL     1      22.104   8.924  19.741  1.00  0.00    -0.646 OA
ENDBRANCH  11  32
BRANCH  10  35
HETATM   35  C18 UNL     1      20.970  12.112  20.849  1.00  0.00     0.207 C 
HETATM   36  O8  UNL     1      20.911  13.314  21.223  1.00  0.00    -0.646 OA
HETATM   37  O9  UNL     1      20.419  11.789  19.630  1.00  0.00    -0.646 OA
ENDBRANCH  10  35
TORSDOF 10
ENDMDL
