MODEL 1
REMARK VINA RESULT: -7.703237764      0.000      0.000
REMARK  11 active torsions:
REMARK  status: ('A' for Active; 'I' for Inactive)
REMARK    1  A    between atoms: C2_2  and  C3_3 
REMARK    2  A    between atoms: C6_7  and  O2_8 
REMARK    3  A    between atoms: O2_8  and  C7_9 
REMARK    4  A    between atoms: C8_11  and  C9_12 
REMARK    5  A    between atoms: C9_12  and  N1_13 
REMARK    6  A    between atoms: C12_19  and  N2_20 
REMARK    7  A    between atoms: C13_24  and  O4_25 
REMARK    8  A    between atoms: O4_25  and  C14_26 
REMARK    9  A    between atoms: C15_27  and  N3_28 
REMARK   10  A    between atoms: C17_33  and  N4_34 
REMARK   11  A    between atoms: C20_40  and  N5_41 
ROOT
HETATM    1  C3  UNL     1      26.736  11.044  22.879  1.00  0.00     0.157 C 
HETATM    2  O1  UNL     1      27.043   9.690  22.762  1.00  0.00    -0.351 OA
HETATM    3  C4  UNL     1      26.061   9.087  21.994  1.00  0.00     0.324 C 
HETATM    4  C5  UNL     1      25.045   8.459  22.963  1.00  0.00     0.096 C 
HETATM    5  C6  UNL     1      24.884   9.505  24.093  1.00  0.00     0.160 C 
HETATM    6  C13 UNL     1      24.395  10.805  23.521  1.00  0.00     0.184 C 
HETATM    7  C22 UNL     1      25.315  11.176  22.368  1.00  0.00     0.248 C 
HETATM    8  N6  UNL     1      25.339  10.146  21.328  1.00  0.00    -0.040 N 
ATOM      9  H61 UNL     1      24.428   9.884  20.952  1.00  0.00     0.280 HD
ATOM     10  H62 UNL     1      25.726  10.440  20.431  1.00  0.00     0.280 HD
ENDROOT
BRANCH   6  11
HETATM   11  O4  UNL     1      23.060  10.667  23.173  1.00  0.00    -0.372 OA
BRANCH  11  12
HETATM   12  C14 UNL     1      22.369  11.811  22.944  1.00  0.00     0.183 C 
HETATM   13  C15 UNL     1      21.346  12.166  24.027  1.00  0.00     0.216 C 
HETATM   14  C16 UNL     1      20.027  12.575  23.448  1.00  0.00     0.068 C 
HETATM   15  C17 UNL     1      20.069  13.541  22.338  1.00  0.00     0.191 C 
HETATM   16  C18 UNL     1      21.324  13.432  21.542  1.00  0.00     0.045 C 
HETATM   17  C19 UNL     1      21.171  13.875  20.116  1.00  0.00     0.014 C 
HETATM   18  C20 UNL     1      21.717  11.943  21.613  1.00  0.00     0.221 C 
BRANCH  13  19
HETATM   19  N3  UNL     1      21.860  13.223  24.855  1.00  0.00    -0.072 N 
ATOM     20  H33 UNL     1      22.833  13.443  24.638  1.00  0.00     0.274 HD
ATOM     21  H32 UNL     1      21.449  14.127  24.622  1.00  0.00     0.274 HD
ATOM     22  H31 UNL     1      21.731  12.985  25.839  1.00  0.00     0.274 HD
ENDBRANCH  13  19
BRANCH  15  23
HETATM   23  N4  UNL     1      19.815  14.902  22.791  1.00  0.00    -0.075 N 
ATOM     24  H43 UNL     1      19.104  15.357  22.218  1.00  0.00     0.274 HD
ATOM     25  H42 UNL     1      19.327  14.909  23.687  1.00  0.00     0.274 HD
ATOM     26  H41 UNL     1      20.670  15.456  22.831  1.00  0.00     0.274 HD
ENDBRANCH  15  23
BRANCH  18  27
HETATM   27  N5  UNL     1      22.310  11.478  20.443  1.00  0.00    -0.072 N 
HETATM   28  C21 UNL     1      21.772  10.213  20.020  1.00  0.00     0.267 C 
ATOM     29  H52 UNL     1      22.247  12.172  19.698  1.00  0.00     0.277 HD
ATOM     30  H51 UNL     1      23.325  11.433  20.539  1.00  0.00     0.277 HD
ENDBRANCH  18  27
ENDBRANCH  11  12
ENDBRANCH   6  11
BRANCH   5  31
HETATM   31  O2  UNL     1      24.115   8.935  25.065  1.00  0.00    -0.351 OA
BRANCH  31  32
HETATM   32  C7  UNL     1      24.292   9.529  26.316  1.00  0.00     0.291 C 
HETATM   33  O3  UNL     1      23.114   9.500  27.029  1.00  0.00    -0.352 OA
HETATM   34  C8  UNL     1      23.157  10.272  28.180  1.00  0.00     0.150 C 
HETATM   35  C10 UNL     1      24.444  10.146  28.950  1.00  0.00     0.036 C 
HETATM   36  C11 UNL     1      25.077   8.807  28.546  1.00  0.00     0.040 C 
HETATM   37  C12 UNL     1      25.456   8.987  27.077  1.00  0.00     0.238 C 
BRANCH  34  38
HETATM   38  C9  UNL     1      22.911  11.737  27.899  1.00  0.00     0.261 C 
BRANCH  38  39
HETATM   39  N1  UNL     1      21.508  12.005  28.140  1.00  0.00    -0.077 N 
ATOM     40  H13 UNL     1      20.892  11.483  27.517  1.00  0.00     0.274 HD
ATOM     41  H12 UNL     1      21.175  11.611  29.020  1.00  0.00     0.274 HD
ATOM     42  H11 UNL     1      21.368  13.014  28.081  1.00  0.00     0.274 HD
ENDBRANCH  38  39
ENDBRANCH  34  38
BRANCH  37  43
HETATM   43  N2  UNL     1      26.550   9.940  27.061  1.00  0.00    -0.070 N 
ATOM     44  H23 UNL     1      26.820  10.195  26.111  1.00  0.00     0.274 HD
ATOM     45  H22 UNL     1      26.257  10.861  27.387  1.00  0.00     0.274 HD
ATOM     46  H21 UNL     1      27.338   9.578  27.598  1.00  0.00     0.274 HD
ENDBRANCH  37  43
ENDBRANCH  31  32
ENDBRANCH   5  31
BRANCH   1  47
HETATM   47  C2  UNL     1      27.713  11.800  22.003  1.00  0.00     0.029 C 
HETATM   48  C1  UNL     1      28.253  13.029  22.704  1.00  0.00     0.007 C 
ENDBRANCH   1  47
TORSDOF 11
ENDMDL
MODEL 2
REMARK VINA RESULT: -7.598014940      1.664      2.643
REMARK  11 active torsions:
REMARK  status: ('A' for Active; 'I' for Inactive)
REMARK    1  A    between atoms: C2_2  and  C3_3 
REMARK    2  A    between atoms: C6_7  and  O2_8 
REMARK    3  A    between atoms: O2_8  and  C7_9 
REMARK    4  A    between atoms: C8_11  and  C9_12 
REMARK    5  A    between atoms: C9_12  and  N1_13 
REMARK    6  A    between atoms: C12_19  and  N2_20 
REMARK    7  A    between atoms: C13_24  and  O4_25 
REMARK    8  A    between atoms: O4_25  and  C14_26 
REMARK    9  A    between atoms: C15_27  and  N3_28 
REMARK   10  A    between atoms: C17_33  and  N4_34 
REMARK   11  A    between atoms: C20_40  and  N5_41 
ROOT
HETATM    1  C3  UNL     1      25.655   9.807  22.638  1.00  0.00     0.157 C 
HETATM    2  O1  UNL     1      25.187   8.834  23.519  1.00  0.00    -0.351 OA
HETATM    3  C4  UNL     1      23.884   8.524  23.168  1.00  0.00     0.324 C 
HETATM    4  C5  UNL     1      22.957   9.354  24.073  1.00  0.00     0.096 C 
HETATM    5  C6  UNL     1      23.631  10.744  24.153  1.00  0.00     0.160 C 
HETATM    6  C13 UNL     1      23.757  11.332  22.777  1.00  0.00     0.184 C 
HETATM    7  C22 UNL     1      24.429  10.293  21.892  1.00  0.00     0.248 C 
HETATM    8  N6  UNL     1      23.672   9.042  21.837  1.00  0.00    -0.040 N 
ATOM      9  H61 UNL     1      22.696   9.135  21.555  1.00  0.00     0.280 HD
ATOM     10  H62 UNL     1      23.926   8.411  21.077  1.00  0.00     0.280 HD
ENDROOT
BRANCH   6  11
HETATM   11  O4  UNL     1      22.503  11.734  22.345  1.00  0.00    -0.372 OA
BRANCH  11  12
HETATM   12  C14 UNL     1      22.284  13.069  22.269  1.00  0.00     0.183 C 
HETATM   13  C15 UNL     1      21.028  13.553  23.001  1.00  0.00     0.216 C 
HETATM   14  C16 UNL     1      20.221  14.506  22.174  1.00  0.00     0.068 C 
HETATM   15  C17 UNL     1      20.965  15.585  21.504  1.00  0.00     0.191 C 
HETATM   16  C18 UNL     1      22.365  15.190  21.181  1.00  0.00     0.045 C 
HETATM   17  C19 UNL     1      22.938  15.921  20.002  1.00  0.00     0.014 C 
HETATM   18  C20 UNL     1      22.303  13.675  20.909  1.00  0.00     0.221 C 
BRANCH  13  19
HETATM   19  N3  UNL     1      21.398  14.182  24.240  1.00  0.00    -0.072 N 
ATOM     20  H33 UNL     1      21.929  15.040  24.091  1.00  0.00     0.274 HD
ATOM     21  H32 UNL     1      20.594  14.587  24.720  1.00  0.00     0.274 HD
ATOM     22  H31 UNL     1      21.901  13.516  24.829  1.00  0.00     0.274 HD
ENDBRANCH  13  19
BRANCH  15  23
HETATM   23  N4  UNL     1      20.897  16.835  22.249  1.00  0.00    -0.075 N 
ATOM     24  H43 UNL     1      20.023  16.910  22.769  1.00  0.00     0.274 HD
ATOM     25  H42 UNL     1      21.550  16.835  23.032  1.00  0.00     0.274 HD
ATOM     26  H41 UNL     1      21.041  17.645  21.646  1.00  0.00     0.274 HD
ENDBRANCH  15  23
BRANCH  18  27
HETATM   27  N5  UNL     1      23.192  13.260  19.922  1.00  0.00    -0.072 N 
HETATM   28  C21 UNL     1      22.569  12.405  18.946  1.00  0.00     0.267 C 
ATOM     29  H52 UNL     1      23.645  14.058  19.476  1.00  0.00     0.277 HD
ATOM     30  H51 UNL     1      24.013  12.813  20.331  1.00  0.00     0.277 HD
ENDBRANCH  18  27
ENDBRANCH  11  12
ENDBRANCH   6  11
BRANCH   5  31
HETATM   31  O2  UNL     1      22.939  11.478  25.072  1.00  0.00    -0.351 OA
BRANCH  31  32
HETATM   32  C7  UNL     1      23.287  11.170  26.388  1.00  0.00     0.291 C 
HETATM   33  O3  UNL     1      24.630  10.873  26.469  1.00  0.00    -0.352 OA
HETATM   34  C8  UNL     1      24.995  10.340  27.695  1.00  0.00     0.150 C 
HETATM   35  C10 UNL     1      24.359  11.029  28.873  1.00  0.00     0.036 C 
HETATM   36  C11 UNL     1      23.957  12.434  28.405  1.00  0.00     0.040 C 
HETATM   37  C12 UNL     1      22.849  12.197  27.379  1.00  0.00     0.238 C 
BRANCH  34  38
HETATM   38  C9  UNL     1      24.697   8.861  27.791  1.00  0.00     0.261 C 
BRANCH  38  39
HETATM   39  N1  UNL     1      25.261   8.219  26.621  1.00  0.00    -0.077 N 
ATOM     40  H13 UNL     1      25.658   8.884  25.957  1.00  0.00     0.274 HD
ATOM     41  H12 UNL     1      26.118   7.705  26.826  1.00  0.00     0.274 HD
ATOM     42  H11 UNL     1      24.537   7.631  26.207  1.00  0.00     0.274 HD
ENDBRANCH  38  39
ENDBRANCH  34  38
BRANCH  37  43
HETATM   43  N2  UNL     1      21.708  11.711  28.131  1.00  0.00    -0.070 N 
ATOM     44  H23 UNL     1      21.088  12.468  28.415  1.00  0.00     0.274 HD
ATOM     45  H22 UNL     1      21.055  11.194  27.541  1.00  0.00     0.274 HD
ATOM     46  H21 UNL     1      22.023  11.156  28.927  1.00  0.00     0.274 HD
ENDBRANCH  37  43
ENDBRANCH  31  32
ENDBRANCH   5  31
BRANCH   1  47
HETATM   47  C2  UNL     1      26.639   9.128  21.708  1.00  0.00     0.029 C 
HETATM   48  C1  UNL     1      27.923   9.921  21.581  1.00  0.00     0.007 C 
ENDBRANCH   1  47
TORSDOF 11
ENDMDL
MODEL 3
REMARK VINA RESULT: -7.587076785      1.685      6.297
REMARK  11 active torsions:
REMARK  status: ('A' for Active; 'I' for Inactive)
REMARK    1  A    between atoms: C2_2  and  C3_3 
REMARK    2  A    between atoms: C6_7  and  O2_8 
REMARK    3  A    between atoms: O2_8  and  C7_9 
REMARK    4  A    between atoms: C8_11  and  C9_12 
REMARK    5  A    between atoms: C9_12  and  N1_13 
REMARK    6  A    between atoms: C12_19  and  N2_20 
REMARK    7  A    between atoms: C13_24  and  O4_25 
REMARK    8  A    between atoms: O4_25  and  C14_26 
REMARK    9  A    between atoms: C15_27  and  N3_28 
REMARK   10  A    between atoms: C17_33  and  N4_34 
REMARK   11  A    between atoms: C20_40  and  N5_41 
ROOT
HETATM    1  C3  UNL     1      22.366  12.914  22.345  1.00  0.00     0.157 C 
HETATM    2  O1  UNL     1      22.223  11.862  21.442  1.00  0.00    -0.351 OA
HETATM    3  C4  UNL     1      21.531  10.841  22.072  1.00  0.00     0.324 C 
HETATM    4  C5  UNL     1      22.573   9.842  22.602  1.00  0.00     0.096 C 
HETATM    5  C6  UNL     1      23.714  10.726  23.162  1.00  0.00     0.160 C 
HETATM    6  C13 UNL     1      23.183  11.621  24.245  1.00  0.00     0.184 C 
HETATM    7  C22 UNL     1      21.965  12.343  23.689  1.00  0.00     0.248 C 
HETATM    8  N6  UNL     1      20.923  11.412  23.252  1.00  0.00    -0.040 N 
ATOM      9  H61 UNL     1      20.617  10.738  23.955  1.00  0.00     0.280 HD
ATOM     10  H62 UNL     1      20.001  11.823  23.112  1.00  0.00     0.280 HD
ENDROOT
BRANCH   6  11
HETATM   11  O4  UNL     1      22.937  10.859  25.376  1.00  0.00    -0.372 OA
BRANCH  11  12
HETATM   12  C14 UNL     1      23.780  11.032  26.423  1.00  0.00     0.183 C 
HETATM   13  C15 UNL     1      24.392   9.739  26.971  1.00  0.00     0.216 C 
HETATM   14  C16 UNL     1      24.341   9.679  28.466  1.00  0.00     0.068 C 
HETATM   15  C17 UNL     1      24.773  10.887  29.188  1.00  0.00     0.191 C 
HETATM   16  C18 UNL     1      24.533  12.130  28.402  1.00  0.00     0.045 C 
HETATM   17  C19 UNL     1      24.338  13.350  29.254  1.00  0.00     0.014 C 
HETATM   18  C20 UNL     1      23.271  11.839  27.566  1.00  0.00     0.221 C 
BRANCH  13  19
HETATM   19  N3  UNL     1      25.754   9.618  26.528  1.00  0.00    -0.072 N 
ATOM     20  H33 UNL     1      26.093  10.476  26.091  1.00  0.00     0.274 HD
ATOM     21  H32 UNL     1      26.410   9.582  27.309  1.00  0.00     0.274 HD
ATOM     22  H31 UNL     1      25.847   8.811  25.912  1.00  0.00     0.274 HD
ENDBRANCH  13  19
BRANCH  15  23
HETATM   23  N4  UNL     1      26.149  10.780  29.651  1.00  0.00    -0.075 N 
ATOM     24  H43 UNL     1      26.303   9.908  30.159  1.00  0.00     0.274 HD
ATOM     25  H42 UNL     1      26.792  10.627  28.874  1.00  0.00     0.274 HD
ATOM     26  H41 UNL     1      26.427  11.587  30.209  1.00  0.00     0.274 HD
ENDBRANCH  15  23
BRANCH  18  27
HETATM   27  N5  UNL     1      22.464  12.959  27.386  1.00  0.00    -0.072 N 
HETATM   28  C21 UNL     1      21.076  12.616  27.227  1.00  0.00     0.267 C 
ATOM     29  H52 UNL     1      22.593  13.630  28.144  1.00  0.00     0.277 HD
ATOM     30  H51 UNL     1      22.794  13.528  26.606  1.00  0.00     0.277 HD
ENDBRANCH  18  27
ENDBRANCH  11  12
ENDBRANCH   6  11
BRANCH   5  31
HETATM   31  O2  UNL     1      24.741   9.894  23.502  1.00  0.00    -0.351 OA
BRANCH  31  32
HETATM   32  C7  UNL     1      25.900  10.131  22.762  1.00  0.00     0.291 C 
HETATM   33  O3  UNL     1      26.941  10.463  23.600  1.00  0.00    -0.352 OA
HETATM   34  C8  UNL     1      28.056  10.930  22.920  1.00  0.00     0.150 C 
HETATM   35  C10 UNL     1      28.382  10.151  21.674  1.00  0.00     0.036 C 
HETATM   36  C11 UNL     1      27.740   8.766  21.833  1.00  0.00     0.040 C 
HETATM   37  C12 UNL     1      26.236   9.032  21.809  1.00  0.00     0.238 C 
BRANCH  34  38
HETATM   38  C9  UNL     1      27.933  12.391  22.550  1.00  0.00     0.261 C 
BRANCH  38  39
HETATM   39  N1  UNL     1      27.972  12.487  21.105  1.00  0.00    -0.077 N 
ATOM     40  H13 UNL     1      28.920  12.451  20.731  1.00  0.00     0.274 HD
ATOM     41  H12 UNL     1      27.612  11.652  20.643  1.00  0.00     0.274 HD
ATOM     42  H11 UNL     1      27.472  13.334  20.835  1.00  0.00     0.274 HD
ENDBRANCH  38  39
ENDBRANCH  34  38
BRANCH  37  43
HETATM   43  N2  UNL     1      25.924   9.437  20.451  1.00  0.00    -0.070 N 
ATOM     44  H23 UNL     1      26.098  10.430  20.300  1.00  0.00     0.274 HD
ATOM     45  H22 UNL     1      26.594   9.063  19.779  1.00  0.00     0.274 HD
ATOM     46  H21 UNL     1      24.966   9.177  20.219  1.00  0.00     0.274 HD
ENDBRANCH  37  43
ENDBRANCH  31  32
ENDBRANCH   5  31
BRANCH   1  47
HETATM   47  C2  UNL     1      21.420  14.011  21.902  1.00  0.00     0.029 C 
HETATM   48  C1  UNL     1      21.497  15.215  22.819  1.00  0.00     0.007 C 
ENDBRANCH   1  47
TORSDOF 11
ENDMDL
MODEL 4
REMARK VINA RESULT: -7.571019406      2.171      6.408
REMARK  11 active torsions:
REMARK  status: ('A' for Active; 'I' for Inactive)
REMARK    1  A    between atoms: C2_2  and  C3_3 
REMARK    2  A    between atoms: C6_7  and  O2_8 
REMARK    3  A    between atoms: O2_8  and  C7_9 
REMARK    4  A    between atoms: C8_11  and  C9_12 
REMARK    5  A    between atoms: C9_12  and  N1_13 
REMARK    6  A    between atoms: C12_19  and  N2_20 
REMARK    7  A    between atoms: C13_24  and  O4_25 
REMARK    8  A    between atoms: O4_25  and  C14_26 
REMARK    9  A    between atoms: C15_27  and  N3_28 
REMARK   10  A    between atoms: C17_33  and  N4_34 
REMARK   11  A    between atoms: C20_40  and  N5_41 
ROOT
HETATM    1  C3  UNL     1      21.948   8.361  23.188  1.00  0.00     0.157 C 
HETATM    2  O1  UNL     1      22.832   8.296  22.113  1.00  0.00    -0.351 OA
HETATM    3  C4  UNL     1      24.111   8.528  22.589  1.00  0.00     0.324 C 
HETATM    4  C5  UNL     1      24.421  10.017  22.359  1.00  0.00     0.096 C 
HETATM    5  C6  UNL     1      23.107  10.750  22.721  1.00  0.00     0.160 C 
HETATM    6  C13 UNL     1      22.735  10.461  24.147  1.00  0.00     0.184 C 
HETATM    7  C22 UNL     1      22.751   8.951  24.330  1.00  0.00     0.248 C 
HETATM    8  N6  UNL     1      24.061   8.372  24.025  1.00  0.00    -0.040 N 
ATOM      9  H61 UNL     1      24.846   8.775  24.535  1.00  0.00     0.280 HD
ATOM     10  H62 UNL     1      24.209   7.422  24.365  1.00  0.00     0.280 HD
ENDROOT
BRANCH   6  11
HETATM   11  O4  UNL     1      23.596  11.153  24.984  1.00  0.00    -0.372 OA
BRANCH  11  12
HETATM   12  C14 UNL     1      23.305  11.136  26.307  1.00  0.00     0.183 C 
HETATM   13  C15 UNL     1      22.701  12.438  26.845  1.00  0.00     0.216 C 
HETATM   14  C16 UNL     1      23.334  12.867  28.132  1.00  0.00     0.068 C 
HETATM   15  C17 UNL     1      23.502  11.826  29.160  1.00  0.00     0.191 C 
HETATM   16  C18 UNL     1      23.669  10.470  28.568  1.00  0.00     0.045 C 
HETATM   17  C19 UNL     1      24.449   9.527  29.438  1.00  0.00     0.014 C 
HETATM   18  C20 UNL     1      24.392  10.702  27.227  1.00  0.00     0.221 C 
BRANCH  13  19
HETATM   19  N3  UNL     1      21.285  12.277  27.032  1.00  0.00    -0.072 N 
ATOM     20  H33 UNL     1      20.881  11.622  26.362  1.00  0.00     0.274 HD
ATOM     21  H32 UNL     1      21.066  11.765  27.888  1.00  0.00     0.274 HD
ATOM     22  H31 UNL     1      20.826  13.188  27.003  1.00  0.00     0.274 HD
ENDBRANCH  13  19
BRANCH  15  23
HETATM   23  N4  UNL     1      22.440  11.871  30.156  1.00  0.00    -0.075 N 
ATOM     24  H43 UNL     1      22.809  12.091  31.082  1.00  0.00     0.274 HD
ATOM     25  H42 UNL     1      21.843  12.687  30.025  1.00  0.00     0.274 HD
ATOM     26  H41 UNL     1      21.894  11.010  30.170  1.00  0.00     0.274 HD
ENDBRANCH  15  23
BRANCH  18  27
HETATM   27  N5  UNL     1      25.280   9.682  26.901  1.00  0.00    -0.072 N 
HETATM   28  C21 UNL     1      26.573  10.181  26.515  1.00  0.00     0.267 C 
ATOM     29  H52 UNL     1      25.359   9.006  27.661  1.00  0.00     0.277 HD
ATOM     30  H51 UNL     1      24.891   9.073  26.180  1.00  0.00     0.277 HD
ENDBRANCH  18  27
ENDBRANCH  11  12
ENDBRANCH   6  11
BRANCH   5  31
HETATM   31  O2  UNL     1      23.270  12.063  22.384  1.00  0.00    -0.351 OA
BRANCH  31  32
HETATM   32  C7  UNL     1      22.063  12.760  22.319  1.00  0.00     0.291 C 
HETATM   33  O3  UNL     1      21.890  13.522  23.453  1.00  0.00    -0.352 OA
HETATM   34  C8  UNL     1      20.616  14.060  23.557  1.00  0.00     0.150 C 
HETATM   35  C10 UNL     1      20.076  14.602  22.262  1.00  0.00     0.036 C 
HETATM   36  C11 UNL     1      21.284  14.905  21.365  1.00  0.00     0.040 C 
HETATM   37  C12 UNL     1      21.887  13.535  21.055  1.00  0.00     0.238 C 
BRANCH  34  38
HETATM   38  C9  UNL     1      19.618  13.068  24.112  1.00  0.00     0.261 C 
BRANCH  38  39
HETATM   39  N1  UNL     1      18.333  13.731  24.192  1.00  0.00    -0.077 N 
ATOM     40  H13 UNL     1      17.808  13.479  25.031  1.00  0.00     0.274 HD
ATOM     41  H12 UNL     1      18.414  14.731  24.380  1.00  0.00     0.274 HD
ATOM     42  H11 UNL     1      17.823  13.530  23.332  1.00  0.00     0.274 HD
ENDBRANCH  38  39
ENDBRANCH  34  38
BRANCH  37  43
HETATM   43  N2  UNL     1      20.935  12.868  20.188  1.00  0.00    -0.070 N 
ATOM     44  H23 UNL     1      21.383  12.168  19.597  1.00  0.00     0.274 HD
ATOM     45  H22 UNL     1      20.313  12.249  20.710  1.00  0.00     0.274 HD
ATOM     46  H21 UNL     1      20.417  13.555  19.641  1.00  0.00     0.274 HD
ENDBRANCH  37  43
ENDBRANCH  31  32
ENDBRANCH   5  31
BRANCH   1  47
HETATM   47  C2  UNL     1      21.511   6.943  23.492  1.00  0.00     0.029 C 
HETATM   48  C1  UNL     1      21.180   6.180  22.225  1.00  0.00     0.007 C 
ENDBRANCH   1  47
TORSDOF 11
ENDMDL
MODEL 5
REMARK VINA RESULT: -7.569160350      2.455      6.943
REMARK  11 active torsions:
REMARK  status: ('A' for Active; 'I' for Inactive)
REMARK    1  A    between atoms: C2_2  and  C3_3 
REMARK    2  A    between atoms: C6_7  and  O2_8 
REMARK    3  A    between atoms: O2_8  and  C7_9 
REMARK    4  A    between atoms: C8_11  and  C9_12 
REMARK    5  A    between atoms: C9_12  and  N1_13 
REMARK    6  A    between atoms: C12_19  and  N2_20 
REMARK    7  A    between atoms: C13_24  and  O4_25 
REMARK    8  A    between atoms: O4_25  and  C14_26 
REMARK    9  A    between atoms: C15_27  and  N3_28 
REMARK   10  A    between atoms: C17_33  and  N4_34 
REMARK   11  A    between atoms: C20_40  and  N5_41 
ROOT
HETATM    1  C3  UNL     1      21.794   8.433  23.141  1.00  0.00     0.157 C 
HETATM    2  O1  UNL     1      22.627   8.420  22.024  1.00  0.00    -0.351 OA
HETATM    3  C4  UNL     1      23.914   8.717  22.441  1.00  0.00     0.324 C 
HETATM    4  C5  UNL     1      24.134  10.221  22.208  1.00  0.00     0.096 C 
HETATM    5  C6  UNL     1      22.802  10.882  22.638  1.00  0.00     0.160 C 
HETATM    6  C13 UNL     1      22.515  10.566  24.078  1.00  0.00     0.184 C 
HETATM    7  C22 UNL     1      22.619   9.058  24.247  1.00  0.00     0.248 C 
HETATM    8  N6  UNL     1      23.941   8.551  23.875  1.00  0.00    -0.040 N 
ATOM      9  H61 UNL     1      24.728   8.992  24.351  1.00  0.00     0.280 HD
ATOM     10  H62 UNL     1      24.155   7.608  24.201  1.00  0.00     0.280 HD
ENDROOT
BRANCH   6  11
HETATM   11  O4  UNL     1      23.378  11.298  24.878  1.00  0.00    -0.372 OA
BRANCH  11  12
HETATM   12  C14 UNL     1      23.157  11.251  26.214  1.00  0.00     0.183 C 
HETATM   13  C15 UNL     1      22.564  12.532  26.809  1.00  0.00     0.216 C 
HETATM   14  C16 UNL     1      23.259  12.945  28.070  1.00  0.00     0.068 C 
HETATM   15  C17 UNL     1      23.496  11.887  29.066  1.00  0.00     0.191 C 
HETATM   16  C18 UNL     1      23.651  10.545  28.438  1.00  0.00     0.045 C 
HETATM   17  C19 UNL     1      24.490   9.599  29.246  1.00  0.00     0.014 C 
HETATM   18  C20 UNL     1      24.298  10.815  27.066  1.00  0.00     0.221 C 
BRANCH  13  19
HETATM   19  N3  UNL     1      21.162  12.345  27.068  1.00  0.00    -0.072 N 
ATOM     20  H33 UNL     1      20.630  12.194  26.211  1.00  0.00     0.274 HD
ATOM     21  H32 UNL     1      20.971  11.450  27.520  1.00  0.00     0.274 HD
ATOM     22  H31 UNL     1      20.803  13.132  27.610  1.00  0.00     0.274 HD
ENDBRANCH  13  19
BRANCH  15  23
HETATM   23  N4  UNL     1      22.488  11.896  30.118  1.00  0.00    -0.075 N 
ATOM     24  H43 UNL     1      22.723  12.567  30.850  1.00  0.00     0.274 HD
ATOM     25  H42 UNL     1      21.617  12.314  29.792  1.00  0.00     0.274 HD
ATOM     26  H41 UNL     1      22.332  10.965  30.503  1.00  0.00     0.274 HD
ENDBRANCH  15  23
BRANCH  18  27
HETATM   27  N5  UNL     1      25.183   9.816  26.672  1.00  0.00    -0.072 N 
HETATM   28  C21 UNL     1      26.451  10.342  26.243  1.00  0.00     0.267 C 
ATOM     29  H52 UNL     1      25.303   9.121  27.409  1.00  0.00     0.277 HD
ATOM     30  H51 UNL     1      24.769   9.221  25.954  1.00  0.00     0.277 HD
ENDBRANCH  18  27
ENDBRANCH  11  12
ENDBRANCH   6  11
BRANCH   5  31
HETATM   31  O2  UNL     1      22.880  12.203  22.304  1.00  0.00    -0.351 OA
BRANCH  31  32
HETATM   32  C7  UNL     1      22.538  12.448  20.973  1.00  0.00     0.291 C 
HETATM   33  O3  UNL     1      21.308  11.897  20.687  1.00  0.00    -0.352 OA
HETATM   34  C8  UNL     1      21.012  11.905  19.333  1.00  0.00     0.150 C 
HETATM   35  C10 UNL     1      21.384  13.186  18.634  1.00  0.00     0.036 C 
HETATM   36  C11 UNL     1      21.454  14.278  19.711  1.00  0.00     0.040 C 
HETATM   37  C12 UNL     1      22.647  13.885  20.582  1.00  0.00     0.238 C 
BRANCH  34  38
HETATM   38  C9  UNL     1      21.661  10.755  18.596  1.00  0.00     0.261 C 
BRANCH  38  39
HETATM   39  N1  UNL     1      21.387   9.542  19.339  1.00  0.00    -0.077 N 
ATOM     40  H13 UNL     1      21.308   8.720  18.741  1.00  0.00     0.274 HD
ATOM     41  H12 UNL     1      22.184   9.229  19.894  1.00  0.00     0.274 HD
ATOM     42  H11 UNL     1      20.553   9.703  19.903  1.00  0.00     0.274 HD
ENDBRANCH  38  39
ENDBRANCH  34  38
BRANCH  37  43
HETATM   43  N2  UNL     1      23.824  14.091  19.762  1.00  0.00    -0.070 N 
ATOM     44  H23 UNL     1      24.679  14.099  20.317  1.00  0.00     0.274 HD
ATOM     45  H22 UNL     1      24.030  13.279  19.179  1.00  0.00     0.274 HD
ATOM     46  H21 UNL     1      23.722  14.941  19.207  1.00  0.00     0.274 HD
ENDBRANCH  37  43
ENDBRANCH  31  32
ENDBRANCH   5  31
BRANCH   1  47
HETATM   47  C2  UNL     1      21.447   6.992  23.453  1.00  0.00     0.029 C 
HETATM   48  C1  UNL     1      21.149   6.205  22.193  1.00  0.00     0.007 C 
ENDBRANCH   1  47
TORSDOF 11
ENDMDL
