MODEL 1
REMARK VINA RESULT: -8.735299090      0.000      0.000
REMARK  12 active torsions:
REMARK  status: ('A' for Active; 'I' for Inactive)
REMARK    1  A    between atoms: C2_2  and  C3_3 
REMARK       I    between atoms: C3_3  and  N1_5 
REMARK    2  A    between atoms: N1_5  and  C4_7 
REMARK    3  A    between atoms: C4_7  and  C5_8 
REMARK    4  A    between atoms: C6_10  and  O3_11 
REMARK    5  A    between atoms: O3_11  and  C7_12 
REMARK    6  A    between atoms: C8_13  and  N2_14 
REMARK    7  A    between atoms: C12_21  and  O4_22 
REMARK    8  A    between atoms: O4_22  and  C13_23 
REMARK    9  A    between atoms: C16_26  and  O5_27 
REMARK   10  A    between atoms: C19_32  and  O7_33 
REMARK   11  A    between atoms: C20_35  and  O8_36 
REMARK   12  A    between atoms: C21_38  and  O9_39 
ROOT
HETATM    1  C7  UNL     1      25.307   8.820  23.147  1.00  0.00     0.184 C 
HETATM    2  C8  UNL     1      26.324   9.579  22.277  1.00  0.00     0.215 C 
HETATM    3  C9  UNL     1      25.621  10.841  21.847  1.00  0.00     0.035 C 
HETATM    4  C10 UNL     1      25.196  11.692  22.999  1.00  0.00     0.005 C 
HETATM    5  C11 UNL     1      24.563  10.929  24.127  1.00  0.00     0.035 C 
HETATM    6  C12 UNL     1      25.263   9.627  24.429  1.00  0.00     0.155 C 
ENDROOT
BRANCH   1   7
HETATM    7  O3  UNL     1      24.089   9.000  22.503  1.00  0.00    -0.349 OA
BRANCH   7   8
HETATM    8  C6  UNL     1      23.554   7.806  22.035  1.00  0.00     0.292 C 
HETATM    9  O2  UNL     1      23.058   7.907  20.752  1.00  0.00    -0.349 OA
HETATM   10  C5  UNL     1      21.859   8.614  20.663  1.00  0.00     0.173 C 
HETATM   11  C21 UNL     1      20.789   7.773  21.373  1.00  0.00     0.180 C 
HETATM   12  C20 UNL     1      21.159   7.808  22.838  1.00  0.00     0.183 C 
HETATM   13  C19 UNL     1      22.557   7.316  23.053  1.00  0.00     0.204 C 
BRANCH  10  14
HETATM   14  C4  UNL     1      21.515   8.754  19.217  1.00  0.00     0.157 C 
BRANCH  14  15
HETATM   15  N1  UNL     1      22.379   9.728  18.599  1.00  0.00    -0.359 N 
HETATM   16  C3  UNL     1      21.903  11.017  18.243  1.00  0.00     0.217 C 
HETATM   17  O1  UNL     1      20.702  11.291  18.480  1.00  0.00    -0.274 OA
ATOM     18  H1  UNL     1      23.352   9.487  18.414  1.00  0.00     0.162 HD
BRANCH  16  19
HETATM   19  C2  UNL     1      22.826  12.001  17.605  1.00  0.00     0.098 C 
HETATM   20  C1  UNL     1      23.469  11.410  16.368  1.00  0.00     0.014 C 
ENDBRANCH  16  19
ENDBRANCH  14  15
ENDBRANCH  10  14
BRANCH  11  21
HETATM   21  O9  UNL     1      20.738   6.489  20.867  1.00  0.00    -0.390 OA
ATOM     22  H9  UNL     1      20.004   6.003  21.225  1.00  0.00     0.210 HD
ENDBRANCH  11  21
BRANCH  12  23
HETATM   23  O8  UNL     1      20.232   7.167  23.633  1.00  0.00    -0.390 OA
ATOM     24  H8  UNL     1      19.359   7.531  23.555  1.00  0.00     0.210 HD
ENDBRANCH  12  23
BRANCH  13  25
HETATM   25  O7  UNL     1      22.554   5.920  23.004  1.00  0.00    -0.388 OA
ATOM     26  H7  UNL     1      21.960   5.610  23.677  1.00  0.00     0.210 HD
ENDBRANCH  13  25
ENDBRANCH   7   8
ENDBRANCH   1   7
BRANCH   2  27
HETATM   27  N2  UNL     1      26.700   8.805  21.125  1.00  0.00    -0.072 N 
ATOM     28  H23 UNL     1      27.574   8.303  21.279  1.00  0.00     0.274 HD
ATOM     29  H22 UNL     1      26.082   8.005  20.993  1.00  0.00     0.274 HD
ATOM     30  H21 UNL     1      26.744   9.388  20.288  1.00  0.00     0.274 HD
ENDBRANCH   2  27
BRANCH   6  31
HETATM   31  O4  UNL     1      24.629   8.995  25.469  1.00  0.00    -0.353 OA
BRANCH  31  32
HETATM   32  C13 UNL     1      25.287   9.224  26.676  1.00  0.00     0.261 C 
HETATM   33  C14 UNL     1      24.501   8.658  27.848  1.00  0.00     0.070 C 
HETATM   34  C15 UNL     1      25.016   9.487  28.998  1.00  0.00     0.048 A 
HETATM   35  C16 UNL     1      23.950  10.275  29.725  1.00  0.00     0.127 A 
HETATM   36  C18 UNL     1      25.551  10.710  28.320  1.00  0.00     0.133 A 
HETATM   37  C17 UNL     1      24.459  11.514  29.033  1.00  0.00     0.064 A 
HETATM   38  O6  UNL     1      25.348  10.564  26.967  1.00  0.00    -0.355 OA
BRANCH  35  39
HETATM   39  O5  UNL     1      22.642   9.930  29.408  1.00  0.00    -0.395 OA
ATOM     40  H5  UNL     1      22.145  10.603  28.959  1.00  0.00     0.210 HD
ENDBRANCH  35  39
ENDBRANCH  31  32
ENDBRANCH   6  31
TORSDOF 12
ENDMDL
MODEL 2
REMARK VINA RESULT: -8.721781435      2.489      3.871
REMARK  12 active torsions:
REMARK  status: ('A' for Active; 'I' for Inactive)
REMARK    1  A    between atoms: C2_2  and  C3_3 
REMARK       I    between atoms: C3_3  and  N1_5 
REMARK    2  A    between atoms: N1_5  and  C4_7 
REMARK    3  A    between atoms: C4_7  and  C5_8 
REMARK    4  A    between atoms: C6_10  and  O3_11 
REMARK    5  A    between atoms: O3_11  and  C7_12 
REMARK    6  A    between atoms: C8_13  and  N2_14 
REMARK    7  A    between atoms: C12_21  and  O4_22 
REMARK    8  A    between atoms: O4_22  and  C13_23 
REMARK    9  A    between atoms: C16_26  and  O5_27 
REMARK   10  A    between atoms: C19_32  and  O7_33 
REMARK   11  A    between atoms: C20_35  and  O8_36 
REMARK   12  A    between atoms: C21_38  and  O9_39 
ROOT
HETATM    1  C7  UNL     1      23.409  11.109  24.278  1.00  0.00     0.184 C 
HETATM    2  C8  UNL     1      22.678  12.304  23.641  1.00  0.00     0.215 C 
HETATM    3  C9  UNL     1      21.315  12.327  24.282  1.00  0.00     0.035 C 
HETATM    4  C10 UNL     1      21.371  12.492  25.766  1.00  0.00     0.005 C 
HETATM    5  C11 UNL     1      22.409  11.641  26.440  1.00  0.00     0.035 C 
HETATM    6  C12 UNL     1      23.713  11.584  25.684  1.00  0.00     0.155 C 
ENDROOT
BRANCH   1   7
HETATM    7  O3  UNL     1      22.440  10.116  24.376  1.00  0.00    -0.349 OA
BRANCH   7   8
HETATM    8  C6  UNL     1      22.967   8.841  24.211  1.00  0.00     0.292 C 
HETATM    9  O2  UNL     1      23.909   8.777  23.204  1.00  0.00    -0.349 OA
HETATM   10  C5  UNL     1      23.368   8.847  21.919  1.00  0.00     0.173 C 
HETATM   11  C21 UNL     1      22.555   7.563  21.705  1.00  0.00     0.180 C 
HETATM   12  C20 UNL     1      21.371   7.677  22.637  1.00  0.00     0.183 C 
HETATM   13  C19 UNL     1      21.816   7.883  24.052  1.00  0.00     0.204 C 
BRANCH  10  14
HETATM   14  C4  UNL     1      24.500   8.898  20.948  1.00  0.00     0.157 C 
BRANCH  14  15
HETATM   15  N1  UNL     1      25.412   9.953  21.312  1.00  0.00    -0.359 N 
HETATM   16  C3  UNL     1      26.777   9.684  21.597  1.00  0.00     0.217 C 
HETATM   17  O1  UNL     1      27.174   8.496  21.524  1.00  0.00    -0.274 OA
ATOM     18  H1  UNL     1      25.071  10.912  21.367  1.00  0.00     0.162 HD
BRANCH  16  19
HETATM   19  C2  UNL     1      27.693  10.801  21.971  1.00  0.00     0.098 C 
HETATM   20  C1  UNL     1      27.385  11.303  23.366  1.00  0.00     0.014 C 
ENDBRANCH  16  19
ENDBRANCH  14  15
ENDBRANCH  10  14
BRANCH  11  21
HETATM   21  O9  UNL     1      23.318   6.436  21.947  1.00  0.00    -0.390 OA
ATOM     22  H9  UNL     1      22.857   5.645  21.694  1.00  0.00     0.210 HD
ENDBRANCH  11  21
BRANCH  12  23
HETATM   23  O8  UNL     1      20.484   6.631  22.496  1.00  0.00    -0.390 OA
ATOM     24  H8  UNL     1      19.580   6.916  22.428  1.00  0.00     0.210 HD
ENDBRANCH  12  23
BRANCH  13  25
HETATM   25  O7  UNL     1      22.215   6.652  24.579  1.00  0.00    -0.388 OA
ATOM     26  H7  UNL     1      22.568   6.134  23.866  1.00  0.00     0.210 HD
ENDBRANCH  13  25
ENDBRANCH   7   8
ENDBRANCH   1   7
BRANCH   2  27
HETATM   27  N2  UNL     1      22.553  12.137  22.219  1.00  0.00    -0.072 N 
ATOM     28  H23 UNL     1      22.466  11.154  21.962  1.00  0.00     0.274 HD
ATOM     29  H22 UNL     1      21.649  12.467  21.881  1.00  0.00     0.274 HD
ATOM     30  H21 UNL     1      23.325  12.587  21.725  1.00  0.00     0.274 HD
ENDBRANCH   2  27
BRANCH   6  31
HETATM   31  O4  UNL     1      24.604  10.794  26.363  1.00  0.00    -0.353 OA
BRANCH  31  32
HETATM   32  C13 UNL     1      24.384  10.849  27.738  1.00  0.00     0.261 C 
HETATM   33  C14 UNL     1      25.476  11.640  28.440  1.00  0.00     0.070 C 
HETATM   34  C15 UNL     1      25.402  11.094  29.845  1.00  0.00     0.048 A 
HETATM   35  C16 UNL     1      26.685  10.461  30.335  1.00  0.00     0.127 A 
HETATM   36  C18 UNL     1      24.741   9.764  29.656  1.00  0.00     0.133 A 
HETATM   37  C17 UNL     1      26.044   9.111  30.128  1.00  0.00     0.064 A 
HETATM   38  O6  UNL     1      24.489   9.606  28.312  1.00  0.00    -0.355 OA
BRANCH  35  39
HETATM   39  O5  UNL     1      27.802  10.700  29.543  1.00  0.00    -0.395 OA
ATOM     40  H5  UNL     1      28.146   9.939  29.091  1.00  0.00     0.210 HD
ENDBRANCH  35  39
ENDBRANCH  31  32
ENDBRANCH   6  31
TORSDOF 12
ENDMDL
MODEL 3
REMARK VINA RESULT: -8.700484946      2.516      4.314
REMARK  12 active torsions:
REMARK  status: ('A' for Active; 'I' for Inactive)
REMARK    1  A    between atoms: C2_2  and  C3_3 
REMARK       I    between atoms: C3_3  and  N1_5 
REMARK    2  A    between atoms: N1_5  and  C4_7 
REMARK    3  A    between atoms: C4_7  and  C5_8 
REMARK    4  A    between atoms: C6_10  and  O3_11 
REMARK    5  A    between atoms: O3_11  and  C7_12 
REMARK    6  A    between atoms: C8_13  and  N2_14 
REMARK    7  A    between atoms: C12_21  and  O4_22 
REMARK    8  A    between atoms: O4_22  and  C13_23 
REMARK    9  A    between atoms: C16_26  and  O5_27 
REMARK   10  A    between atoms: C19_32  and  O7_33 
REMARK   11  A    between atoms: C20_35  and  O8_36 
REMARK   12  A    between atoms: C21_38  and  O9_39 
ROOT
HETATM    1  C7  UNL     1      22.371  11.610  23.352  1.00  0.00     0.184 C 
HETATM    2  C8  UNL     1      22.613  12.659  22.252  1.00  0.00     0.215 C 
HETATM    3  C9  UNL     1      21.300  12.783  21.522  1.00  0.00     0.035 C 
HETATM    4  C10 UNL     1      20.178  13.218  22.408  1.00  0.00     0.005 C 
HETATM    5  C11 UNL     1      20.138  12.518  23.736  1.00  0.00     0.035 C 
HETATM    6  C12 UNL     1      21.501  12.339  24.356  1.00  0.00     0.155 C 
ENDROOT
BRANCH   1   7
HETATM    7  O3  UNL     1      21.580  10.640  22.746  1.00  0.00    -0.349 OA
BRANCH   7   8
HETATM    8  C6  UNL     1      21.795   9.374  23.273  1.00  0.00     0.292 C 
HETATM    9  O2  UNL     1      23.133   9.049  23.360  1.00  0.00    -0.349 OA
HETATM   10  C5  UNL     1      23.726   8.764  22.129  1.00  0.00     0.173 C 
HETATM   11  C21 UNL     1      23.094   7.462  21.618  1.00  0.00     0.180 C 
HETATM   12  C20 UNL     1      21.661   7.813  21.292  1.00  0.00     0.183 C 
HETATM   13  C19 UNL     1      20.965   8.397  22.482  1.00  0.00     0.204 C 
BRANCH  10  14
HETATM   14  C4  UNL     1      25.187   8.561  22.360  1.00  0.00     0.157 C 
BRANCH  14  15
HETATM   15  N1  UNL     1      25.662   9.497  23.349  1.00  0.00    -0.359 N 
HETATM   16  C3  UNL     1      26.372  10.668  22.977  1.00  0.00     0.217 C 
HETATM   17  O1  UNL     1      26.579  10.872  21.757  1.00  0.00    -0.274 OA
ATOM     18  H1  UNL     1      25.484   9.313  24.336  1.00  0.00     0.162 HD
BRANCH  16  19
HETATM   19  C2  UNL     1      26.849  11.614  24.028  1.00  0.00     0.098 C 
HETATM   20  C1  UNL     1      27.168  10.876  25.310  1.00  0.00     0.014 C 
ENDBRANCH  16  19
ENDBRANCH  14  15
ENDBRANCH  10  14
BRANCH  11  21
HETATM   21  O9  UNL     1      23.197   6.450  22.553  1.00  0.00    -0.390 OA
ATOM     22  H9  UNL     1      22.492   5.820  22.460  1.00  0.00     0.210 HD
ENDBRANCH  11  21
BRANCH  12  23
HETATM   23  O8  UNL     1      20.974   6.759  20.727  1.00  0.00    -0.390 OA
ATOM     24  H8  UNL     1      21.541   6.049  20.453  1.00  0.00     0.210 HD
ENDBRANCH  12  23
BRANCH  13  25
HETATM   25  O7  UNL     1      20.600   7.358  23.342  1.00  0.00    -0.388 OA
ATOM     26  H7  UNL     1      20.738   7.660  24.232  1.00  0.00     0.210 HD
ENDBRANCH  13  25
ENDBRANCH   7   8
ENDBRANCH   1   7
BRANCH   2  27
HETATM   27  N2  UNL     1      23.645  12.233  21.347  1.00  0.00    -0.072 N 
ATOM     28  H23 UNL     1      24.276  11.562  21.785  1.00  0.00     0.274 HD
ATOM     29  H22 UNL     1      23.272  11.637  20.608  1.00  0.00     0.274 HD
ATOM     30  H21 UNL     1      24.152  13.032  20.965  1.00  0.00     0.274 HD
ENDBRANCH   2  27
BRANCH   6  31
HETATM   31  O4  UNL     1      21.378  11.698  25.562  1.00  0.00    -0.353 OA
BRANCH  31  32
HETATM   32  C13 UNL     1      22.424  12.029  26.421  1.00  0.00     0.261 C 
HETATM   33  C14 UNL     1      23.547  11.007  26.340  1.00  0.00     0.070 C 
HETATM   34  C15 UNL     1      24.228  11.186  27.675  1.00  0.00     0.048 A 
HETATM   35  C16 UNL     1      24.262   9.940  28.529  1.00  0.00     0.127 A 
HETATM   36  C18 UNL     1      23.159  11.813  28.516  1.00  0.00     0.133 A 
HETATM   37  C17 UNL     1      23.168  10.545  29.375  1.00  0.00     0.064 A 
HETATM   38  O6  UNL     1      22.036  11.955  27.735  1.00  0.00    -0.355 OA
BRANCH  35  39
HETATM   39  O5  UNL     1      23.906   8.766  27.875  1.00  0.00    -0.395 OA
ATOM     40  H5  UNL     1      23.633   8.874  26.972  1.00  0.00     0.210 HD
ENDBRANCH  35  39
ENDBRANCH  31  32
ENDBRANCH   6  31
TORSDOF 12
ENDMDL
MODEL 4
REMARK VINA RESULT: -8.675396256      1.719      2.224
REMARK  12 active torsions:
REMARK  status: ('A' for Active; 'I' for Inactive)
REMARK    1  A    between atoms: C2_2  and  C3_3 
REMARK       I    between atoms: C3_3  and  N1_5 
REMARK    2  A    between atoms: N1_5  and  C4_7 
REMARK    3  A    between atoms: C4_7  and  C5_8 
REMARK    4  A    between atoms: C6_10  and  O3_11 
REMARK    5  A    between atoms: O3_11  and  C7_12 
REMARK    6  A    between atoms: C8_13  and  N2_14 
REMARK    7  A    between atoms: C12_21  and  O4_22 
REMARK    8  A    between atoms: O4_22  and  C13_23 
REMARK    9  A    between atoms: C16_26  and  O5_27 
REMARK   10  A    between atoms: C19_32  and  O7_33 
REMARK   11  A    between atoms: C20_35  and  O8_36 
REMARK   12  A    between atoms: C21_38  and  O9_39 
ROOT
HETATM    1  C7  UNL     1      24.295  10.154  24.019  1.00  0.00     0.184 C 
HETATM    2  C8  UNL     1      24.204  11.454  23.201  1.00  0.00     0.215 C 
HETATM    3  C9  UNL     1      22.796  11.954  23.400  1.00  0.00     0.035 C 
HETATM    4  C10 UNL     1      22.470  12.225  24.833  1.00  0.00     0.005 C 
HETATM    5  C11 UNL     1      22.938  11.159  25.781  1.00  0.00     0.035 C 
HETATM    6  C12 UNL     1      24.314  10.636  25.455  1.00  0.00     0.155 C 
ENDROOT
BRANCH   1   7
HETATM    7  O3  UNL     1      23.074   9.521  23.810  1.00  0.00    -0.349 OA
BRANCH   7   8
HETATM    8  C6  UNL     1      23.109   8.639  22.738  1.00  0.00     0.292 C 
HETATM    9  O2  UNL     1      22.448   9.121  21.627  1.00  0.00    -0.349 OA
HETATM   10  C5  UNL     1      21.058   9.105  21.745  1.00  0.00     0.173 C 
HETATM   11  C21 UNL     1      20.628   7.632  21.782  1.00  0.00     0.180 C 
HETATM   12  C20 UNL     1      21.142   7.098  23.099  1.00  0.00     0.183 C 
HETATM   13  C19 UNL     1      22.620   7.300  23.224  1.00  0.00     0.204 C 
BRANCH  10  14
HETATM   14  C4  UNL     1      20.487   9.768  20.535  1.00  0.00     0.157 C 
BRANCH  14  15
HETATM   15  N1  UNL     1      21.552  10.195  19.662  1.00  0.00    -0.359 N 
HETATM   16  C3  UNL     1      21.875   9.473  18.483  1.00  0.00     0.217 C 
HETATM   17  O1  UNL     1      21.207   8.445  18.217  1.00  0.00    -0.274 OA
ATOM     18  H1  UNL     1      22.084  11.033  19.895  1.00  0.00     0.162 HD
BRANCH  16  19
HETATM   19  C2  UNL     1      22.983   9.944  17.602  1.00  0.00     0.098 C 
HETATM   20  C1  UNL     1      22.924  11.446  17.422  1.00  0.00     0.014 C 
ENDBRANCH  16  19
ENDBRANCH  14  15
ENDBRANCH  10  14
BRANCH  11  21
HETATM   21  O9  UNL     1      21.120   6.934  20.696  1.00  0.00    -0.390 OA
ATOM     22  H9  UNL     1      21.140   5.999  20.863  1.00  0.00     0.210 HD
ENDBRANCH  11  21
BRANCH  12  23
HETATM   23  O8  UNL     1      20.753   5.794  23.329  1.00  0.00    -0.390 OA
ATOM     24  H8  UNL     1      19.810   5.683  23.337  1.00  0.00     0.210 HD
ENDBRANCH  12  23
BRANCH  13  25
HETATM   25  O7  UNL     1      23.272   6.315  22.479  1.00  0.00    -0.388 OA
ATOM     26  H7  UNL     1      23.410   6.661  21.604  1.00  0.00     0.210 HD
ENDBRANCH  13  25
ENDBRANCH   7   8
ENDBRANCH   1   7
BRANCH   2  27
HETATM   27  N2  UNL     1      24.449  11.208  21.806  1.00  0.00    -0.072 N 
ATOM     28  H23 UNL     1      25.238  10.576  21.670  1.00  0.00     0.274 HD
ATOM     29  H22 UNL     1      23.716  10.635  21.392  1.00  0.00     0.274 HD
ATOM     30  H21 UNL     1      24.576  12.082  21.295  1.00  0.00     0.274 HD
ENDBRANCH   2  27
BRANCH   6  31
HETATM   31  O4  UNL     1      24.668   9.673  26.366  1.00  0.00    -0.353 OA
BRANCH  31  32
HETATM   32  C13 UNL     1      24.402  10.088  27.670  1.00  0.00     0.261 C 
HETATM   33  C14 UNL     1      25.405  11.134  28.130  1.00  0.00     0.070 C 
HETATM   34  C15 UNL     1      25.334  10.995  29.630  1.00  0.00     0.048 A 
HETATM   35  C16 UNL     1      26.649  10.636  30.285  1.00  0.00     0.127 A 
HETATM   36  C18 UNL     1      24.789   9.612  29.815  1.00  0.00     0.133 A 
HETATM   37  C17 UNL     1      26.126   9.231  30.459  1.00  0.00     0.064 A 
HETATM   38  O6  UNL     1      24.591   9.067  28.567  1.00  0.00    -0.355 OA
BRANCH  35  39
HETATM   39  O5  UNL     1      27.766  10.741  29.465  1.00  0.00    -0.395 OA
ATOM     40  H5  UNL     1      28.492  11.229  29.833  1.00  0.00     0.210 HD
ENDBRANCH  35  39
ENDBRANCH  31  32
ENDBRANCH   6  31
TORSDOF 12
ENDMDL
MODEL 5
REMARK VINA RESULT: -8.673678897      2.236      2.663
REMARK  12 active torsions:
REMARK  status: ('A' for Active; 'I' for Inactive)
REMARK    1  A    between atoms: C2_2  and  C3_3 
REMARK       I    between atoms: C3_3  and  N1_5 
REMARK    2  A    between atoms: N1_5  and  C4_7 
REMARK    3  A    between atoms: C4_7  and  C5_8 
REMARK    4  A    between atoms: C6_10  and  O3_11 
REMARK    5  A    between atoms: O3_11  and  C7_12 
REMARK    6  A    between atoms: C8_13  and  N2_14 
REMARK    7  A    between atoms: C12_21  and  O4_22 
REMARK    8  A    between atoms: O4_22  and  C13_23 
REMARK    9  A    between atoms: C16_26  and  O5_27 
REMARK   10  A    between atoms: C19_32  and  O7_33 
REMARK   11  A    between atoms: C20_35  and  O8_36 
REMARK   12  A    between atoms: C21_38  and  O9_39 
ROOT
HETATM    1  C7  UNL     1      22.595  11.402  23.373  1.00  0.00     0.184 C 
HETATM    2  C8  UNL     1      22.740  12.374  22.189  1.00  0.00     0.215 C 
HETATM    3  C9  UNL     1      21.370  12.451  21.565  1.00  0.00     0.035 C 
HETATM    4  C10 UNL     1      20.325  12.947  22.511  1.00  0.00     0.005 C 
HETATM    5  C11 UNL     1      20.399  12.337  23.882  1.00  0.00     0.035 C 
HETATM    6  C12 UNL     1      21.810  12.198  24.395  1.00  0.00     0.155 C 
ENDROOT
BRANCH   1   7
HETATM    7  O3  UNL     1      21.760  10.395  22.902  1.00  0.00    -0.349 OA
BRANCH   7   8
HETATM    8  C6  UNL     1      22.451   9.228  22.603  1.00  0.00     0.292 C 
HETATM    9  O2  UNL     1      22.351   8.871  21.274  1.00  0.00    -0.349 OA
HETATM   10  C5  UNL     1      21.102   8.361  20.917  1.00  0.00     0.173 C 
HETATM   11  C21 UNL     1      20.945   7.017  21.641  1.00  0.00     0.180 C 
HETATM   12  C20 UNL     1      20.825   7.362  23.108  1.00  0.00     0.183 C 
HETATM   13  C19 UNL     1      22.002   8.164  23.570  1.00  0.00     0.204 C 
BRANCH  10  14
HETATM   14  C4  UNL     1      21.100   8.144  19.441  1.00  0.00     0.157 C 
BRANCH  14  15
HETATM   15  N1  UNL     1      22.129   8.944  18.826  1.00  0.00    -0.359 N 
HETATM   16  C3  UNL     1      21.876  10.274  18.398  1.00  0.00     0.217 C 
HETATM   17  O1  UNL     1      20.724  10.741  18.569  1.00  0.00    -0.274 OA
ATOM     18  H1  UNL     1      23.059   8.547  18.694  1.00  0.00     0.162 HD
BRANCH  16  19
HETATM   19  C2  UNL     1      22.965  11.073  17.765  1.00  0.00     0.098 C 
HETATM   20  C1  UNL     1      22.652  12.552  17.828  1.00  0.00     0.014 C 
ENDBRANCH  16  19
ENDBRANCH  14  15
ENDBRANCH  10  14
BRANCH  11  21
HETATM   21  O9  UNL     1      22.006   6.173  21.376  1.00  0.00    -0.390 OA
ATOM     22  H9  UNL     1      22.289   5.714  22.159  1.00  0.00     0.210 HD
ENDBRANCH  11  21
BRANCH  12  23
HETATM   23  O8  UNL     1      20.582   6.255  23.893  1.00  0.00    -0.390 OA
ATOM     24  H8  UNL     1      21.371   5.773  24.112  1.00  0.00     0.210 HD
ENDBRANCH  12  23
BRANCH  13  25
HETATM   25  O7  UNL     1      23.080   7.300  23.779  1.00  0.00    -0.388 OA
ATOM     26  H7  UNL     1      22.900   6.497  23.305  1.00  0.00     0.210 HD
ENDBRANCH  13  25
ENDBRANCH   7   8
ENDBRANCH   1   7
BRANCH   2  27
HETATM   27  N2  UNL     1      23.693  11.886  21.230  1.00  0.00    -0.072 N 
ATOM     28  H23 UNL     1      24.449  11.371  21.681  1.00  0.00     0.274 HD
ATOM     29  H22 UNL     1      23.305  11.131  20.666  1.00  0.00     0.274 HD
ATOM     30  H21 UNL     1      24.051  12.644  20.648  1.00  0.00     0.274 HD
ENDBRANCH   2  27
BRANCH   6  31
HETATM   31  O4  UNL     1      21.791  11.640  25.648  1.00  0.00    -0.353 OA
BRANCH  31  32
HETATM   32  C13 UNL     1      22.982  11.884  26.329  1.00  0.00     0.261 C 
HETATM   33  C14 UNL     1      23.891  10.666  26.303  1.00  0.00     0.070 C 
HETATM   34  C15 UNL     1      24.761  10.900  27.513  1.00  0.00     0.048 A 
HETATM   35  C16 UNL     1      24.691   9.805  28.552  1.00  0.00     0.127 A 
HETATM   36  C18 UNL     1      23.936  11.833  28.345  1.00  0.00     0.133 A 
HETATM   37  C17 UNL     1      23.838  10.721  29.395  1.00  0.00     0.064 A 
HETATM   38  O6  UNL     1      22.762  12.073  27.670  1.00  0.00    -0.355 OA
BRANCH  35  39
HETATM   39  O5  UNL     1      24.056   8.639  28.140  1.00  0.00    -0.395 OA
ATOM     40  H5  UNL     1      24.023   7.946  28.788  1.00  0.00     0.210 HD
ENDBRANCH  35  39
ENDBRANCH  31  32
ENDBRANCH   6  31
TORSDOF 12
ENDMDL
