MODEL 1
REMARK VINA RESULT: -7.838602576      0.000      0.000
REMARK  10 active torsions:
REMARK  status: ('A' for Active; 'I' for Inactive)
REMARK    1  A    between atoms: N1_2  and  C2_4 
REMARK    2  A    between atoms: C3_7  and  C4_8 
REMARK    3  A    between atoms: C5_9  and  C6_10 
REMARK       I    between atoms: C6_10  and  N3_12 
REMARK    4  A    between atoms: C9_15  and  S1_16 
REMARK    5  A    between atoms: S1_16  and  N4_17 
REMARK    6  A    between atoms: C10_22  and  C11_23 
REMARK    7  A    between atoms: C11_23  and  N5_25 
REMARK    8  A    between atoms: N5_25  and  C13_27 
REMARK    9  A    between atoms: C13_27  and  O4_28 
REMARK   10  A    between atoms: C14_30  and  N6_31 
ROOT
HETATM    1  C6  UNL     1      18.192 -12.833  20.530  1.00  0.00     0.299 C 
HETATM    2  O1  UNL     1      18.479 -11.896  19.759  1.00  0.00    -0.258 OA
HETATM    3  N3  UNL     1      17.009 -13.529  20.476  1.00  0.00    -0.333 N 
HETATM    4  C7  UNL     1      16.722 -14.674  21.386  1.00  0.00     0.129 C 
HETATM    5  C8  UNL     1      16.477 -15.710  20.277  1.00  0.00     0.044 C 
HETATM    6  C9  UNL     1      15.857 -14.873  19.096  1.00  0.00     0.155 C 
HETATM    7  C10 UNL     1      15.803 -13.528  19.692  1.00  0.00     0.130 C 
ENDROOT
BRANCH   1   8
HETATM    8  C5  UNL     1      19.247 -13.123  21.511  1.00  0.00     0.003 C 
HETATM    9  C4  UNL     1      20.129 -13.349  22.305  1.00  0.00    -0.018 C 
BRANCH   9  10
HETATM   10  C3  UNL     1      21.177 -13.593  23.256  1.00  0.00     0.192 A 
HETATM   11  N2  UNL     1      22.482 -13.605  22.986  1.00  0.00    -0.166 N 
HETATM   12  C2  UNL     1      23.182 -13.867  24.106  1.00  0.00     0.694 A 
ATOM     13  H2  UNL     1      22.890 -13.440  22.066  1.00  0.00     0.186 HD
HETATM   14  N8  UNL     1      22.276 -14.022  25.106  1.00  0.00    -0.130 N 
HETATM   15  N7  UNL     1      21.079 -13.855  24.578  1.00  0.00    -0.263 N 
ATOM     16  H8  UNL     1      22.483 -14.230  26.083  1.00  0.00     0.205 HD
ATOM     17  H7  UNL     1      20.202 -13.914  25.095  1.00  0.00     0.189 HD
BRANCH  12  18
HETATM   18  N1  UNL     1      24.454 -13.966  24.277  1.00  0.00    -0.229 N 
HETATM   19  C1  UNL     1      25.015 -15.194  24.805  1.00  0.00     0.165 C 
ATOM     20  H1  UNL     1      25.065 -13.184  24.042  1.00  0.00     0.177 HD
ENDBRANCH  12  18
ENDBRANCH   9  10
ENDBRANCH   1   8
BRANCH   7  21
HETATM   21  C11 UNL     1      15.642 -12.331  18.872  1.00  0.00     0.104 C 
HETATM   22  C12 UNL     1      16.180 -12.517  17.428  1.00  0.00     0.034 C 
BRANCH  21  23
HETATM   23  N5  UNL     1      14.231 -12.003  18.616  1.00  0.00    -0.364 N 
ATOM     24  H5  UNL     1      13.605 -12.776  18.392  1.00  0.00     0.162 HD
BRANCH  23  25
HETATM   25  C13 UNL     1      13.681 -10.730  18.652  1.00  0.00     0.160 C 
HETATM   26  C14 UNL     1      13.162 -10.016  19.790  1.00  0.00     0.257 C 
BRANCH  25  27
HETATM   27  O4  UNL     1      13.612 -10.073  17.530  1.00  0.00    -0.345 OA
ATOM     28  H4  UNL     1      12.749  -9.822  17.221  1.00  0.00     0.219 HD
ENDBRANCH  25  27
BRANCH  26  29
HETATM   29  N6  UNL     1      13.176 -10.615  21.077  1.00  0.00    -0.047 N 
HETATM   30  C15 UNL     1      14.433 -10.749  21.725  1.00  0.00     0.278 C 
HETATM   31  C16 UNL     1      12.446 -11.855  21.141  1.00  0.00     0.243 C 
HETATM   32  C17 UNL     1      12.121 -12.066  22.617  1.00  0.00     0.030 C 
HETATM   33  C18 UNL     1      12.007 -10.677  23.149  1.00  0.00     0.030 C 
HETATM   34  C19 UNL     1      12.327  -9.790  21.987  1.00  0.00     0.243 C 
ENDBRANCH  26  29
ENDBRANCH  23  25
ENDBRANCH  21  23
ENDBRANCH   7  21
BRANCH   6  35
HETATM   35  S1  UNL     1      14.347 -15.702  18.766  1.00  0.00     0.230 S 
HETATM   36  O2  UNL     1      14.238 -17.043  19.409  1.00  0.00    -0.206 OA
HETATM   37  O3  UNL     1      13.138 -14.821  19.044  1.00  0.00    -0.206 OA
BRANCH  35  38
HETATM   38  N4  UNL     1      14.213 -15.984  17.026  1.00  0.00    -0.328 N 
ATOM     39  H42 UNL     1      14.232 -16.903  16.584  1.00  0.00     0.168 HD
ATOM     40  H41 UNL     1      14.116 -15.087  16.551  1.00  0.00     0.168 HD
ENDBRANCH  35  38
ENDBRANCH   6  35
TORSDOF 10
ENDMDL
MODEL 2
REMARK VINA RESULT: -7.686111439      3.981      8.905
REMARK  10 active torsions:
REMARK  status: ('A' for Active; 'I' for Inactive)
REMARK    1  A    between atoms: N1_2  and  C2_4 
REMARK    2  A    between atoms: C3_7  and  C4_8 
REMARK    3  A    between atoms: C5_9  and  C6_10 
REMARK       I    between atoms: C6_10  and  N3_12 
REMARK    4  A    between atoms: C9_15  and  S1_16 
REMARK    5  A    between atoms: S1_16  and  N4_17 
REMARK    6  A    between atoms: C10_22  and  C11_23 
REMARK    7  A    between atoms: C11_23  and  N5_25 
REMARK    8  A    between atoms: N5_25  and  C13_27 
REMARK    9  A    between atoms: C13_27  and  O4_28 
REMARK   10  A    between atoms: C14_30  and  N6_31 
ROOT
HETATM    1  C6  UNL     1      17.246 -11.742  17.029  1.00  0.00     0.299 C 
HETATM    2  O1  UNL     1      18.462 -11.670  17.293  1.00  0.00    -0.258 OA
HETATM    3  N3  UNL     1      16.275 -11.988  17.970  1.00  0.00    -0.333 N 
HETATM    4  C7  UNL     1      14.826 -12.022  17.622  1.00  0.00     0.129 C 
HETATM    5  C8  UNL     1      14.395 -10.921  18.604  1.00  0.00     0.044 C 
HETATM    6  C9  UNL     1      15.388 -11.073  19.817  1.00  0.00     0.155 C 
HETATM    7  C10 UNL     1      16.196 -12.226  19.387  1.00  0.00     0.130 C 
ENDROOT
BRANCH   1   8
HETATM    8  C5  UNL     1      16.946 -11.539  15.605  1.00  0.00     0.003 C 
HETATM    9  C4  UNL     1      16.707 -11.394  14.429  1.00  0.00    -0.018 C 
BRANCH   9  10
HETATM   10  C3  UNL     1      16.403 -11.238  13.035  1.00  0.00     0.192 A 
HETATM   11  N2  UNL     1      17.203 -11.577  12.024  1.00  0.00    -0.166 N 
HETATM   12  C2  UNL     1      16.608 -11.294  10.850  1.00  0.00     0.694 A 
ATOM     13  H2  UNL     1      18.130 -11.990  12.125  1.00  0.00     0.186 HD
HETATM   14  N8  UNL     1      15.395 -10.761  11.146  1.00  0.00    -0.130 N 
HETATM   15  N7  UNL     1      15.289 -10.735  12.461  1.00  0.00    -0.263 N 
ATOM     16  H8  UNL     1      14.695 -10.439  10.476  1.00  0.00     0.205 HD
ATOM     17  H7  UNL     1      14.479 -10.384  12.972  1.00  0.00     0.189 HD
BRANCH  12  18
HETATM   18  N1  UNL     1      17.036 -11.464   9.648  1.00  0.00    -0.229 N 
HETATM   19  C1  UNL     1      18.399 -11.908   9.427  1.00  0.00     0.165 C 
ATOM     20  H1  UNL     1      16.419 -11.289   8.855  1.00  0.00     0.177 HD
ENDBRANCH  12  18
ENDBRANCH   9  10
ENDBRANCH   1   8
BRANCH   7  21
HETATM   21  C11 UNL     1      17.485 -12.533  19.999  1.00  0.00     0.104 C 
HETATM   22  C12 UNL     1      18.130 -11.299  20.684  1.00  0.00     0.034 C 
BRANCH  21  23
HETATM   23  N5  UNL     1      17.368 -13.465  21.132  1.00  0.00    -0.364 N 
ATOM     24  H5  UNL     1      17.025 -13.088  22.014  1.00  0.00     0.162 HD
BRANCH  23  25
HETATM   25  C13 UNL     1      17.688 -14.814  21.100  1.00  0.00     0.160 C 
HETATM   26  C14 UNL     1      18.755 -15.494  21.789  1.00  0.00     0.257 C 
BRANCH  25  27
HETATM   27  O4  UNL     1      16.947 -15.590  20.362  1.00  0.00    -0.345 OA
ATOM     28  H4  UNL     1      16.869 -16.500  20.623  1.00  0.00     0.219 HD
ENDBRANCH  25  27
BRANCH  26  29
HETATM   29  N6  UNL     1      19.639 -14.769  22.630  1.00  0.00    -0.047 N 
HETATM   30  C15 UNL     1      19.068 -14.029  23.701  1.00  0.00     0.278 C 
HETATM   31  C16 UNL     1      20.580 -13.953  21.905  1.00  0.00     0.243 C 
HETATM   32  C17 UNL     1      21.729 -13.691  22.875  1.00  0.00     0.030 C 
HETATM   33  C18 UNL     1      21.741 -14.908  23.736  1.00  0.00     0.030 C 
HETATM   34  C19 UNL     1      20.590 -15.734  23.255  1.00  0.00     0.243 C 
ENDBRANCH  26  29
ENDBRANCH  23  25
ENDBRANCH  21  23
ENDBRANCH   7  21
BRANCH   6  35
HETATM   35  S1  UNL     1      14.316 -11.270  21.192  1.00  0.00     0.230 S 
HETATM   36  O2  UNL     1      14.738 -12.341  22.141  1.00  0.00    -0.206 OA
HETATM   37  O3  UNL     1      14.032  -9.949  21.890  1.00  0.00    -0.206 OA
BRANCH  35  38
HETATM   38  N4  UNL     1      12.715 -11.740  20.610  1.00  0.00    -0.328 N 
ATOM     39  H42 UNL     1      12.538 -12.481  19.932  1.00  0.00     0.168 HD
ATOM     40  H41 UNL     1      12.013 -11.154  21.061  1.00  0.00     0.168 HD
ENDBRANCH  35  38
ENDBRANCH   6  35
TORSDOF 10
ENDMDL
MODEL 3
REMARK VINA RESULT: -7.562485020      2.761      4.380
REMARK  10 active torsions:
REMARK  status: ('A' for Active; 'I' for Inactive)
REMARK    1  A    between atoms: N1_2  and  C2_4 
REMARK    2  A    between atoms: C3_7  and  C4_8 
REMARK    3  A    between atoms: C5_9  and  C6_10 
REMARK       I    between atoms: C6_10  and  N3_12 
REMARK    4  A    between atoms: C9_15  and  S1_16 
REMARK    5  A    between atoms: S1_16  and  N4_17 
REMARK    6  A    between atoms: C10_22  and  C11_23 
REMARK    7  A    between atoms: C11_23  and  N5_25 
REMARK    8  A    between atoms: N5_25  and  C13_27 
REMARK    9  A    between atoms: C13_27  and  O4_28 
REMARK   10  A    between atoms: C14_30  and  N6_31 
ROOT
HETATM    1  C6  UNL     1      17.418 -13.075  21.726  1.00  0.00     0.299 C 
HETATM    2  O1  UNL     1      16.461 -13.003  22.521  1.00  0.00    -0.258 OA
HETATM    3  N3  UNL     1      17.285 -12.983  20.362  1.00  0.00    -0.333 N 
HETATM    4  C7  UNL     1      18.460 -13.027  19.446  1.00  0.00     0.129 C 
HETATM    5  C8  UNL     1      18.201 -11.668  18.778  1.00  0.00     0.044 C 
HETATM    6  C9  UNL     1      16.632 -11.526  18.784  1.00  0.00     0.155 C 
HETATM    7  C10 UNL     1      16.229 -12.800  19.401  1.00  0.00     0.130 C 
ENDROOT
BRANCH   1   8
HETATM    8  C5  UNL     1      18.714 -13.271  22.391  1.00  0.00     0.003 C 
HETATM    9  C4  UNL     1      19.779 -13.409  22.944  1.00  0.00    -0.018 C 
BRANCH   9  10
HETATM   10  C3  UNL     1      21.034 -13.571  23.623  1.00  0.00     0.192 A 
HETATM   11  N2  UNL     1      22.208 -13.805  23.037  1.00  0.00    -0.166 N 
HETATM   12  C2  UNL     1      23.176 -13.903  23.968  1.00  0.00     0.694 A 
ATOM     13  H2  UNL     1      22.352 -13.896  22.032  1.00  0.00     0.186 HD
HETATM   14  N8  UNL     1      22.579 -13.723  25.173  1.00  0.00    -0.130 N 
HETATM   15  N7  UNL     1      21.294 -13.525  24.947  1.00  0.00    -0.263 N 
ATOM     16  H8  UNL     1      23.037 -13.738  26.085  1.00  0.00     0.205 HD
ATOM     17  H7  UNL     1      20.595 -13.359  25.672  1.00  0.00     0.189 HD
BRANCH  12  18
HETATM   18  N1  UNL     1      24.436 -14.122  23.824  1.00  0.00    -0.229 N 
HETATM   19  C1  UNL     1      25.030 -15.311  24.404  1.00  0.00     0.165 C 
ATOM     20  H1  UNL     1      25.014 -13.463  23.304  1.00  0.00     0.177 HD
ENDBRANCH  12  18
ENDBRANCH   9  10
ENDBRANCH   1   8
BRANCH   7  21
HETATM   21  C11 UNL     1      14.894 -12.995  19.958  1.00  0.00     0.104 C 
HETATM   22  C12 UNL     1      13.769 -12.755  18.916  1.00  0.00     0.034 C 
BRANCH  21  23
HETATM   23  N5  UNL     1      14.638 -14.392  20.345  1.00  0.00    -0.364 N 
ATOM     24  H5  UNL     1      15.242 -15.107  19.940  1.00  0.00     0.162 HD
BRANCH  23  25
HETATM   25  C13 UNL     1      13.643 -14.818  21.212  1.00  0.00     0.160 C 
HETATM   26  C14 UNL     1      12.678 -15.869  21.014  1.00  0.00     0.257 C 
BRANCH  25  27
HETATM   27  O4  UNL     1      13.545 -14.210  22.359  1.00  0.00    -0.345 OA
ATOM     28  H4  UNL     1      13.014 -14.622  23.030  1.00  0.00     0.219 HD
ENDBRANCH  25  27
BRANCH  26  29
HETATM   29  N6  UNL     1      12.672 -16.615  19.807  1.00  0.00    -0.047 N 
HETATM   30  C15 UNL     1      13.885 -17.243  19.417  1.00  0.00     0.278 C 
HETATM   31  C16 UNL     1      12.098 -15.902  18.694  1.00  0.00     0.243 C 
HETATM   32  C17 UNL     1      11.694 -16.972  17.684  1.00  0.00     0.030 C 
HETATM   33  C18 UNL     1      11.371 -18.152  18.538  1.00  0.00     0.030 C 
HETATM   34  C19 UNL     1      11.663 -17.708  19.936  1.00  0.00     0.243 C 
ENDBRANCH  26  29
ENDBRANCH  23  25
ENDBRANCH  21  23
ENDBRANCH   7  21
BRANCH   6  35
HETATM   35  S1  UNL     1      16.247 -11.257  17.094  1.00  0.00     0.230 S 
HETATM   36  O2  UNL     1      14.836 -10.839  16.853  1.00  0.00    -0.206 OA
HETATM   37  O3  UNL     1      17.252 -10.337  16.417  1.00  0.00    -0.206 OA
BRANCH  35  38
HETATM   38  N4  UNL     1      16.464 -12.770  16.207  1.00  0.00    -0.328 N 
ATOM     39  H42 UNL     1      16.153 -13.685  16.534  1.00  0.00     0.168 HD
ATOM     40  H41 UNL     1      16.944 -12.573  15.328  1.00  0.00     0.168 HD
ENDBRANCH  35  38
ENDBRANCH   6  35
TORSDOF 10
ENDMDL
MODEL 4
REMARK VINA RESULT: -7.548986308      1.688      2.139
REMARK  10 active torsions:
REMARK  status: ('A' for Active; 'I' for Inactive)
REMARK    1  A    between atoms: N1_2  and  C2_4 
REMARK    2  A    between atoms: C3_7  and  C4_8 
REMARK    3  A    between atoms: C5_9  and  C6_10 
REMARK       I    between atoms: C6_10  and  N3_12 
REMARK    4  A    between atoms: C9_15  and  S1_16 
REMARK    5  A    between atoms: S1_16  and  N4_17 
REMARK    6  A    between atoms: C10_22  and  C11_23 
REMARK    7  A    between atoms: C11_23  and  N5_25 
REMARK    8  A    between atoms: N5_25  and  C13_27 
REMARK    9  A    between atoms: C13_27  and  O4_28 
REMARK   10  A    between atoms: C14_30  and  N6_31 
ROOT
HETATM    1  C6  UNL     1      19.318 -13.638  20.945  1.00  0.00     0.299 C 
HETATM    2  O1  UNL     1      19.697 -13.101  19.886  1.00  0.00    -0.258 OA
HETATM    3  N3  UNL     1      18.043 -14.108  21.147  1.00  0.00    -0.333 N 
HETATM    4  C7  UNL     1      17.640 -14.787  22.412  1.00  0.00     0.129 C 
HETATM    5  C8  UNL     1      17.179 -16.098  21.756  1.00  0.00     0.044 C 
HETATM    6  C9  UNL     1      16.624 -15.654  20.350  1.00  0.00     0.155 C 
HETATM    7  C10 UNL     1      16.807 -14.194  20.415  1.00  0.00     0.130 C 
ENDROOT
BRANCH   1   8
HETATM    8  C5  UNL     1      20.373 -13.722  21.965  1.00  0.00     0.003 C 
HETATM    9  C4  UNL     1      21.223 -13.800  22.819  1.00  0.00    -0.018 C 
BRANCH   9  10
HETATM   10  C3  UNL     1      22.235 -13.918  23.831  1.00  0.00     0.192 A 
HETATM   11  N2  UNL     1      23.320 -14.688  23.755  1.00  0.00    -0.166 N 
HETATM   12  C2  UNL     1      24.055 -14.561  24.877  1.00  0.00     0.694 A 
ATOM     13  H2  UNL     1      23.559 -15.286  22.965  1.00  0.00     0.186 HD
HETATM   14  N8  UNL     1      23.400 -13.679  25.675  1.00  0.00    -0.130 N 
HETATM   15  N7  UNL     1      22.311 -13.304  25.032  1.00  0.00    -0.263 N 
ATOM     16  H8  UNL     1      23.695 -13.365  26.600  1.00  0.00     0.205 HD
ATOM     17  H7  UNL     1      21.622 -12.642  25.391  1.00  0.00     0.189 HD
BRANCH  12  18
HETATM   18  N1  UNL     1      25.165 -15.126  25.202  1.00  0.00    -0.229 N 
HETATM   19  C1  UNL     1      25.153 -16.458  25.776  1.00  0.00     0.165 C 
ATOM     20  H1  UNL     1      26.049 -14.639  25.057  1.00  0.00     0.177 HD
ENDBRANCH  12  18
ENDBRANCH   9  10
ENDBRANCH   1   8
BRANCH   7  21
HETATM   21  C11 UNL     1      16.781 -13.363  19.216  1.00  0.00     0.104 C 
HETATM   22  C12 UNL     1      16.046 -14.045  18.031  1.00  0.00     0.034 C 
BRANCH  21  23
HETATM   23  N5  UNL     1      15.980 -12.141  19.389  1.00  0.00    -0.364 N 
ATOM     24  H5  UNL     1      15.125 -12.060  18.838  1.00  0.00     0.162 HD
BRANCH  23  25
HETATM   25  C13 UNL     1      16.289 -11.089  20.238  1.00  0.00     0.160 C 
HETATM   26  C14 UNL     1      15.404 -10.354  21.105  1.00  0.00     0.257 C 
BRANCH  25  27
HETATM   27  O4  UNL     1      17.529 -10.694  20.279  1.00  0.00    -0.345 OA
ATOM     28  H4  UNL     1      17.770 -10.076  20.959  1.00  0.00     0.219 HD
ENDBRANCH  25  27
BRANCH  26  29
HETATM   29  N6  UNL     1      14.024 -10.680  21.161  1.00  0.00    -0.047 N 
HETATM   30  C15 UNL     1      13.315 -10.746  19.931  1.00  0.00     0.278 C 
HETATM   31  C16 UNL     1      13.287  -9.899  22.122  1.00  0.00     0.243 C 
HETATM   32  C17 UNL     1      12.025 -10.702  22.423  1.00  0.00     0.030 C 
HETATM   33  C18 UNL     1      12.460 -12.117  22.235  1.00  0.00     0.030 C 
HETATM   34  C19 UNL     1      13.885 -12.027  21.790  1.00  0.00     0.243 C 
ENDBRANCH  26  29
ENDBRANCH  23  25
ENDBRANCH  21  23
ENDBRANCH   7  21
BRANCH   6  35
HETATM   35  S1  UNL     1      14.990 -16.291  20.343  1.00  0.00     0.230 S 
HETATM   36  O2  UNL     1      13.935 -15.256  20.540  1.00  0.00    -0.206 OA
HETATM   37  O3  UNL     1      14.725 -17.174  19.132  1.00  0.00    -0.206 OA
BRANCH  35  38
HETATM   38  N4  UNL     1      14.811 -17.429  21.684  1.00  0.00    -0.328 N 
ATOM     39  H42 UNL     1      15.247 -17.321  22.600  1.00  0.00     0.168 HD
ATOM     40  H41 UNL     1      14.207 -18.197  21.389  1.00  0.00     0.168 HD
ENDBRANCH  35  38
ENDBRANCH   6  35
TORSDOF 10
ENDMDL
MODEL 5
REMARK VINA RESULT: -7.547812043      2.469      4.664
REMARK  10 active torsions:
REMARK  status: ('A' for Active; 'I' for Inactive)
REMARK    1  A    between atoms: N1_2  and  C2_4 
REMARK    2  A    between atoms: C3_7  and  C4_8 
REMARK    3  A    between atoms: C5_9  and  C6_10 
REMARK       I    between atoms: C6_10  and  N3_12 
REMARK    4  A    between atoms: C9_15  and  S1_16 
REMARK    5  A    between atoms: S1_16  and  N4_17 
REMARK    6  A    between atoms: C10_22  and  C11_23 
REMARK    7  A    between atoms: C11_23  and  N5_25 
REMARK    8  A    between atoms: N5_25  and  C13_27 
REMARK    9  A    between atoms: C13_27  and  O4_28 
REMARK   10  A    between atoms: C14_30  and  N6_31 
ROOT
HETATM    1  C6  UNL     1      18.332 -13.515  22.564  1.00  0.00     0.299 C 
HETATM    2  O1  UNL     1      17.565 -13.503  23.546  1.00  0.00    -0.258 OA
HETATM    3  N3  UNL     1      17.908 -13.372  21.264  1.00  0.00    -0.333 N 
HETATM    4  C7  UNL     1      18.862 -13.346  20.119  1.00  0.00     0.129 C 
HETATM    5  C8  UNL     1      18.439 -11.969  19.583  1.00  0.00     0.044 C 
HETATM    6  C9  UNL     1      16.905 -11.873  19.929  1.00  0.00     0.155 C 
HETATM    7  C10 UNL     1      16.668 -13.182  20.559  1.00  0.00     0.130 C 
ENDROOT
BRANCH   1   8
HETATM    8  C5  UNL     1      19.744 -13.699  22.928  1.00  0.00     0.003 C 
HETATM    9  C4  UNL     1      20.901 -13.835  23.246  1.00  0.00    -0.018 C 
BRANCH   9  10
HETATM   10  C3  UNL     1      22.270 -14.010  23.644  1.00  0.00     0.192 A 
HETATM   11  N2  UNL     1      22.697 -14.818  24.615  1.00  0.00    -0.166 N 
HETATM   12  C2  UNL     1      24.037 -14.738  24.724  1.00  0.00     0.694 A 
ATOM     13  H2  UNL     1      22.097 -15.410  25.189  1.00  0.00     0.186 HD
HETATM   14  N8  UNL     1      24.453 -13.849  23.787  1.00  0.00    -0.130 N 
HETATM   15  N7  UNL     1      23.380 -13.423  23.148  1.00  0.00    -0.263 N 
ATOM     16  H8  UNL     1      25.416 -13.564  23.609  1.00  0.00     0.205 HD
ATOM     17  H7  UNL     1      23.388 -12.744  22.387  1.00  0.00     0.189 HD
BRANCH  12  18
HETATM   18  N1  UNL     1      24.834 -15.350  25.528  1.00  0.00    -0.229 N 
HETATM   19  C1  UNL     1      24.383 -16.543  26.219  1.00  0.00     0.165 C 
ATOM     20  H1  UNL     1      25.779 -14.997  25.679  1.00  0.00     0.177 HD
ENDBRANCH  12  18
ENDBRANCH   9  10
ENDBRANCH   1   8
BRANCH   7  21
HETATM   21  C11 UNL     1      15.487 -13.438  21.378  1.00  0.00     0.104 C 
HETATM   22  C12 UNL     1      14.692 -12.145  21.702  1.00  0.00     0.034 C 
BRANCH  21  23
HETATM   23  N5  UNL     1      14.470 -14.236  20.675  1.00  0.00    -0.364 N 
ATOM     24  H5  UNL     1      14.267 -13.986  19.707  1.00  0.00     0.162 HD
BRANCH  23  25
HETATM   25  C13 UNL     1      13.764 -15.298  21.218  1.00  0.00     0.160 C 
HETATM   26  C14 UNL     1      13.383 -16.534  20.581  1.00  0.00     0.257 C 
BRANCH  25  27
HETATM   27  O4  UNL     1      13.383 -15.196  22.458  1.00  0.00    -0.345 OA
ATOM     28  H4  UNL     1      13.819 -15.747  23.098  1.00  0.00     0.219 HD
ENDBRANCH  25  27
BRANCH  26  29
HETATM   29  N6  UNL     1      13.735 -16.778  19.228  1.00  0.00    -0.047 N 
HETATM   30  C15 UNL     1      15.118 -16.859  18.913  1.00  0.00     0.278 C 
HETATM   31  C16 UNL     1      13.059 -15.914  18.294  1.00  0.00     0.243 C 
HETATM   32  C17 UNL     1      13.128 -16.628  16.948  1.00  0.00     0.030 C 
HETATM   33  C18 UNL     1      13.141 -18.072  17.321  1.00  0.00     0.030 C 
HETATM   34  C19 UNL     1      13.141 -18.084  18.818  1.00  0.00     0.243 C 
ENDBRANCH  26  29
ENDBRANCH  23  25
ENDBRANCH  21  23
ENDBRANCH   7  21
BRANCH   6  35
HETATM   35  S1  UNL     1      16.162 -11.548  18.373  1.00  0.00     0.230 S 
HETATM   36  O2  UNL     1      14.813 -10.919  18.466  1.00  0.00    -0.206 OA
HETATM   37  O3  UNL     1      17.096 -10.792  17.439  1.00  0.00    -0.206 OA
BRANCH  35  38
HETATM   38  N4  UNL     1      15.929 -13.076  17.517  1.00  0.00    -0.328 N 
ATOM     39  H42 UNL     1      15.052 -13.594  17.481  1.00  0.00     0.168 HD
ATOM     40  H41 UNL     1      16.808 -13.344  17.072  1.00  0.00     0.168 HD
ENDBRANCH  35  38
ENDBRANCH   6  35
TORSDOF 10
ENDMDL
