MODEL 1
REMARK VINA RESULT: -8.149841269      0.000      0.000
REMARK  8 active torsions:
REMARK  status: ('A' for Active; 'I' for Inactive)
REMARK    1  A    between atoms: C3_3  and  N1_4 
REMARK    2  A    between atoms: N1_4  and  C4_6 
REMARK    3  A    between atoms: C4_6  and  N2_8 
REMARK    4  A    between atoms: N3_11  and  C7_12 
REMARK    5  A    between atoms: C7_12  and  N4_14 
REMARK    6  A    between atoms: N4_14  and  S3_16 
REMARK    7  A    between atoms: S3_16  and  N5_19 
REMARK    8  A    between atoms: C10_22  and  C11_23 
REMARK       I    between atoms: C11_23  and  N6_25 
ROOT
HETATM    1  C1  UNL     1      21.187 -12.683  26.472  1.00  0.00     0.014 C 
HETATM    2  C2  UNL     1      22.058 -13.093  25.747  1.00  0.00    -0.098 C 
HETATM    3  C3  UNL     1      23.124 -13.568  24.867  1.00  0.00     0.215 C 
ENDROOT
BRANCH   3   4
HETATM    4  N1  UNL     1      22.614 -13.828  23.520  1.00  0.00    -0.357 N 
ATOM      5  H1  UNL     1      23.051 -13.369  22.721  1.00  0.00     0.162 HD
BRANCH   4   6
HETATM    6  C4  UNL     1      21.520 -14.708  23.308  1.00  0.00     0.170 C 
HETATM    7  S1  UNL     1      21.647 -16.258  23.826  1.00  0.00    -0.041 SA
BRANCH   6   8
HETATM    8  N2  UNL     1      20.321 -14.305  22.668  1.00  0.00    -0.355 N 
HETATM    9  C5  UNL     1      19.060 -14.792  23.182  1.00  0.00     0.145 C 
HETATM   10  C6  UNL     1      17.948 -13.881  22.692  1.00  0.00     0.145 C 
HETATM   11  N3  UNL     1      17.972 -13.883  21.252  1.00  0.00    -0.354 N 
HETATM   12  C14 UNL     1      19.234 -13.834  20.554  1.00  0.00     0.145 C 
HETATM   13  C15 UNL     1      20.360 -13.418  21.513  1.00  0.00     0.145 C 
BRANCH  11  14
HETATM   14  C7  UNL     1      16.753 -13.933  20.533  1.00  0.00     0.184 C 
HETATM   15  S2  UNL     1      15.457 -14.728  21.161  1.00  0.00    -0.040 SA
BRANCH  14  16
HETATM   16  N4  UNL     1      16.580 -13.311  19.275  1.00  0.00    -0.247 N 
ATOM     17  H4  UNL     1      16.926 -13.797  18.448  1.00  0.00     0.182 HD
BRANCH  16  18
HETATM   18  S3  UNL     1      15.824 -11.789  19.056  1.00  0.00     0.306 S 
HETATM   19  O1  UNL     1      15.055 -11.869  17.747  1.00  0.00    -0.188 OA
HETATM   20  O2  UNL     1      16.897 -10.764  18.845  1.00  0.00    -0.188 OA
BRANCH  18  21
HETATM   21  N5  UNL     1      14.730 -11.366  20.287  1.00  0.00    -0.168 NA
HETATM   22  C8  UNL     1      13.351 -11.361  19.919  1.00  0.00     0.113 C 
HETATM   23  C9  UNL     1      12.432 -11.166  21.111  1.00  0.00     0.058 C 
HETATM   24  C10 UNL     1      13.252 -10.597  22.240  1.00  0.00     0.279 C 
HETATM   25  N7  UNL     1      14.107  -9.530  21.727  1.00  0.00    -0.050 N 
HETATM   26  C13 UNL     1      15.060 -10.037  20.777  1.00  0.00     0.341 C 
ATOM     27  H72 UNL     1      13.558  -8.765  21.335  1.00  0.00     0.279 HD
ATOM     28  H71 UNL     1      14.566  -9.022  22.483  1.00  0.00     0.279 HD
BRANCH  24  29
HETATM   29  C11 UNL     1      12.372 -10.032  23.296  1.00  0.00     0.248 C 
HETATM   30  O3  UNL     1      11.391 -10.683  23.740  1.00  0.00    -0.271 OA
HETATM   31  N6  UNL     1      12.641  -8.752  23.805  1.00  0.00    -0.364 N 
HETATM   32  C12 UNL     1      11.803  -8.182  24.827  1.00  0.00     0.149 C 
ATOM     33  H6  UNL     1      13.437  -8.222  23.448  1.00  0.00     0.161 HD
ENDBRANCH  24  29
ENDBRANCH  18  21
ENDBRANCH  16  18
ENDBRANCH  14  16
ENDBRANCH  11  14
ENDBRANCH   6   8
ENDBRANCH   4   6
ENDBRANCH   3   4
TORSDOF 8
ENDMDL
MODEL 2
REMARK VINA RESULT: -7.927949662      3.005      4.156
REMARK  8 active torsions:
REMARK  status: ('A' for Active; 'I' for Inactive)
REMARK    1  A    between atoms: C3_3  and  N1_4 
REMARK    2  A    between atoms: N1_4  and  C4_6 
REMARK    3  A    between atoms: C4_6  and  N2_8 
REMARK    4  A    between atoms: N3_11  and  C7_12 
REMARK    5  A    between atoms: C7_12  and  N4_14 
REMARK    6  A    between atoms: N4_14  and  S3_16 
REMARK    7  A    between atoms: S3_16  and  N5_19 
REMARK    8  A    between atoms: C10_22  and  C11_23 
REMARK       I    between atoms: C11_23  and  N6_25 
ROOT
HETATM    1  C1  UNL     1      21.188 -12.693  25.928  1.00  0.00     0.014 C 
HETATM    2  C2  UNL     1      21.644 -13.421  25.083  1.00  0.00    -0.098 C 
HETATM    3  C3  UNL     1      22.220 -14.296  24.064  1.00  0.00     0.215 C 
ENDROOT
BRANCH   3   4
HETATM    4  N1  UNL     1      21.945 -13.786  22.720  1.00  0.00    -0.357 N 
ATOM      5  H1  UNL     1      22.584 -13.112  22.299  1.00  0.00     0.162 HD
BRANCH   4   6
HETATM    6  C4  UNL     1      20.803 -14.215  21.994  1.00  0.00     0.170 C 
HETATM    7  S1  UNL     1      20.512 -15.822  21.864  1.00  0.00    -0.041 SA
BRANCH   6   8
HETATM    8  N2  UNL     1      19.901 -13.313  21.375  1.00  0.00    -0.355 N 
HETATM    9  C5  UNL     1      18.538 -13.250  21.858  1.00  0.00     0.145 C 
HETATM   10  C6  UNL     1      17.925 -11.932  21.419  1.00  0.00     0.145 C 
HETATM   11  N3  UNL     1      17.983 -11.870  19.981  1.00  0.00    -0.354 N 
HETATM   12  C14 UNL     1      19.168 -12.320  19.290  1.00  0.00     0.145 C 
HETATM   13  C15 UNL     1      20.338 -12.466  20.274  1.00  0.00     0.145 C 
BRANCH  11  14
HETATM   14  C7  UNL     1      16.875 -11.365  19.258  1.00  0.00     0.184 C 
HETATM   15  S2  UNL     1      16.609 -11.854  17.710  1.00  0.00    -0.040 SA
BRANCH  14  16
HETATM   16  N4  UNL     1      15.954 -10.447  19.811  1.00  0.00    -0.247 N 
ATOM     17  H4  UNL     1      16.212  -9.460  19.830  1.00  0.00     0.182 HD
BRANCH  16  18
HETATM   18  S3  UNL     1      14.428 -10.890  20.451  1.00  0.00     0.306 S 
HETATM   19  O1  UNL     1      13.378 -10.335  19.503  1.00  0.00    -0.188 OA
HETATM   20  O2  UNL     1      14.241 -10.163  21.750  1.00  0.00    -0.188 OA
BRANCH  18  21
HETATM   21  N5  UNL     1      14.184 -12.568  20.585  1.00  0.00    -0.168 NA
HETATM   22  C8  UNL     1      13.324 -13.152  19.608  1.00  0.00     0.113 C 
HETATM   23  C9  UNL     1      13.312 -14.668  19.675  1.00  0.00     0.058 C 
HETATM   24  C10 UNL     1      13.854 -15.077  21.020  1.00  0.00     0.279 C 
HETATM   25  N7  UNL     1      13.255 -14.242  22.057  1.00  0.00    -0.050 N 
HETATM   26  C13 UNL     1      13.627 -12.861  21.896  1.00  0.00     0.341 C 
ATOM     27  H72 UNL     1      12.242 -14.355  22.091  1.00  0.00     0.279 HD
ATOM     28  H71 UNL     1      13.482 -14.584  22.991  1.00  0.00     0.279 HD
BRANCH  24  29
HETATM   29  C11 UNL     1      13.529 -16.497  21.308  1.00  0.00     0.248 C 
HETATM   30  O3  UNL     1      14.098 -17.117  22.244  1.00  0.00    -0.271 OA
HETATM   31  N6  UNL     1      12.570 -17.157  20.522  1.00  0.00    -0.364 N 
HETATM   32  C12 UNL     1      12.238 -18.534  20.781  1.00  0.00     0.149 C 
ATOM     33  H6  UNL     1      12.106 -16.657  19.764  1.00  0.00     0.161 HD
ENDBRANCH  24  29
ENDBRANCH  18  21
ENDBRANCH  16  18
ENDBRANCH  14  16
ENDBRANCH  11  14
ENDBRANCH   6   8
ENDBRANCH   4   6
ENDBRANCH   3   4
TORSDOF 8
ENDMDL
MODEL 3
REMARK VINA RESULT: -7.926801130      1.645      2.045
REMARK  8 active torsions:
REMARK  status: ('A' for Active; 'I' for Inactive)
REMARK    1  A    between atoms: C3_3  and  N1_4 
REMARK    2  A    between atoms: N1_4  and  C4_6 
REMARK    3  A    between atoms: C4_6  and  N2_8 
REMARK    4  A    between atoms: N3_11  and  C7_12 
REMARK    5  A    between atoms: C7_12  and  N4_14 
REMARK    6  A    between atoms: N4_14  and  S3_16 
REMARK    7  A    between atoms: S3_16  and  N5_19 
REMARK    8  A    between atoms: C10_22  and  C11_23 
REMARK       I    between atoms: C11_23  and  N6_25 
ROOT
HETATM    1  C1  UNL     1      21.233 -12.691  26.141  1.00  0.00     0.014 C 
HETATM    2  C2  UNL     1      21.715 -13.346  25.252  1.00  0.00    -0.098 C 
HETATM    3  C3  UNL     1      22.321 -14.134  24.180  1.00  0.00     0.215 C 
ENDROOT
BRANCH   3   4
HETATM    4  N1  UNL     1      22.009 -13.562  22.870  1.00  0.00    -0.357 N 
ATOM      5  H1  UNL     1      22.567 -12.786  22.515  1.00  0.00     0.162 HD
BRANCH   4   6
HETATM    6  C4  UNL     1      20.941 -14.072  22.084  1.00  0.00     0.170 C 
HETATM    7  S1  UNL     1      20.583 -15.667  22.186  1.00  0.00    -0.041 SA
BRANCH   6   8
HETATM    8  N2  UNL     1      20.170 -13.259  21.215  1.00  0.00    -0.355 N 
HETATM    9  C5  UNL     1      18.727 -13.313  21.309  1.00  0.00     0.145 C 
HETATM   10  C6  UNL     1      18.150 -12.059  20.676  1.00  0.00     0.145 C 
HETATM   11  N3  UNL     1      18.592 -12.007  19.306  1.00  0.00    -0.354 N 
HETATM   12  C14 UNL     1      19.953 -12.358  18.976  1.00  0.00     0.145 C 
HETATM   13  C15 UNL     1      20.819 -12.388  20.244  1.00  0.00     0.145 C 
BRANCH  11  14
HETATM   14  C7  UNL     1      17.685 -11.610  18.293  1.00  0.00     0.184 C 
HETATM   15  S2  UNL     1      17.983 -11.995  16.722  1.00  0.00    -0.040 SA
BRANCH  14  16
HETATM   16  N4  UNL     1      16.499 -10.891  18.567  1.00  0.00    -0.247 N 
ATOM     17  H4  UNL     1      16.562  -9.877  18.653  1.00  0.00     0.182 HD
BRANCH  16  18
HETATM   18  S3  UNL     1      14.961 -11.620  18.762  1.00  0.00     0.306 S 
HETATM   19  O1  UNL     1      15.184 -13.123  18.736  1.00  0.00    -0.188 OA
HETATM   20  O2  UNL     1      14.139 -11.302  17.549  1.00  0.00    -0.188 OA
BRANCH  18  21
HETATM   21  N5  UNL     1      14.178 -11.227  20.220  1.00  0.00    -0.168 NA
HETATM   22  C8  UNL     1      13.405 -12.269  20.811  1.00  0.00     0.113 C 
HETATM   23  C9  UNL     1      12.901 -11.906  22.196  1.00  0.00     0.058 C 
HETATM   24  C10 UNL     1      12.990 -10.409  22.343  1.00  0.00     0.279 C 
HETATM   25  N7  UNL     1      12.480  -9.773  21.132  1.00  0.00    -0.050 N 
HETATM   26  C13 UNL     1      13.293 -10.096  19.990  1.00  0.00     0.341 C 
ATOM     27  H72 UNL     1      11.500 -10.004  20.971  1.00  0.00     0.279 HD
ATOM     28  H71 UNL     1      12.385  -8.764  21.251  1.00  0.00     0.279 HD
BRANCH  24  29
HETATM   29  C11 UNL     1      12.180  -9.946  23.499  1.00  0.00     0.248 C 
HETATM   30  O3  UNL     1      11.465 -10.748  24.154  1.00  0.00    -0.271 OA
HETATM   31  N6  UNL     1      12.214  -8.590  23.865  1.00  0.00    -0.364 N 
HETATM   32  C12 UNL     1      11.438  -8.117  24.981  1.00  0.00     0.149 C 
ATOM     33  H6  UNL     1      12.793  -7.938  23.337  1.00  0.00     0.161 HD
ENDBRANCH  24  29
ENDBRANCH  18  21
ENDBRANCH  16  18
ENDBRANCH  14  16
ENDBRANCH  11  14
ENDBRANCH   6   8
ENDBRANCH   4   6
ENDBRANCH   3   4
TORSDOF 8
ENDMDL
MODEL 4
REMARK VINA RESULT: -7.924277528      2.731      4.636
REMARK  8 active torsions:
REMARK  status: ('A' for Active; 'I' for Inactive)
REMARK    1  A    between atoms: C3_3  and  N1_4 
REMARK    2  A    between atoms: N1_4  and  C4_6 
REMARK    3  A    between atoms: C4_6  and  N2_8 
REMARK    4  A    between atoms: N3_11  and  C7_12 
REMARK    5  A    between atoms: C7_12  and  N4_14 
REMARK    6  A    between atoms: N4_14  and  S3_16 
REMARK    7  A    between atoms: S3_16  and  N5_19 
REMARK    8  A    between atoms: C10_22  and  C11_23 
REMARK       I    between atoms: C11_23  and  N6_25 
ROOT
HETATM    1  C1  UNL     1      21.191 -12.707  26.362  1.00  0.00     0.014 C 
HETATM    2  C2  UNL     1      21.950 -13.106  25.516  1.00  0.00    -0.098 C 
HETATM    3  C3  UNL     1      22.881 -13.568  24.488  1.00  0.00     0.215 C 
ENDROOT
BRANCH   3   4
HETATM    4  N1  UNL     1      22.180 -13.843  23.233  1.00  0.00    -0.357 N 
ATOM      5  H1  UNL     1      22.388 -13.279  22.409  1.00  0.00     0.162 HD
BRANCH   4   6
HETATM    6  C4  UNL     1      21.216 -14.881  23.144  1.00  0.00     0.170 C 
HETATM    7  S1  UNL     1      21.594 -16.357  23.746  1.00  0.00    -0.041 SA
BRANCH   6   8
HETATM    8  N2  UNL     1      19.939 -14.697  22.556  1.00  0.00    -0.355 N 
HETATM    9  C5  UNL     1      18.899 -14.063  23.336  1.00  0.00     0.145 C 
HETATM   10  C6  UNL     1      17.832 -13.538  22.392  1.00  0.00     0.145 C 
HETATM   11  N3  UNL     1      17.323 -14.649  21.631  1.00  0.00    -0.354 N 
HETATM   12  C14 UNL     1      18.232 -15.649  21.124  1.00  0.00     0.145 C 
HETATM   13  C15 UNL     1      19.680 -15.140  21.193  1.00  0.00     0.145 C 
BRANCH  11  14
HETATM   14  C7  UNL     1      15.932 -14.751  21.386  1.00  0.00     0.184 C 
HETATM   15  S2  UNL     1      15.349 -15.950  20.423  1.00  0.00    -0.040 SA
BRANCH  14  16
HETATM   16  N4  UNL     1      14.989 -13.859  21.947  1.00  0.00    -0.247 N 
ATOM     17  H4  UNL     1      14.754 -13.968  22.934  1.00  0.00     0.182 HD
BRANCH  16  18
HETATM   18  S3  UNL     1      14.217 -12.606  21.070  1.00  0.00     0.306 S 
HETATM   19  O1  UNL     1      14.219 -11.380  21.968  1.00  0.00    -0.188 OA
HETATM   20  O2  UNL     1      12.777 -12.986  20.889  1.00  0.00    -0.188 OA
BRANCH  18  21
HETATM   21  N5  UNL     1      14.987 -12.195  19.611  1.00  0.00    -0.168 NA
HETATM   22  C8  UNL     1      16.198 -11.452  19.735  1.00  0.00     0.113 C 
HETATM   23  C9  UNL     1      16.921 -11.292  18.410  1.00  0.00     0.058 C 
HETATM   24  C10 UNL     1      15.934 -11.575  17.307  1.00  0.00     0.279 C 
HETATM   25  N7  UNL     1      14.675 -10.897  17.598  1.00  0.00    -0.050 N 
HETATM   26  C13 UNL     1      14.070 -11.412  18.798  1.00  0.00     0.341 C 
ATOM     27  H72 UNL     1      14.796  -9.885  17.645  1.00  0.00     0.279 HD
ATOM     28  H71 UNL     1      14.034 -10.941  16.807  1.00  0.00     0.279 HD
BRANCH  24  29
HETATM   29  C11 UNL     1      16.448 -11.082  16.003  1.00  0.00     0.248 C 
HETATM   30  O3  UNL     1      17.048  -9.979  15.917  1.00  0.00    -0.271 OA
HETATM   31  N6  UNL     1      16.259 -11.860  14.849  1.00  0.00    -0.364 N 
HETATM   32  C12 UNL     1      16.747 -11.403  13.574  1.00  0.00     0.149 C 
ATOM     33  H6  UNL     1      15.774 -12.755  14.916  1.00  0.00     0.161 HD
ENDBRANCH  24  29
ENDBRANCH  18  21
ENDBRANCH  16  18
ENDBRANCH  14  16
ENDBRANCH  11  14
ENDBRANCH   6   8
ENDBRANCH   4   6
ENDBRANCH   3   4
TORSDOF 8
ENDMDL
MODEL 5
REMARK VINA RESULT: -7.900563676      1.569      1.787
REMARK  8 active torsions:
REMARK  status: ('A' for Active; 'I' for Inactive)
REMARK    1  A    between atoms: C3_3  and  N1_4 
REMARK    2  A    between atoms: N1_4  and  C4_6 
REMARK    3  A    between atoms: C4_6  and  N2_8 
REMARK    4  A    between atoms: N3_11  and  C7_12 
REMARK    5  A    between atoms: C7_12  and  N4_14 
REMARK    6  A    between atoms: N4_14  and  S3_16 
REMARK    7  A    between atoms: S3_16  and  N5_19 
REMARK    8  A    between atoms: C10_22  and  C11_23 
REMARK       I    between atoms: C11_23  and  N6_25 
ROOT
HETATM    1  C1  UNL     1      21.191 -12.673  26.971  1.00  0.00     0.014 C 
HETATM    2  C2  UNL     1      20.756 -13.457  26.166  1.00  0.00    -0.098 C 
HETATM    3  C3  UNL     1      20.251 -14.409  25.180  1.00  0.00     0.215 C 
ENDROOT
BRANCH   3   4
HETATM    4  N1  UNL     1      19.309 -13.764  24.264  1.00  0.00    -0.357 N 
ATOM      5  H1  UNL     1      18.448 -13.360  24.633  1.00  0.00     0.162 HD
BRANCH   4   6
HETATM    6  C4  UNL     1      19.575 -13.691  22.871  1.00  0.00     0.170 C 
HETATM    7  S1  UNL     1      21.133 -13.725  22.366  1.00  0.00    -0.041 SA
BRANCH   6   8
HETATM    8  N2  UNL     1      18.550 -13.590  21.897  1.00  0.00    -0.355 N 
HETATM    9  C5  UNL     1      17.427 -14.500  21.970  1.00  0.00     0.145 C 
HETATM   10  C6  UNL     1      16.271 -13.913  21.181  1.00  0.00     0.145 C 
HETATM   11  N3  UNL     1      16.710 -13.720  19.823  1.00  0.00    -0.354 N 
HETATM   12  C14 UNL     1      18.031 -13.199  19.562  1.00  0.00     0.145 C 
HETATM   13  C15 UNL     1      18.627 -12.590  20.840  1.00  0.00     0.145 C 
BRANCH  11  14
HETATM   14  C7  UNL     1      15.840 -14.043  18.753  1.00  0.00     0.184 C 
HETATM   15  S2  UNL     1      15.315 -15.589  18.555  1.00  0.00    -0.040 SA
BRANCH  14  16
HETATM   16  N4  UNL     1      15.376 -13.081  17.827  1.00  0.00    -0.247 N 
ATOM     17  H4  UNL     1      15.212 -13.381  16.866  1.00  0.00     0.182 HD
BRANCH  16  18
HETATM   18  S3  UNL     1      15.071 -11.442  18.220  1.00  0.00     0.306 S 
HETATM   19  O1  UNL     1      14.201 -10.880  17.108  1.00  0.00    -0.188 OA
HETATM   20  O2  UNL     1      16.371 -10.698  18.145  1.00  0.00    -0.188 OA
BRANCH  18  21
HETATM   21  N5  UNL     1      14.257 -11.214  19.695  1.00  0.00    -0.168 NA
HETATM   22  C8  UNL     1      13.278 -12.199  20.023  1.00  0.00     0.113 C 
HETATM   23  C9  UNL     1      12.737 -12.036  21.432  1.00  0.00     0.058 C 
HETATM   24  C10 UNL     1      13.063 -10.639  21.894  1.00  0.00     0.279 C 
HETATM   25  N7  UNL     1      12.760  -9.692  20.824  1.00  0.00    -0.050 N 
HETATM   26  C13 UNL     1      13.592  -9.921  19.674  1.00  0.00     0.341 C 
ATOM     27  H72 UNL     1      11.770  -9.708  20.579  1.00  0.00     0.279 HD
ATOM     28  H71 UNL     1      12.825  -8.728  21.148  1.00  0.00     0.279 HD
BRANCH  24  29
HETATM   29  C11 UNL     1      12.256 -10.279  23.088  1.00  0.00     0.248 C 
HETATM   30  O3  UNL     1      11.400 -11.073  23.557  1.00  0.00    -0.271 OA
HETATM   31  N6  UNL     1      12.453  -9.031  23.702  1.00  0.00    -0.364 N 
HETATM   32  C12 UNL     1      11.683  -8.658  24.860  1.00  0.00     0.149 C 
ATOM     33  H6  UNL     1      13.146  -8.385  23.325  1.00  0.00     0.161 HD
ENDBRANCH  24  29
ENDBRANCH  18  21
ENDBRANCH  16  18
ENDBRANCH  14  16
ENDBRANCH  11  14
ENDBRANCH   6   8
ENDBRANCH   4   6
ENDBRANCH   3   4
TORSDOF 8
ENDMDL
