MODEL 1
REMARK VINA RESULT: -7.958908963      0.000      0.000
REMARK  7 active torsions:
REMARK  status: ('A' for Active; 'I' for Inactive)
REMARK    1  A    between atoms: C3_3  and  C4_4 
REMARK    2  A    between atoms: C5_5  and  N1_6 
REMARK       I    between atoms: N1_6  and  C6_8 
REMARK    3  A    between atoms: C6_8  and  C7_10 
REMARK       I    between atoms: N3_17  and  C13_18 
REMARK    4  A    between atoms: C13_18  and  C14_20 
REMARK    5  A    between atoms: C16_27  and  N5_28 
REMARK       I    between atoms: N5_28  and  C17_30 
REMARK    6  A    between atoms: C17_30  and  C18_32 
REMARK    7  A    between atoms: C18_32  and  N6_34 
ROOT
HETATM    1  C7  UNL     1      16.303 -14.979  21.501  1.00  0.00     0.206 C 
HETATM    2  C8  UNL     1      15.896 -16.408  21.637  1.00  0.00     0.271 C 
HETATM    3  N2  UNL     1      14.840 -16.853  20.794  1.00  0.00    -0.071 N 
HETATM    4  C9  UNL     1      14.959 -18.323  20.734  1.00  0.00     0.272 C 
HETATM    5  C10 UNL     1      13.555 -16.596  21.430  1.00  0.00     0.272 C 
HETATM    6  C11 UNL     1      14.874 -16.388  19.441  1.00  0.00     0.256 C 
HETATM    7  C12 UNL     1      16.156 -15.673  19.156  1.00  0.00     0.154 C 
HETATM    8  N3  UNL     1      16.293 -14.581  20.101  1.00  0.00    -0.334 N 
HETATM    9  C13 UNL     1      16.431 -13.216  19.744  1.00  0.00     0.246 C 
HETATM   10  O2  UNL     1      16.585 -12.401  20.725  1.00  0.00    -0.271 OA
ENDROOT
BRANCH   9  11
HETATM   11  C14 UNL     1      16.418 -12.683  18.395  1.00  0.00     0.208 C 
HETATM   12  N4  UNL     1      17.415 -11.601  18.232  1.00  0.00    -0.303 N 
HETATM   13  S1  UNL     1      17.055 -11.180  16.571  1.00  0.00     0.229 S 
ATOM     14  H4  UNL     1      18.100 -11.218  18.885  1.00  0.00     0.173 HD
HETATM   15  O3  UNL     1      17.308  -9.751  16.296  1.00  0.00    -0.206 OA
HETATM   16  O4  UNL     1      17.737 -12.122  15.636  1.00  0.00    -0.206 OA
HETATM   17  C15 UNL     1      15.300 -11.574  16.578  1.00  0.00     0.190 C 
HETATM   18  C16 UNL     1      15.116 -12.015  18.025  1.00  0.00     0.132 C 
BRANCH  18  19
HETATM   19  N5  UNL     1      14.767 -10.903  18.864  1.00  0.00    -0.351 N 
HETATM   20  C17 UNL     1      13.670 -10.898  19.765  1.00  0.00     0.248 C 
HETATM   21  O5  UNL     1      12.899 -11.881  19.904  1.00  0.00    -0.271 OA
ATOM     22  H5  UNL     1      15.344 -10.064  18.809  1.00  0.00     0.163 HD
BRANCH  20  23
HETATM   23  C18 UNL     1      13.364  -9.702  20.617  1.00  0.00     0.270 C 
HETATM   24  C19 UNL     1      12.152  -9.999  21.484  1.00  0.00     0.050 C 
BRANCH  23  25
HETATM   25  N6  UNL     1      14.462  -9.383  21.505  1.00  0.00    -0.067 N 
ATOM     26  H63 UNL     1      14.435  -9.953  22.351  1.00  0.00     0.275 HD
ATOM     27  H62 UNL     1      15.353  -9.704  21.126  1.00  0.00     0.275 HD
ATOM     28  H61 UNL     1      14.489  -8.388  21.728  1.00  0.00     0.275 HD
ENDBRANCH  23  25
ENDBRANCH  20  23
ENDBRANCH  18  19
ENDBRANCH   9  11
BRANCH   1  29
HETATM   29  C6  UNL     1      17.643 -14.824  22.089  1.00  0.00     0.253 C 
HETATM   30  N1  UNL     1      17.974 -13.893  23.083  1.00  0.00    -0.284 N 
ATOM     31  H1  UNL     1      17.263 -13.260  23.450  1.00  0.00     0.179 HD
HETATM   32  O1  UNL     1      18.542 -15.612  21.638  1.00  0.00    -0.270 OA
BRANCH  30  33
HETATM   33  C5  UNL     1      19.300 -13.837  23.575  1.00  0.00     0.017 C 
HETATM   34  C4  UNL     1      20.436 -13.797  23.974  1.00  0.00    -0.056 C 
BRANCH  34  35
HETATM   35  C3  UNL     1      21.804 -13.762  24.429  1.00  0.00     0.062 C 
HETATM   36  C2  UNL     1      22.116 -13.301  25.624  1.00  0.00    -0.022 C 
HETATM   37  C1  UNL     1      21.030 -12.816  26.500  1.00  0.00     0.036 C 
ENDBRANCH  34  35
ENDBRANCH  30  33
ENDBRANCH   1  29
TORSDOF 7
ENDMDL
MODEL 2
REMARK VINA RESULT: -7.524831672      1.905      2.254
REMARK  7 active torsions:
REMARK  status: ('A' for Active; 'I' for Inactive)
REMARK    1  A    between atoms: C3_3  and  C4_4 
REMARK    2  A    between atoms: C5_5  and  N1_6 
REMARK       I    between atoms: N1_6  and  C6_8 
REMARK    3  A    between atoms: C6_8  and  C7_10 
REMARK       I    between atoms: N3_17  and  C13_18 
REMARK    4  A    between atoms: C13_18  and  C14_20 
REMARK    5  A    between atoms: C16_27  and  N5_28 
REMARK       I    between atoms: N5_28  and  C17_30 
REMARK    6  A    between atoms: C17_30  and  C18_32 
REMARK    7  A    between atoms: C18_32  and  N6_34 
ROOT
HETATM    1  C7  UNL     1      17.229 -16.081  23.141  1.00  0.00     0.206 C 
HETATM    2  C8  UNL     1      17.322 -17.570  23.173  1.00  0.00     0.271 C 
HETATM    3  N2  UNL     1      16.449 -18.282  22.305  1.00  0.00    -0.071 N 
HETATM    4  C9  UNL     1      17.046 -19.622  22.137  1.00  0.00     0.272 C 
HETATM    5  C10 UNL     1      15.170 -18.511  22.964  1.00  0.00     0.272 C 
HETATM    6  C11 UNL     1      16.287 -17.743  20.989  1.00  0.00     0.256 C 
HETATM    7  C12 UNL     1      17.253 -16.625  20.751  1.00  0.00     0.154 C 
HETATM    8  N3  UNL     1      17.047 -15.616  21.774  1.00  0.00    -0.334 N 
HETATM    9  C13 UNL     1      16.715 -14.262  21.517  1.00  0.00     0.246 C 
HETATM   10  O2  UNL     1      16.619 -13.510  22.554  1.00  0.00    -0.271 OA
ENDROOT
BRANCH   9  11
HETATM   11  C14 UNL     1      16.487 -13.673  20.211  1.00  0.00     0.208 C 
HETATM   12  N4  UNL     1      17.142 -12.351  20.092  1.00  0.00    -0.303 N 
HETATM   13  S1  UNL     1      16.595 -11.947  18.478  1.00  0.00     0.229 S 
ATOM     14  H4  UNL     1      17.729 -11.834  20.747  1.00  0.00     0.173 HD
HETATM   15  O3  UNL     1      16.435 -10.490  18.298  1.00  0.00    -0.206 OA
HETATM   16  O4  UNL     1      17.458 -12.607  17.456  1.00  0.00    -0.206 OA
HETATM   17  C15 UNL     1      15.017 -12.809  18.517  1.00  0.00     0.190 C 
HETATM   18  C16 UNL     1      15.035 -13.369  19.934  1.00  0.00     0.132 C 
BRANCH  18  19
HETATM   19  N5  UNL     1      14.441 -12.448  20.861  1.00  0.00    -0.351 N 
HETATM   20  C17 UNL     1      13.042 -12.246  20.999  1.00  0.00     0.248 C 
HETATM   21  O5  UNL     1      12.194 -12.866  20.306  1.00  0.00    -0.271 OA
ATOM     22  H5  UNL     1      15.063 -11.904  21.459  1.00  0.00     0.163 HD
BRANCH  20  23
HETATM   23  C18 UNL     1      12.487 -11.270  21.992  1.00  0.00     0.270 C 
HETATM   24  C19 UNL     1      12.182  -9.957  21.291  1.00  0.00     0.050 C 
BRANCH  23  25
HETATM   25  N6  UNL     1      11.249 -11.746  22.574  1.00  0.00    -0.067 N 
ATOM     26  H63 UNL     1      10.591 -10.981  22.726  1.00  0.00     0.275 HD
ATOM     27  H62 UNL     1      10.707 -12.290  21.904  1.00  0.00     0.275 HD
ATOM     28  H61 UNL     1      11.414 -12.271  23.433  1.00  0.00     0.275 HD
ENDBRANCH  23  25
ENDBRANCH  20  23
ENDBRANCH  18  19
ENDBRANCH   9  11
BRANCH   1  29
HETATM   29  C6  UNL     1      18.459 -15.530  23.732  1.00  0.00     0.253 C 
HETATM   30  N1  UNL     1      18.495 -14.483  24.661  1.00  0.00    -0.284 N 
ATOM     31  H1  UNL     1      17.628 -14.044  24.975  1.00  0.00     0.179 HD
HETATM   32  O1  UNL     1      19.550 -16.071  23.348  1.00  0.00    -0.270 OA
BRANCH  30  33
HETATM   33  C5  UNL     1      19.741 -14.036  25.163  1.00  0.00     0.017 C 
HETATM   34  C4  UNL     1      20.805 -13.676  25.599  1.00  0.00    -0.056 C 
BRANCH  34  35
HETATM   35  C3  UNL     1      22.082 -13.269  26.132  1.00  0.00     0.062 C 
HETATM   36  C2  UNL     1      23.185 -13.365  25.416  1.00  0.00    -0.022 C 
HETATM   37  C1  UNL     1      23.091 -13.902  24.042  1.00  0.00     0.036 C 
ENDBRANCH  34  35
ENDBRANCH  30  33
ENDBRANCH   1  29
TORSDOF 7
ENDMDL
MODEL 3
REMARK VINA RESULT: -7.486935250      2.767      5.627
REMARK  7 active torsions:
REMARK  status: ('A' for Active; 'I' for Inactive)
REMARK    1  A    between atoms: C3_3  and  C4_4 
REMARK    2  A    between atoms: C5_5  and  N1_6 
REMARK       I    between atoms: N1_6  and  C6_8 
REMARK    3  A    between atoms: C6_8  and  C7_10 
REMARK       I    between atoms: N3_17  and  C13_18 
REMARK    4  A    between atoms: C13_18  and  C14_20 
REMARK    5  A    between atoms: C16_27  and  N5_28 
REMARK       I    between atoms: N5_28  and  C17_30 
REMARK    6  A    between atoms: C17_30  and  C18_32 
REMARK    7  A    between atoms: C18_32  and  N6_34 
ROOT
HETATM    1  C7  UNL     1      17.506 -15.060  21.050  1.00  0.00     0.206 C 
HETATM    2  C8  UNL     1      18.938 -15.144  21.459  1.00  0.00     0.271 C 
HETATM    3  N2  UNL     1      19.682 -13.932  21.430  1.00  0.00    -0.071 N 
HETATM    4  C9  UNL     1      20.843 -14.147  22.315  1.00  0.00     0.272 C 
HETATM    5  C10 UNL     1      20.243 -13.725  20.102  1.00  0.00     0.272 C 
HETATM    6  C11 UNL     1      19.010 -12.766  21.918  1.00  0.00     0.256 C 
HETATM    7  C12 UNL     1      17.704 -13.131  22.549  1.00  0.00     0.154 C 
HETATM    8  N3  UNL     1      16.903 -13.840  21.568  1.00  0.00    -0.334 N 
HETATM    9  C13 UNL     1      15.618 -13.434  21.129  1.00  0.00     0.246 C 
HETATM   10  O2  UNL     1      15.047 -14.220  20.287  1.00  0.00    -0.271 OA
ENDROOT
BRANCH   9  11
HETATM   11  C14 UNL     1      14.913 -12.237  21.548  1.00  0.00     0.208 C 
HETATM   12  N4  UNL     1      13.492 -12.274  21.133  1.00  0.00    -0.303 N 
HETATM   13  S1  UNL     1      13.020 -10.695  21.724  1.00  0.00     0.229 S 
ATOM     14  H4  UNL     1      12.954 -12.996  20.652  1.00  0.00     0.173 HD
HETATM   15  O3  UNL     1      11.946 -10.098  20.904  1.00  0.00    -0.206 OA
HETATM   16  O4  UNL     1      12.726 -10.752  23.185  1.00  0.00    -0.206 OA
HETATM   17  C15 UNL     1      14.595  -9.855  21.503  1.00  0.00     0.190 C 
HETATM   18  C16 UNL     1      15.432 -10.977  20.900  1.00  0.00     0.132 C 
BRANCH  18  19
HETATM   19  N5  UNL     1      15.344 -10.974  19.467  1.00  0.00    -0.351 N 
HETATM   20  C17 UNL     1      16.454 -11.154  18.600  1.00  0.00     0.248 C 
HETATM   21  O5  UNL     1      17.625 -11.332  19.023  1.00  0.00    -0.271 OA
ATOM     22  H5  UNL     1      14.426 -10.833  19.045  1.00  0.00     0.163 HD
BRANCH  20  23
HETATM   23  C18 UNL     1      16.292 -11.144  17.109  1.00  0.00     0.270 C 
HETATM   24  C19 UNL     1      16.915 -12.402  16.527  1.00  0.00     0.050 C 
BRANCH  23  25
HETATM   25  N6  UNL     1      14.896 -11.136  16.724  1.00  0.00    -0.067 N 
ATOM     26  H63 UNL     1      14.522 -12.082  16.658  1.00  0.00     0.275 HD
ATOM     27  H62 UNL     1      14.304 -10.783  17.476  1.00  0.00     0.275 HD
ATOM     28  H61 UNL     1      14.748 -10.616  15.858  1.00  0.00     0.275 HD
ENDBRANCH  23  25
ENDBRANCH  20  23
ENDBRANCH  18  19
ENDBRANCH   9  11
BRANCH   1  29
HETATM   29  C6  UNL     1      16.811 -16.254  21.555  1.00  0.00     0.253 C 
HETATM   30  N1  UNL     1      16.438 -16.453  22.891  1.00  0.00    -0.284 N 
ATOM     31  H1  UNL     1      16.647 -15.742  23.593  1.00  0.00     0.179 HD
HETATM   32  O1  UNL     1      16.544 -17.151  20.686  1.00  0.00    -0.270 OA
BRANCH  30  33
HETATM   33  C5  UNL     1      15.771 -17.645  23.261  1.00  0.00     0.017 C 
HETATM   34  C4  UNL     1      15.184 -18.647  23.581  1.00  0.00    -0.056 C 
BRANCH  34  35
HETATM   35  C3  UNL     1      14.461 -19.833  23.971  1.00  0.00     0.062 C 
HETATM   36  C2  UNL     1      14.730 -20.459  25.100  1.00  0.00    -0.022 C 
HETATM   37  C1  UNL     1      15.795 -19.919  25.970  1.00  0.00     0.036 C 
ENDBRANCH  34  35
ENDBRANCH  30  33
ENDBRANCH   1  29
TORSDOF 7
ENDMDL
MODEL 4
REMARK VINA RESULT: -7.434708905      2.829      5.815
REMARK  7 active torsions:
REMARK  status: ('A' for Active; 'I' for Inactive)
REMARK    1  A    between atoms: C3_3  and  C4_4 
REMARK    2  A    between atoms: C5_5  and  N1_6 
REMARK       I    between atoms: N1_6  and  C6_8 
REMARK    3  A    between atoms: C6_8  and  C7_10 
REMARK       I    between atoms: N3_17  and  C13_18 
REMARK    4  A    between atoms: C13_18  and  C14_20 
REMARK    5  A    between atoms: C16_27  and  N5_28 
REMARK       I    between atoms: N5_28  and  C17_30 
REMARK    6  A    between atoms: C17_30  and  C18_32 
REMARK    7  A    between atoms: C18_32  and  N6_34 
ROOT
HETATM    1  C7  UNL     1      14.695 -11.321  20.212  1.00  0.00     0.206 C 
HETATM    2  C8  UNL     1      14.221 -10.548  21.397  1.00  0.00     0.271 C 
HETATM    3  N2  UNL     1      12.821 -10.552  21.642  1.00  0.00    -0.071 N 
HETATM    4  C9  UNL     1      12.655 -10.187  23.063  1.00  0.00     0.272 C 
HETATM    5  C10 UNL     1      12.181  -9.480  20.892  1.00  0.00     0.272 C 
HETATM    6  C11 UNL     1      12.152 -11.805  21.466  1.00  0.00     0.256 C 
HETATM    7  C12 UNL     1      13.139 -12.907  21.243  1.00  0.00     0.154 C 
HETATM    8  N3  UNL     1      13.954 -12.568  20.093  1.00  0.00    -0.334 N 
HETATM    9  C13 UNL     1      14.075 -13.363  18.925  1.00  0.00     0.246 C 
HETATM   10  O2  UNL     1      14.882 -12.915  18.031  1.00  0.00    -0.271 OA
ENDROOT
BRANCH   9  11
HETATM   11  C14 UNL     1      13.382 -14.611  18.669  1.00  0.00     0.208 C 
HETATM   12  N4  UNL     1      12.322 -14.857  19.674  1.00  0.00    -0.303 N 
HETATM   13  S1  UNL     1      11.792 -16.423  19.097  1.00  0.00     0.229 S 
ATOM     14  H4  UNL     1      12.000 -14.289  20.458  1.00  0.00     0.173 HD
HETATM   15  O3  UNL     1      11.290 -17.274  20.196  1.00  0.00    -0.206 OA
HETATM   16  O4  UNL     1      10.848 -16.265  17.954  1.00  0.00    -0.206 OA
HETATM   17  C15 UNL     1      13.365 -17.005  18.447  1.00  0.00     0.190 C 
HETATM   18  C16 UNL     1      14.268 -15.827  18.794  1.00  0.00     0.132 C 
BRANCH  18  19
HETATM   19  N5  UNL     1      14.858 -15.993  20.092  1.00  0.00    -0.351 N 
HETATM   20  C17 UNL     1      16.148 -15.520  20.448  1.00  0.00     0.248 C 
HETATM   21  O5  UNL     1      16.895 -14.909  19.641  1.00  0.00    -0.271 OA
ATOM     22  H5  UNL     1      14.315 -16.482  20.804  1.00  0.00     0.163 HD
BRANCH  20  23
HETATM   23  C18 UNL     1      16.704 -15.723  21.826  1.00  0.00     0.270 C 
HETATM   24  C19 UNL     1      18.077 -16.366  21.725  1.00  0.00     0.050 C 
BRANCH  23  25
HETATM   25  N6  UNL     1      16.866 -14.467  22.528  1.00  0.00    -0.067 N 
ATOM     26  H63 UNL     1      17.186 -13.729  21.900  1.00  0.00     0.275 HD
ATOM     27  H62 UNL     1      15.964 -14.070  22.793  1.00  0.00     0.275 HD
ATOM     28  H61 UNL     1      17.482 -14.563  23.335  1.00  0.00     0.275 HD
ENDBRANCH  23  25
ENDBRANCH  20  23
ENDBRANCH  18  19
ENDBRANCH   9  11
BRANCH   1  29
HETATM   29  C6  UNL     1      16.137 -11.570  20.371  1.00  0.00     0.253 C 
HETATM   30  N1  UNL     1      17.069 -11.544  19.326  1.00  0.00    -0.284 N 
ATOM     31  H1  UNL     1      16.766 -11.343  18.372  1.00  0.00     0.179 HD
HETATM   32  O1  UNL     1      16.529 -11.823  21.560  1.00  0.00    -0.270 OA
BRANCH  30  33
HETATM   33  C5  UNL     1      18.434 -11.799  19.600  1.00  0.00     0.017 C 
HETATM   34  C4  UNL     1      19.591 -12.039  19.835  1.00  0.00    -0.056 C 
BRANCH  34  35
HETATM   35  C3  UNL     1      20.970 -12.351  20.120  1.00  0.00     0.062 C 
HETATM   36  C2  UNL     1      21.313 -13.008  21.211  1.00  0.00    -0.022 C 
HETATM   37  C1  UNL     1      20.248 -13.425  22.147  1.00  0.00     0.036 C 
ENDBRANCH  34  35
ENDBRANCH  30  33
ENDBRANCH   1  29
TORSDOF 7
ENDMDL
MODEL 5
REMARK VINA RESULT: -7.351382086      3.740      8.246
REMARK  7 active torsions:
REMARK  status: ('A' for Active; 'I' for Inactive)
REMARK    1  A    between atoms: C3_3  and  C4_4 
REMARK    2  A    between atoms: C5_5  and  N1_6 
REMARK       I    between atoms: N1_6  and  C6_8 
REMARK    3  A    between atoms: C6_8  and  C7_10 
REMARK       I    between atoms: N3_17  and  C13_18 
REMARK    4  A    between atoms: C13_18  and  C14_20 
REMARK    5  A    between atoms: C16_27  and  N5_28 
REMARK       I    between atoms: N5_28  and  C17_30 
REMARK    6  A    between atoms: C17_30  and  C18_32 
REMARK    7  A    between atoms: C18_32  and  N6_34 
ROOT
HETATM    1  C7  UNL     1      18.418 -12.316  21.436  1.00  0.00     0.206 C 
HETATM    2  C8  UNL     1      19.002 -11.963  20.110  1.00  0.00     0.271 C 
HETATM    3  N2  UNL     1      20.266 -12.534  19.796  1.00  0.00    -0.071 N 
HETATM    4  C9  UNL     1      20.388 -12.471  18.326  1.00  0.00     0.272 C 
HETATM    5  C10 UNL     1      21.335 -11.688  20.308  1.00  0.00     0.272 C 
HETATM    6  C11 UNL     1      20.446 -13.907  20.158  1.00  0.00     0.256 C 
HETATM    7  C12 UNL     1      19.157 -14.507  20.624  1.00  0.00     0.154 C 
HETATM    8  N3  UNL     1      18.661 -13.719  21.737  1.00  0.00    -0.334 N 
HETATM    9  C13 UNL     1      18.394 -14.230  23.032  1.00  0.00     0.246 C 
HETATM   10  O2  UNL     1      17.915 -13.384  23.873  1.00  0.00    -0.271 OA
ENDROOT
BRANCH   9  11
HETATM   11  C14 UNL     1      18.607 -15.597  23.470  1.00  0.00     0.208 C 
HETATM   12  N4  UNL     1      18.022 -15.832  24.811  1.00  0.00    -0.303 N 
HETATM   13  S1  UNL     1      18.533 -17.495  25.015  1.00  0.00     0.229 S 
ATOM     14  H4  UNL     1      17.488 -15.217  25.424  1.00  0.00     0.173 HD
HETATM   15  O3  UNL     1      18.767 -17.830  26.434  1.00  0.00    -0.206 OA
HETATM   16  O4  UNL     1      17.599 -18.417  24.306  1.00  0.00    -0.206 OA
HETATM   17  C15 UNL     1      20.062 -17.414  24.071  1.00  0.00     0.190 C 
HETATM   18  C16 UNL     1      20.063 -15.946  23.659  1.00  0.00     0.132 C 
BRANCH  18  19
HETATM   19  N5  UNL     1      20.740 -15.138  24.633  1.00  0.00    -0.351 N 
HETATM   20  C17 UNL     1      21.746 -14.186  24.320  1.00  0.00     0.248 C 
HETATM   21  O5  UNL     1      22.136 -13.972  23.143  1.00  0.00    -0.271 OA
ATOM     22  H5  UNL     1      20.481 -15.254  25.613  1.00  0.00     0.163 HD
BRANCH  20  23
HETATM   23  C18 UNL     1      22.411 -13.370  25.387  1.00  0.00     0.270 C 
HETATM   24  C19 UNL     1      21.349 -12.720  26.259  1.00  0.00     0.050 C 
BRANCH  23  25
HETATM   25  N6  UNL     1      23.236 -14.189  26.251  1.00  0.00    -0.067 N 
ATOM     26  H63 UNL     1      22.922 -15.159  26.254  1.00  0.00     0.275 HD
ATOM     27  H62 UNL     1      24.167 -14.324  25.857  1.00  0.00     0.275 HD
ATOM     28  H61 UNL     1      23.283 -13.810  27.197  1.00  0.00     0.275 HD
ENDBRANCH  23  25
ENDBRANCH  20  23
ENDBRANCH  18  19
ENDBRANCH   9  11
BRANCH   1  29
HETATM   29  C6  UNL     1      16.978 -12.020  21.400  1.00  0.00     0.253 C 
HETATM   30  N1  UNL     1      15.978 -12.869  21.893  1.00  0.00    -0.284 N 
ATOM     31  H1  UNL     1      16.226 -13.764  22.314  1.00  0.00     0.179 HD
HETATM   32  O1  UNL     1      16.653 -10.902  20.875  1.00  0.00    -0.270 OA
BRANCH  30  33
HETATM   33  C5  UNL     1      14.620 -12.476  21.804  1.00  0.00     0.017 C 
HETATM   34  C4  UNL     1      13.470 -12.126  21.744  1.00  0.00    -0.056 C 
BRANCH  34  35
HETATM   35  C3  UNL     1      12.096 -11.689  21.691  1.00  0.00     0.062 C 
HETATM   36  C2  UNL     1      11.721 -10.542  22.220  1.00  0.00    -0.022 C 
HETATM   37  C1  UNL     1      12.743  -9.699  22.876  1.00  0.00     0.036 C 
ENDBRANCH  34  35
ENDBRANCH  30  33
ENDBRANCH   1  29
TORSDOF 7
ENDMDL
