MODEL 1
REMARK VINA RESULT: -8.813976774      0.000      0.000
REMARK  8 active torsions:
REMARK  status: ('A' for Active; 'I' for Inactive)
REMARK       I    between atoms: N1_2  and  C2_4 
REMARK    1  A    between atoms: C2_4  and  C3_6 
REMARK    2  A    between atoms: C4_7  and  C5_8 
REMARK    3  A    between atoms: C6_9  and  C7_10 
REMARK       I    between atoms: C7_10  and  N2_12 
REMARK    4  A    between atoms: C11_16  and  C12_17 
REMARK    5  A    between atoms: C12_17  and  C13_18 
REMARK    6  A    between atoms: C12_17  and  N4_21 
REMARK    7  A    between atoms: N4_21  and  C14_22 
REMARK       I    between atoms: N4_21  and  C20_33 
REMARK    8  A    between atoms: N6_29  and  C19_31 
ROOT
HETATM    1  C12 UNL     1      19.600 -14.335  21.048  1.00  0.00     0.186 C 
ENDROOT
BRANCH   1   2
HETATM    2  C11 UNL     1      19.862 -12.884  21.127  1.00  0.00     0.036 C 
HETATM    3  C10 UNL     1      21.149 -12.487  20.435  1.00  0.00     0.010 C 
HETATM    4  C9  UNL     1      20.929 -11.932  19.036  1.00  0.00     0.020 C 
HETATM    5  C8  UNL     1      19.602 -12.281  18.439  1.00  0.00     0.127 C 
HETATM    6  N2  UNL     1      18.507 -11.914  19.331  1.00  0.00    -0.341 N 
HETATM    7  C7  UNL     1      17.255 -11.505  18.829  1.00  0.00     0.299 C 
HETATM    8  C21 UNL     1      18.730 -11.965  20.751  1.00  0.00     0.134 C 
HETATM    9  O2  UNL     1      17.085 -11.469  17.579  1.00  0.00    -0.258 OA
BRANCH   7  10
HETATM   10  C6  UNL     1      16.218 -11.143  19.742  1.00  0.00     0.009 C 
HETATM   11  C5  UNL     1      15.349 -10.818  20.515  1.00  0.00    -0.004 C 
BRANCH  11  12
HETATM   12  C4  UNL     1      14.344 -10.420  21.425  1.00  0.00    -0.004 C 
HETATM   13  C3  UNL     1      13.497 -10.064  22.206  1.00  0.00     0.009 C 
BRANCH  13  14
HETATM   14  C2  UNL     1      12.493  -9.629  23.160  1.00  0.00     0.296 C 
HETATM   15  N1  UNL     1      12.739  -8.462  23.925  1.00  0.00    -0.355 N 
HETATM   16  C1  UNL     1      11.746  -8.028  24.871  1.00  0.00     0.150 C 
ATOM     17  H1  UNL     1      13.606  -7.938  23.807  1.00  0.00     0.162 HD
HETATM   18  O1  UNL     1      11.425 -10.273  23.307  1.00  0.00    -0.258 OA
ENDBRANCH  13  14
ENDBRANCH  11  12
ENDBRANCH   7  10
ENDBRANCH   1   2
BRANCH   1  19
HETATM   19  C13 UNL     1      18.190 -14.659  21.529  1.00  0.00     0.255 C 
HETATM   20  N3  UNL     1      17.183 -15.123  20.654  1.00  0.00    -0.060 NA
HETATM   21  O3  UNL     1      17.909 -14.513  22.733  1.00  0.00    -0.275 OA
ENDBRANCH   1  19
BRANCH   1  22
HETATM   22  N4  UNL     1      20.453 -15.165  21.902  1.00  0.00    -0.317 N 
HETATM   23  C20 UNL     1      20.670 -16.532  21.930  1.00  0.00     0.188 C 
HETATM   24  N7  UNL     1      21.911 -16.910  22.262  1.00  0.00    -0.373 N 
HETATM   25  N8  UNL     1      19.825 -17.615  21.659  1.00  0.00    -0.064 NA
ATOM     26  H72 UNL     1      22.526 -16.122  22.460  1.00  0.00     0.158 HD
ATOM     27  H71 UNL     1      22.070 -17.917  22.282  1.00  0.00     0.158 HD
BRANCH  22  28
HETATM   28  C14 UNL     1      21.276 -14.364  22.785  1.00  0.00     0.105 C 
HETATM   29  C15 UNL     1      21.104 -14.293  24.048  1.00  0.00     0.003 C 
HETATM   30  C16 UNL     1      21.990 -13.439  24.938  1.00  0.00     0.063 C 
HETATM   31  C18 UNL     1      20.160 -14.901  24.972  1.00  0.00     0.110 C 
HETATM   32  C17 UNL     1      20.937 -12.887  25.890  1.00  0.00     0.126 C 
HETATM   33  N5  UNL     1      19.916 -13.915  25.989  1.00  0.00    -0.376 N 
ATOM     34  H5  UNL     1      19.153 -13.934  26.666  1.00  0.00     0.161 HD
HETATM   35  N6  UNL     1      19.678 -16.078  24.874  1.00  0.00    -0.320 N 
ATOM     36  H6  UNL     1      19.940 -16.692  24.102  1.00  0.00     0.169 HD
BRANCH  35  37
HETATM   37  C19 UNL     1      18.765 -16.506  25.873  1.00  0.00     0.354 C 
HETATM   38  O4  UNL     1      19.155 -16.786  27.024  1.00  0.00    -0.283 OA
ENDBRANCH  35  37
ENDBRANCH  22  28
ENDBRANCH   1  22
TORSDOF 8
ENDMDL
MODEL 2
REMARK VINA RESULT: -7.620656216      1.765      3.008
REMARK  8 active torsions:
REMARK  status: ('A' for Active; 'I' for Inactive)
REMARK       I    between atoms: N1_2  and  C2_4 
REMARK    1  A    between atoms: C2_4  and  C3_6 
REMARK    2  A    between atoms: C4_7  and  C5_8 
REMARK    3  A    between atoms: C6_9  and  C7_10 
REMARK       I    between atoms: C7_10  and  N2_12 
REMARK    4  A    between atoms: C11_16  and  C12_17 
REMARK    5  A    between atoms: C12_17  and  C13_18 
REMARK    6  A    between atoms: C12_17  and  N4_21 
REMARK    7  A    between atoms: N4_21  and  C14_22 
REMARK       I    between atoms: N4_21  and  C20_33 
REMARK    8  A    between atoms: N6_29  and  C19_31 
ROOT
HETATM    1  C12 UNL     1      19.451 -14.409  21.632  1.00  0.00     0.186 C 
ENDROOT
BRANCH   1   2
HETATM    2  C11 UNL     1      19.787 -12.971  21.653  1.00  0.00     0.036 C 
HETATM    3  C10 UNL     1      21.134 -12.679  21.027  1.00  0.00     0.010 C 
HETATM    4  C9  UNL     1      21.034 -12.191  19.591  1.00  0.00     0.020 C 
HETATM    5  C8  UNL     1      19.730 -12.503  18.927  1.00  0.00     0.127 C 
HETATM    6  N2  UNL     1      18.602 -12.032  19.725  1.00  0.00    -0.341 N 
HETATM    7  C7  UNL     1      17.408 -11.588  19.121  1.00  0.00     0.299 C 
HETATM    8  C21 UNL     1      18.733 -12.017  21.156  1.00  0.00     0.134 C 
HETATM    9  O2  UNL     1      17.320 -11.611  17.863  1.00  0.00    -0.258 OA
BRANCH   7  10
HETATM   10  C6  UNL     1      16.337 -11.123  19.944  1.00  0.00     0.009 C 
HETATM   11  C5  UNL     1      15.442 -10.737  20.656  1.00  0.00    -0.004 C 
BRANCH  11  12
HETATM   12  C4  UNL     1      14.403 -10.296  21.506  1.00  0.00    -0.004 C 
HETATM   13  C3  UNL     1      13.529  -9.920  22.247  1.00  0.00     0.009 C 
BRANCH  13  14
HETATM   14  C2  UNL     1      12.484  -9.483  23.154  1.00  0.00     0.296 C 
HETATM   15  N1  UNL     1      12.733  -8.372  23.998  1.00  0.00    -0.355 N 
HETATM   16  C1  UNL     1      11.699  -7.935  24.898  1.00  0.00     0.150 C 
ATOM     17  H1  UNL     1      13.631  -7.889  23.967  1.00  0.00     0.162 HD
HETATM   18  O1  UNL     1      11.378 -10.075  23.193  1.00  0.00    -0.258 OA
ENDBRANCH  13  14
ENDBRANCH  11  12
ENDBRANCH   7  10
ENDBRANCH   1   2
BRANCH   1  19
HETATM   19  C13 UNL     1      17.966 -14.615  21.355  1.00  0.00     0.255 C 
HETATM   20  N3  UNL     1      16.962 -14.132  22.223  1.00  0.00    -0.060 NA
HETATM   21  O3  UNL     1      17.618 -15.230  20.330  1.00  0.00    -0.275 OA
ENDBRANCH   1  19
BRANCH   1  22
HETATM   22  N4  UNL     1      19.665 -15.112  22.899  1.00  0.00    -0.317 N 
HETATM   23  C20 UNL     1      19.638 -14.666  24.210  1.00  0.00     0.188 C 
HETATM   24  N7  UNL     1      19.177 -15.548  25.106  1.00  0.00    -0.373 N 
HETATM   25  N8  UNL     1      19.996 -13.442  24.786  1.00  0.00    -0.064 NA
ATOM     26  H72 UNL     1      18.915 -16.440  24.687  1.00  0.00     0.158 HD
ATOM     27  H71 UNL     1      19.156 -15.220  26.072  1.00  0.00     0.158 HD
BRANCH  22  28
HETATM   28  C14 UNL     1      19.823 -16.539  22.707  1.00  0.00     0.105 C 
HETATM   29  C15 UNL     1      20.922 -17.163  22.886  1.00  0.00     0.003 C 
HETATM   30  C16 UNL     1      21.045 -18.661  22.671  1.00  0.00     0.063 C 
HETATM   31  C18 UNL     1      22.255 -16.758  23.303  1.00  0.00     0.110 C 
HETATM   32  C17 UNL     1      22.419 -18.711  22.016  1.00  0.00     0.126 C 
HETATM   33  N5  UNL     1      23.166 -17.600  22.578  1.00  0.00    -0.376 N 
ATOM     34  H5  UNL     1      24.169 -17.443  22.475  1.00  0.00     0.161 HD
HETATM   35  N6  UNL     1      22.522 -15.843  24.152  1.00  0.00    -0.320 N 
ATOM     36  H6  UNL     1      21.778 -15.316  24.610  1.00  0.00     0.169 HD
BRANCH  35  37
HETATM   37  C19 UNL     1      23.887 -15.581  24.437  1.00  0.00     0.354 C 
HETATM   38  O4  UNL     1      24.658 -15.148  23.557  1.00  0.00    -0.283 OA
ENDBRANCH  35  37
ENDBRANCH  22  28
ENDBRANCH   1  22
TORSDOF 8
ENDMDL
MODEL 3
REMARK VINA RESULT: -7.533179558      1.666      2.100
REMARK  8 active torsions:
REMARK  status: ('A' for Active; 'I' for Inactive)
REMARK       I    between atoms: N1_2  and  C2_4 
REMARK    1  A    between atoms: C2_4  and  C3_6 
REMARK    2  A    between atoms: C4_7  and  C5_8 
REMARK    3  A    between atoms: C6_9  and  C7_10 
REMARK       I    between atoms: C7_10  and  N2_12 
REMARK    4  A    between atoms: C11_16  and  C12_17 
REMARK    5  A    between atoms: C12_17  and  C13_18 
REMARK    6  A    between atoms: C12_17  and  N4_21 
REMARK    7  A    between atoms: N4_21  and  C14_22 
REMARK       I    between atoms: N4_21  and  C20_33 
REMARK    8  A    between atoms: N6_29  and  C19_31 
ROOT
HETATM    1  C12 UNL     1      19.558 -14.343  21.815  1.00  0.00     0.186 C 
ENDROOT
BRANCH   1   2
HETATM    2  C11 UNL     1      19.870 -12.900  21.772  1.00  0.00     0.036 C 
HETATM    3  C10 UNL     1      21.202 -12.612  21.113  1.00  0.00     0.010 C 
HETATM    4  C9  UNL     1      21.070 -12.184  19.660  1.00  0.00     0.020 C 
HETATM    5  C8  UNL     1      19.761 -12.544  19.031  1.00  0.00     0.127 C 
HETATM    6  N2  UNL     1      18.639 -12.059  19.828  1.00  0.00    -0.341 N 
HETATM    7  C7  UNL     1      17.428 -11.659  19.228  1.00  0.00     0.299 C 
HETATM    8  C21 UNL     1      18.792 -11.984  21.256  1.00  0.00     0.134 C 
HETATM    9  O2  UNL     1      17.319 -11.735  17.973  1.00  0.00    -0.258 OA
BRANCH   7  10
HETATM   10  C6  UNL     1      16.362 -11.179  20.050  1.00  0.00     0.009 C 
HETATM   11  C5  UNL     1      15.462 -10.792  20.753  1.00  0.00    -0.004 C 
BRANCH  11  12
HETATM   12  C4  UNL     1      14.404 -10.358  21.585  1.00  0.00    -0.004 C 
HETATM   13  C3  UNL     1      13.514  -9.977  22.305  1.00  0.00     0.009 C 
BRANCH  13  14
HETATM   14  C2  UNL     1      12.458  -9.519  23.188  1.00  0.00     0.296 C 
HETATM   15  N1  UNL     1      12.698  -8.393  24.013  1.00  0.00    -0.355 N 
HETATM   16  C1  UNL     1      11.654  -7.935  24.889  1.00  0.00     0.150 C 
ATOM     17  H1  UNL     1      13.599  -7.913  23.987  1.00  0.00     0.162 HD
HETATM   18  O1  UNL     1      11.349 -10.107  23.221  1.00  0.00    -0.258 OA
ENDBRANCH  13  14
ENDBRANCH  11  12
ENDBRANCH   7  10
ENDBRANCH   1   2
BRANCH   1  19
HETATM   19  C13 UNL     1      18.104 -14.595  21.434  1.00  0.00     0.255 C 
HETATM   20  N3  UNL     1      17.026 -14.084  22.191  1.00  0.00    -0.060 NA
HETATM   21  O3  UNL     1      17.849 -15.274  20.422  1.00  0.00    -0.275 OA
ENDBRANCH   1  19
BRANCH   1  22
HETATM   22  N4  UNL     1      19.680 -14.962  23.137  1.00  0.00    -0.317 N 
HETATM   23  C20 UNL     1      19.871 -16.280  23.517  1.00  0.00     0.188 C 
HETATM   24  N7  UNL     1      20.611 -16.458  24.619  1.00  0.00    -0.373 N 
HETATM   25  N8  UNL     1      19.439 -17.485  22.951  1.00  0.00    -0.064 NA
ATOM     26  H72 UNL     1      20.926 -15.580  25.031  1.00  0.00     0.158 HD
ATOM     27  H71 UNL     1      20.752 -17.428  24.899  1.00  0.00     0.158 HD
BRANCH  22  28
HETATM   28  C14 UNL     1      19.707 -13.975  24.197  1.00  0.00     0.105 C 
HETATM   29  C15 UNL     1      20.775 -13.583  24.776  1.00  0.00     0.003 C 
HETATM   30  C16 UNL     1      20.759 -12.547  25.885  1.00  0.00     0.063 C 
HETATM   31  C18 UNL     1      22.184 -13.912  24.622  1.00  0.00     0.110 C 
HETATM   32  C17 UNL     1      21.812 -13.147  26.808  1.00  0.00     0.126 C 
HETATM   33  N5  UNL     1      22.749 -13.839  25.942  1.00  0.00    -0.376 N 
ATOM     34  H5  UNL     1      23.657 -14.212  26.222  1.00  0.00     0.161 HD
HETATM   35  N6  UNL     1      22.765 -14.191  23.522  1.00  0.00    -0.320 N 
ATOM     36  H6  UNL     1      22.250 -14.201  22.641  1.00  0.00     0.169 HD
BRANCH  35  37
HETATM   37  C19 UNL     1      24.153 -14.489  23.563  1.00  0.00     0.354 C 
HETATM   38  O4  UNL     1      24.559 -15.630  23.859  1.00  0.00    -0.283 OA
ENDBRANCH  35  37
ENDBRANCH  22  28
ENDBRANCH   1  22
TORSDOF 8
ENDMDL
MODEL 4
REMARK VINA RESULT: -7.520120625      1.773      3.326
REMARK  8 active torsions:
REMARK  status: ('A' for Active; 'I' for Inactive)
REMARK       I    between atoms: N1_2  and  C2_4 
REMARK    1  A    between atoms: C2_4  and  C3_6 
REMARK    2  A    between atoms: C4_7  and  C5_8 
REMARK    3  A    between atoms: C6_9  and  C7_10 
REMARK       I    between atoms: C7_10  and  N2_12 
REMARK    4  A    between atoms: C11_16  and  C12_17 
REMARK    5  A    between atoms: C12_17  and  C13_18 
REMARK    6  A    between atoms: C12_17  and  N4_21 
REMARK    7  A    between atoms: N4_21  and  C14_22 
REMARK       I    between atoms: N4_21  and  C20_33 
REMARK    8  A    between atoms: N6_29  and  C19_31 
ROOT
HETATM    1  C12 UNL     1      19.545 -14.176  21.193  1.00  0.00     0.186 C 
ENDROOT
BRANCH   1   2
HETATM    2  C11 UNL     1      19.828 -12.728  21.134  1.00  0.00     0.036 C 
HETATM    3  C10 UNL     1      21.105 -12.414  20.385  1.00  0.00     0.010 C 
HETATM    4  C9  UNL     1      20.865 -11.985  18.946  1.00  0.00     0.020 C 
HETATM    5  C8  UNL     1      19.522 -12.368  18.408  1.00  0.00     0.127 C 
HETATM    6  N2  UNL     1      18.449 -11.905  19.283  1.00  0.00    -0.341 N 
HETATM    7  C7  UNL     1      17.193 -11.526  18.769  1.00  0.00     0.299 C 
HETATM    8  C21 UNL     1      18.700 -11.830  20.697  1.00  0.00     0.134 C 
HETATM    9  O2  UNL     1      16.998 -11.601  17.525  1.00  0.00    -0.258 OA
BRANCH   7  10
HETATM   10  C6  UNL     1      16.178 -11.067  19.664  1.00  0.00     0.009 C 
HETATM   11  C5  UNL     1      15.331 -10.688  20.436  1.00  0.00    -0.004 C 
BRANCH  11  12
HETATM   12  C4  UNL     1      14.347 -10.259  21.355  1.00  0.00    -0.004 C 
HETATM   13  C3  UNL     1      13.520  -9.895  22.154  1.00  0.00     0.009 C 
BRANCH  13  14
HETATM   14  C2  UNL     1      12.532  -9.472  23.130  1.00  0.00     0.296 C 
HETATM   15  N1  UNL     1      12.821  -8.359  23.956  1.00  0.00    -0.355 N 
HETATM   16  C1  UNL     1      11.845  -7.936  24.924  1.00  0.00     0.150 C 
ATOM     17  H1  UNL     1      13.709  -7.863  23.867  1.00  0.00     0.162 HD
HETATM   18  O1  UNL     1      11.439 -10.080  23.241  1.00  0.00    -0.258 OA
ENDBRANCH  13  14
ENDBRANCH  11  12
ENDBRANCH   7  10
ENDBRANCH   1   2
BRANCH   1  19
HETATM   19  C13 UNL     1      18.043 -14.436  21.212  1.00  0.00     0.255 C 
HETATM   20  N3  UNL     1      17.205 -13.943  22.237  1.00  0.00    -0.060 NA
HETATM   21  O3  UNL     1      17.530 -15.104  20.296  1.00  0.00    -0.275 OA
ENDBRANCH   1  19
BRANCH   1  22
HETATM   22  N4  UNL     1      20.026 -14.850  22.401  1.00  0.00    -0.317 N 
HETATM   23  C20 UNL     1      21.039 -14.528  23.289  1.00  0.00     0.188 C 
HETATM   24  N7  UNL     1      20.810 -14.859  24.566  1.00  0.00    -0.373 N 
HETATM   25  N8  UNL     1      22.275 -13.898  23.104  1.00  0.00    -0.064 NA
ATOM     26  H72 UNL     1      19.910 -15.318  24.702  1.00  0.00     0.158 HD
ATOM     27  H71 UNL     1      21.556 -14.621  25.220  1.00  0.00     0.158 HD
BRANCH  22  28
HETATM   28  C14 UNL     1      19.201 -15.989  22.751  1.00  0.00     0.105 C 
HETATM   29  C15 UNL     1      19.506 -17.198  22.478  1.00  0.00     0.003 C 
HETATM   30  C16 UNL     1      18.611 -18.363  22.861  1.00  0.00     0.063 C 
HETATM   31  C18 UNL     1      20.637 -17.827  21.815  1.00  0.00     0.110 C 
HETATM   32  C17 UNL     1      18.761 -19.220  21.612  1.00  0.00     0.126 C 
HETATM   33  N5  UNL     1      20.099 -18.959  21.111  1.00  0.00    -0.376 N 
ATOM     34  H5  UNL     1      20.577 -19.489  20.382  1.00  0.00     0.161 HD
HETATM   35  N6  UNL     1      21.848 -17.432  21.878  1.00  0.00    -0.320 N 
ATOM     36  H6  UNL     1      22.107 -16.611  22.425  1.00  0.00     0.169 HD
BRANCH  35  37
HETATM   37  C19 UNL     1      22.825 -18.174  21.162  1.00  0.00     0.354 C 
HETATM   38  O4  UNL     1      23.004 -17.993  19.942  1.00  0.00    -0.283 OA
ENDBRANCH  35  37
ENDBRANCH  22  28
ENDBRANCH   1  22
TORSDOF 8
ENDMDL
MODEL 5
REMARK VINA RESULT: -7.362001120      1.318      2.681
REMARK  8 active torsions:
REMARK  status: ('A' for Active; 'I' for Inactive)
REMARK       I    between atoms: N1_2  and  C2_4 
REMARK    1  A    between atoms: C2_4  and  C3_6 
REMARK    2  A    between atoms: C4_7  and  C5_8 
REMARK    3  A    between atoms: C6_9  and  C7_10 
REMARK       I    between atoms: C7_10  and  N2_12 
REMARK    4  A    between atoms: C11_16  and  C12_17 
REMARK    5  A    between atoms: C12_17  and  C13_18 
REMARK    6  A    between atoms: C12_17  and  N4_21 
REMARK    7  A    between atoms: N4_21  and  C14_22 
REMARK       I    between atoms: N4_21  and  C20_33 
REMARK    8  A    between atoms: N6_29  and  C19_31 
ROOT
HETATM    1  C12 UNL     1      19.543 -14.159  21.154  1.00  0.00     0.186 C 
ENDROOT
BRANCH   1   2
HETATM    2  C11 UNL     1      19.812 -12.707  21.130  1.00  0.00     0.036 C 
HETATM    3  C10 UNL     1      21.090 -12.365  20.395  1.00  0.00     0.010 C 
HETATM    4  C9  UNL     1      20.854 -11.905  18.965  1.00  0.00     0.020 C 
HETATM    5  C8  UNL     1      19.517 -12.288  18.412  1.00  0.00     0.127 C 
HETATM    6  N2  UNL     1      18.436 -11.855  19.291  1.00  0.00    -0.341 N 
HETATM    7  C7  UNL     1      17.178 -11.476  18.779  1.00  0.00     0.299 C 
HETATM    8  C21 UNL     1      18.678 -11.810  20.707  1.00  0.00     0.134 C 
HETATM    9  O2  UNL     1      16.991 -11.524  17.532  1.00  0.00    -0.258 OA
BRANCH   7  10
HETATM   10  C6  UNL     1      16.155 -11.047  19.679  1.00  0.00     0.009 C 
HETATM   11  C5  UNL     1      15.305 -10.677  20.451  1.00  0.00    -0.004 C 
BRANCH  11  12
HETATM   12  C4  UNL     1      14.325 -10.237  21.370  1.00  0.00    -0.004 C 
HETATM   13  C3  UNL     1      13.498  -9.871  22.169  1.00  0.00     0.009 C 
BRANCH  13  14
HETATM   14  C2  UNL     1      12.505  -9.450  23.140  1.00  0.00     0.296 C 
HETATM   15  N1  UNL     1      12.785  -8.330  23.961  1.00  0.00    -0.355 N 
HETATM   16  C1  UNL     1      11.803  -7.910  24.924  1.00  0.00     0.150 C 
ATOM     17  H1  UNL     1      13.669  -7.829  23.871  1.00  0.00     0.162 HD
HETATM   18  O1  UNL     1      11.416 -10.065  23.252  1.00  0.00    -0.258 OA
ENDBRANCH  13  14
ENDBRANCH  11  12
ENDBRANCH   7  10
ENDBRANCH   1   2
BRANCH   1  19
HETATM   19  C13 UNL     1      18.125 -14.440  21.637  1.00  0.00     0.255 C 
HETATM   20  N3  UNL     1      17.146 -15.025  20.804  1.00  0.00    -0.060 NA
HETATM   21  O3  UNL     1      17.811 -14.148  22.806  1.00  0.00    -0.275 OA
ENDBRANCH   1  19
BRANCH   1  22
HETATM   22  N4  UNL     1      20.380 -14.927  22.080  1.00  0.00    -0.317 N 
HETATM   23  C20 UNL     1      20.696 -14.724  23.413  1.00  0.00     0.188 C 
HETATM   24  N7  UNL     1      20.848 -15.837  24.142  1.00  0.00    -0.373 N 
HETATM   25  N8  UNL     1      20.878 -13.555  24.160  1.00  0.00    -0.064 NA
ATOM     26  H72 UNL     1      20.715 -16.689  23.598  1.00  0.00     0.158 HD
ATOM     27  H71 UNL     1      21.080 -15.688  25.124  1.00  0.00     0.158 HD
BRANCH  22  28
HETATM   28  C14 UNL     1      20.851 -16.161  21.486  1.00  0.00     0.105 C 
HETATM   29  C15 UNL     1      20.307 -17.299  21.686  1.00  0.00     0.003 C 
HETATM   30  C16 UNL     1      20.835 -18.570  21.045  1.00  0.00     0.063 C 
HETATM   31  C18 UNL     1      19.164 -17.747  22.464  1.00  0.00     0.110 C 
HETATM   32  C17 UNL     1      20.661 -19.533  22.212  1.00  0.00     0.126 C 
HETATM   33  N5  UNL     1      19.509 -19.053  22.953  1.00  0.00    -0.376 N 
ATOM     34  H5  UNL     1      19.026 -19.558  23.697  1.00  0.00     0.161 HD
HETATM   35  N6  UNL     1      18.085 -17.090  22.644  1.00  0.00    -0.320 N 
ATOM     36  H6  UNL     1      17.956 -16.165  22.232  1.00  0.00     0.169 HD
BRANCH  35  37
HETATM   37  C19 UNL     1      17.070 -17.687  23.438  1.00  0.00     0.354 C 
HETATM   38  O4  UNL     1      17.218 -17.838  24.666  1.00  0.00    -0.283 OA
ENDBRANCH  35  37
ENDBRANCH  22  28
ENDBRANCH   1  22
TORSDOF 8
ENDMDL
