MODEL 1
REMARK VINA RESULT: -6.634790179      0.000      0.000
REMARK  8 active torsions:
REMARK  status: ('A' for Active; 'I' for Inactive)
REMARK    1  A    between atoms: C5_10  and  N3_11 
REMARK    2  A    between atoms: N3_11  and  C6_13 
REMARK    3  A    between atoms: C6_13  and  C7_14 
REMARK    4  A    between atoms: C7_14  and  N4_15 
REMARK    5  A    between atoms: N4_15  and  C8_17 
REMARK    6  A    between atoms: C8_17  and  C9_18 
REMARK    7  A    between atoms: C9_18  and  N5_19 
REMARK    8  A    between atoms: C10_25  and  N7_26 
ROOT
HETATM    1  C1  UNL     1     -28.383  21.461 157.610  1.00  0.00     0.163 C 
HETATM    2  N1  UNL     1     -27.561  21.495 156.417  1.00  0.00    -0.288 N 
HETATM    3  C2  UNL     1     -27.845  20.744 155.342  1.00  0.00     0.330 A 
HETATM    4  O1  UNL     1     -28.863  19.983 155.373  1.00  0.00    -0.246 OA
HETATM    5  N2  UNL     1     -27.123  20.735 154.215  1.00  0.00    -0.274 N 
ATOM      6  H2  UNL     1     -27.397  20.137 153.436  1.00  0.00     0.173 HD
HETATM    7  C3  UNL     1     -26.034  21.516 154.116  1.00  0.00     0.267 A 
HETATM    8  O2  UNL     1     -25.321  21.533 153.058  1.00  0.00    -0.267 OA
HETATM    9  C4  UNL     1     -25.705  22.304 155.198  1.00  0.00     0.121 A 
HETATM   10  C5  UNL     1     -24.568  23.115 155.087  1.00  0.00     0.136 A 
HETATM   11  N6  UNL     1     -24.277  23.869 156.159  1.00  0.00    -0.176 N 
ATOM     12  H6  UNL     1     -23.460  24.478 156.132  1.00  0.00     0.186 HD
HETATM   13  C10 UNL     1     -25.046  23.840 157.279  1.00  0.00     0.679 A 
HETATM   14  N8  UNL     1     -26.131  23.068 157.389  1.00  0.00    -0.175 N 
ATOM     15  H8  UNL     1     -26.689  23.069 158.243  1.00  0.00     0.186 HD
HETATM   16  C11 UNL     1     -26.469  22.292 156.345  1.00  0.00     0.146 A 
ENDROOT
BRANCH  10  17
HETATM   17  N3  UNL     1     -23.906  23.085 154.008  1.00  0.00    -0.373 N 
ATOM     18  H3  UNL     1     -24.326  22.545 153.251  1.00  0.00     0.161 HD
BRANCH  17  19
HETATM   19  C6  UNL     1     -22.658  23.699 153.704  1.00  0.00     0.140 C 
BRANCH  19  20
HETATM   20  C7  UNL     1     -21.792  22.654 153.014  1.00  0.00     0.133 C 
BRANCH  20  21
HETATM   21  N4  UNL     1     -22.513  21.542 152.499  1.00  0.00    -0.418 N 
ATOM     22  H4  UNL     1     -22.974  20.860 153.102  1.00  0.00     0.153 HD
BRANCH  21  23
HETATM   23  C8  UNL     1     -22.543  21.453 151.077  1.00  0.00     0.141 C 
BRANCH  23  24
HETATM   24  C9  UNL     1     -22.817  19.992 150.716  1.00  0.00     0.248 C 
BRANCH  24  25
HETATM   25  N5  UNL     1     -24.197  19.732 151.138  1.00  0.00    -0.078 N 
ATOM     26  H53 UNL     1     -24.289  18.940 151.775  1.00  0.00     0.274 HD
ATOM     27  H52 UNL     1     -24.571  20.439 151.771  1.00  0.00     0.274 HD
ATOM     28  H51 UNL     1     -24.733  19.629 150.277  1.00  0.00     0.274 HD
ENDBRANCH  24  25
ENDBRANCH  23  24
ENDBRANCH  21  23
ENDBRANCH  20  21
ENDBRANCH  19  20
ENDBRANCH  17  19
ENDBRANCH  10  17
BRANCH  13  29
HETATM   29  N7  UNL     1     -24.737  24.580 158.293  1.00  0.00    -0.234 N 
ATOM     30  H72 UNL     1     -25.139  25.517 158.330  1.00  0.00     0.174 HD
ATOM     31  H71 UNL     1     -24.114  24.220 159.015  1.00  0.00     0.174 HD
ENDBRANCH  13  29
TORSDOF 8
ENDMDL
MODEL 2
REMARK VINA RESULT: -6.395178577      2.497      6.032
REMARK  8 active torsions:
REMARK  status: ('A' for Active; 'I' for Inactive)
REMARK    1  A    between atoms: C5_10  and  N3_11 
REMARK    2  A    between atoms: N3_11  and  C6_13 
REMARK    3  A    between atoms: C6_13  and  C7_14 
REMARK    4  A    between atoms: C7_14  and  N4_15 
REMARK    5  A    between atoms: N4_15  and  C8_17 
REMARK    6  A    between atoms: C8_17  and  C9_18 
REMARK    7  A    between atoms: C9_18  and  N5_19 
REMARK    8  A    between atoms: C10_25  and  N7_26 
ROOT
HETATM    1  C1  UNL     1     -20.407  24.385 156.379  1.00  0.00     0.163 C 
HETATM    2  N1  UNL     1     -21.830  24.122 156.470  1.00  0.00    -0.288 N 
HETATM    3  C2  UNL     1     -22.473  24.120 157.647  1.00  0.00     0.330 A 
HETATM    4  O1  UNL     1     -21.816  24.357 158.710  1.00  0.00    -0.246 OA
HETATM    5  N2  UNL     1     -23.783  23.884 157.792  1.00  0.00    -0.274 N 
ATOM      6  H2  UNL     1     -24.207  23.899 158.719  1.00  0.00     0.173 HD
HETATM    7  C3  UNL     1     -24.536  23.628 156.709  1.00  0.00     0.267 A 
HETATM    8  O2  UNL     1     -25.787  23.398 156.807  1.00  0.00    -0.267 OA
HETATM    9  C4  UNL     1     -23.915  23.619 155.478  1.00  0.00     0.121 A 
HETATM   10  C5  UNL     1     -24.707  23.350 154.354  1.00  0.00     0.136 A 
HETATM   11  N6  UNL     1     -24.069  23.349 153.173  1.00  0.00    -0.176 N 
ATOM     12  H6  UNL     1     -24.599  23.159 152.322  1.00  0.00     0.186 HD
HETATM   13  C10 UNL     1     -22.736  23.595 153.084  1.00  0.00     0.679 A 
HETATM   14  N8  UNL     1     -21.978  23.853 154.153  1.00  0.00    -0.175 N 
ATOM     15  H8  UNL     1     -20.979  24.035 154.054  1.00  0.00     0.186 HD
HETATM   16  C11 UNL     1     -22.564  23.866 155.362  1.00  0.00     0.146 A 
ENDROOT
BRANCH  10  17
HETATM   17  N3  UNL     1     -25.943  23.131 154.524  1.00  0.00    -0.373 N 
ATOM     18  H3  UNL     1     -26.271  23.189 155.488  1.00  0.00     0.161 HD
BRANCH  17  19
HETATM   19  C6  UNL     1     -26.939  22.817 153.555  1.00  0.00     0.140 C 
BRANCH  19  20
HETATM   20  C7  UNL     1     -27.895  21.818 154.194  1.00  0.00     0.133 C 
BRANCH  20  21
HETATM   21  N4  UNL     1     -28.290  22.149 155.518  1.00  0.00    -0.418 N 
ATOM     22  H4  UNL     1     -28.610  23.082 155.779  1.00  0.00     0.153 HD
BRANCH  21  23
HETATM   23  C8  UNL     1     -28.206  21.078 156.454  1.00  0.00     0.141 C 
BRANCH  23  24
HETATM   24  C9  UNL     1     -28.456  21.665 157.845  1.00  0.00     0.248 C 
BRANCH  24  25
HETATM   25  N5  UNL     1     -28.869  23.054 157.620  1.00  0.00    -0.078 N 
ATOM     26  H53 UNL     1     -28.605  23.417 156.703  1.00  0.00     0.274 HD
ATOM     27  H52 UNL     1     -29.877  23.168 157.509  1.00  0.00     0.274 HD
ATOM     28  H51 UNL     1     -28.481  23.586 158.398  1.00  0.00     0.274 HD
ENDBRANCH  24  25
ENDBRANCH  23  24
ENDBRANCH  21  23
ENDBRANCH  20  21
ENDBRANCH  19  20
ENDBRANCH  17  19
ENDBRANCH  10  17
BRANCH  13  29
HETATM   29  N7  UNL     1     -22.154  23.588 151.929  1.00  0.00    -0.234 N 
ATOM     30  H72 UNL     1     -22.034  24.484 151.458  1.00  0.00     0.174 HD
ATOM     31  H71 UNL     1     -21.837  22.707 151.525  1.00  0.00     0.174 HD
ENDBRANCH  13  29
TORSDOF 8
ENDMDL
MODEL 3
REMARK VINA RESULT: -6.362958569      1.854      4.793
REMARK  8 active torsions:
REMARK  status: ('A' for Active; 'I' for Inactive)
REMARK    1  A    between atoms: C5_10  and  N3_11 
REMARK    2  A    between atoms: N3_11  and  C6_13 
REMARK    3  A    between atoms: C6_13  and  C7_14 
REMARK    4  A    between atoms: C7_14  and  N4_15 
REMARK    5  A    between atoms: N4_15  and  C8_17 
REMARK    6  A    between atoms: C8_17  and  C9_18 
REMARK    7  A    between atoms: C9_18  and  N5_19 
REMARK    8  A    between atoms: C10_25  and  N7_26 
ROOT
HETATM    1  C1  UNL     1     -21.837  22.520 153.253  1.00  0.00     0.163 C 
HETATM    2  N1  UNL     1     -23.275  22.610 153.413  1.00  0.00    -0.288 N 
HETATM    3  C2  UNL     1     -24.116  22.349 152.401  1.00  0.00     0.330 A 
HETATM    4  O1  UNL     1     -23.636  22.013 151.272  1.00  0.00    -0.246 OA
HETATM    5  N2  UNL     1     -25.449  22.415 152.490  1.00  0.00    -0.274 N 
ATOM      6  H2  UNL     1     -26.029  22.203 151.678  1.00  0.00     0.173 HD
HETATM    7  C3  UNL     1     -26.021  22.763 153.655  1.00  0.00     0.267 A 
HETATM    8  O2  UNL     1     -27.289  22.839 153.778  1.00  0.00    -0.267 OA
HETATM    9  C4  UNL     1     -25.194  23.042 154.722  1.00  0.00     0.121 A 
HETATM   10  C5  UNL     1     -25.798  23.405 155.933  1.00  0.00     0.136 A 
HETATM   11  N6  UNL     1     -24.963  23.668 156.950  1.00  0.00    -0.176 N 
ATOM     12  H6  UNL     1     -25.350  23.937 157.855  1.00  0.00     0.186 HD
HETATM   13  C10 UNL     1     -23.614  23.585 156.804  1.00  0.00     0.679 A 
HETATM   14  N8  UNL     1     -23.035  23.238 155.651  1.00  0.00    -0.175 N 
ATOM     15  H8  UNL     1     -22.019  23.183 155.573  1.00  0.00     0.186 HD
HETATM   16  C11 UNL     1     -23.824  22.964 154.598  1.00  0.00     0.146 A 
ENDROOT
BRANCH  10  17
HETATM   17  N3  UNL     1     -27.062  23.458 155.986  1.00  0.00    -0.373 N 
ATOM     18  H3  UNL     1     -27.516  23.923 155.199  1.00  0.00     0.161 HD
BRANCH  17  19
HETATM   19  C6  UNL     1     -27.939  22.960 156.992  1.00  0.00     0.140 C 
BRANCH  19  20
HETATM   20  C7  UNL     1     -27.960  21.442 156.867  1.00  0.00     0.133 C 
BRANCH  20  21
HETATM   21  N4  UNL     1     -28.598  20.959 155.693  1.00  0.00    -0.418 N 
ATOM     22  H4  UNL     1     -29.406  21.422 155.276  1.00  0.00     0.153 HD
BRANCH  21  23
HETATM   23  C8  UNL     1     -28.024  19.777 155.141  1.00  0.00     0.141 C 
BRANCH  23  24
HETATM   24  C9  UNL     1     -26.576  19.701 155.629  1.00  0.00     0.248 C 
BRANCH  24  25
HETATM   25  N5  UNL     1     -26.144  18.323 155.369  1.00  0.00    -0.078 N 
ATOM     26  H53 UNL     1     -26.190  18.058 154.385  1.00  0.00     0.274 HD
ATOM     27  H52 UNL     1     -25.140  18.180 155.485  1.00  0.00     0.274 HD
ATOM     28  H51 UNL     1     -26.714  17.737 155.978  1.00  0.00     0.274 HD
ENDBRANCH  24  25
ENDBRANCH  23  24
ENDBRANCH  21  23
ENDBRANCH  20  21
ENDBRANCH  19  20
ENDBRANCH  17  19
ENDBRANCH  10  17
BRANCH  13  29
HETATM   29  N7  UNL     1     -22.839  23.845 157.805  1.00  0.00    -0.234 N 
ATOM     30  H72 UNL     1     -22.876  23.211 158.604  1.00  0.00     0.174 HD
ATOM     31  H71 UNL     1     -22.225  24.658 157.776  1.00  0.00     0.174 HD
ENDBRANCH  13  29
TORSDOF 8
ENDMDL
MODEL 4
REMARK VINA RESULT: -6.352440419      2.380      3.760
REMARK  8 active torsions:
REMARK  status: ('A' for Active; 'I' for Inactive)
REMARK    1  A    between atoms: C5_10  and  N3_11 
REMARK    2  A    between atoms: N3_11  and  C6_13 
REMARK    3  A    between atoms: C6_13  and  C7_14 
REMARK    4  A    between atoms: C7_14  and  N4_15 
REMARK    5  A    between atoms: N4_15  and  C8_17 
REMARK    6  A    between atoms: C8_17  and  C9_18 
REMARK    7  A    between atoms: C9_18  and  N5_19 
REMARK    8  A    between atoms: C10_25  and  N7_26 
ROOT
HETATM    1  C1  UNL     1     -25.924  23.353 157.933  1.00  0.00     0.163 C 
HETATM    2  N1  UNL     1     -25.009  23.562 156.829  1.00  0.00    -0.288 N 
HETATM    3  C2  UNL     1     -23.917  24.332 156.953  1.00  0.00     0.330 A 
HETATM    4  O1  UNL     1     -23.682  24.892 158.070  1.00  0.00    -0.246 OA
HETATM    5  N2  UNL     1     -23.039  24.561 155.970  1.00  0.00    -0.274 N 
ATOM      6  H2  UNL     1     -22.229  25.159 156.135  1.00  0.00     0.173 HD
HETATM    7  C3  UNL     1     -23.228  23.999 154.765  1.00  0.00     0.267 A 
HETATM    8  O2  UNL     1     -22.412  24.195 153.803  1.00  0.00    -0.267 OA
HETATM    9  C4  UNL     1     -24.338  23.200 154.592  1.00  0.00     0.121 A 
HETATM   10  C5  UNL     1     -24.529  22.618 153.332  1.00  0.00     0.136 A 
HETATM   11  N6  UNL     1     -25.619  21.847 153.200  1.00  0.00    -0.176 N 
ATOM     12  H6  UNL     1     -25.806  21.399 152.303  1.00  0.00     0.186 HD
HETATM   13  C10 UNL     1     -26.479  21.648 154.233  1.00  0.00     0.679 A 
HETATM   14  N8  UNL     1     -26.300  22.200 155.436  1.00  0.00    -0.175 N 
ATOM     15  H8  UNL     1     -26.964  22.031 156.193  1.00  0.00     0.186 HD
HETATM   16  C11 UNL     1     -25.224  22.983 155.625  1.00  0.00     0.146 A 
ENDROOT
BRANCH  10  17
HETATM   17  N3  UNL     1     -23.680  22.853 152.423  1.00  0.00    -0.373 N 
ATOM     18  H3  UNL     1     -23.032  23.618 152.613  1.00  0.00     0.161 HD
BRANCH  17  19
HETATM   19  C6  UNL     1     -23.502  22.198 151.170  1.00  0.00     0.140 C 
BRANCH  19  20
HETATM   20  C7  UNL     1     -22.230  21.367 151.267  1.00  0.00     0.133 C 
BRANCH  20  21
HETATM   21  N4  UNL     1     -22.451  19.965 151.355  1.00  0.00    -0.418 N 
ATOM     22  H4  UNL     1     -21.926  19.366 151.993  1.00  0.00     0.153 HD
BRANCH  21  23
HETATM   23  C8  UNL     1     -23.461  19.462 150.486  1.00  0.00     0.141 C 
BRANCH  23  24
HETATM   24  C9  UNL     1     -22.762  18.645 149.397  1.00  0.00     0.248 C 
BRANCH  24  25
HETATM   25  N5  UNL     1     -23.835  17.960 148.668  1.00  0.00    -0.078 N 
ATOM     26  H53 UNL     1     -24.534  17.531 149.274  1.00  0.00     0.274 HD
ATOM     27  H52 UNL     1     -24.470  18.595 148.182  1.00  0.00     0.274 HD
ATOM     28  H51 UNL     1     -23.367  17.297 148.050  1.00  0.00     0.274 HD
ENDBRANCH  24  25
ENDBRANCH  23  24
ENDBRANCH  21  23
ENDBRANCH  20  21
ENDBRANCH  19  20
ENDBRANCH  17  19
ENDBRANCH  10  17
BRANCH  13  29
HETATM   29  N7  UNL     1     -27.519  20.897 154.071  1.00  0.00    -0.234 N 
ATOM     30  H72 UNL     1     -28.073  21.038 153.227  1.00  0.00     0.174 HD
ATOM     31  H71 UNL     1     -27.758  20.199 154.775  1.00  0.00     0.174 HD
ENDBRANCH  13  29
TORSDOF 8
ENDMDL
MODEL 5
REMARK VINA RESULT: -6.288171569      2.383      5.476
REMARK  8 active torsions:
REMARK  status: ('A' for Active; 'I' for Inactive)
REMARK    1  A    between atoms: C5_10  and  N3_11 
REMARK    2  A    between atoms: N3_11  and  C6_13 
REMARK    3  A    between atoms: C6_13  and  C7_14 
REMARK    4  A    between atoms: C7_14  and  N4_15 
REMARK    5  A    between atoms: N4_15  and  C8_17 
REMARK    6  A    between atoms: C8_17  and  C9_18 
REMARK    7  A    between atoms: C9_18  and  N5_19 
REMARK    8  A    between atoms: C10_25  and  N7_26 
ROOT
HETATM    1  C1  UNL     1     -23.969  20.702 151.086  1.00  0.00     0.163 C 
HETATM    2  N1  UNL     1     -23.905  21.791 152.040  1.00  0.00    -0.288 N 
HETATM    3  C2  UNL     1     -23.044  22.810 151.892  1.00  0.00     0.330 A 
HETATM    4  O1  UNL     1     -22.266  22.818 150.886  1.00  0.00    -0.246 OA
HETATM    5  N2  UNL     1     -22.941  23.840 152.739  1.00  0.00    -0.274 N 
ATOM      6  H2  UNL     1     -22.263  24.582 152.564  1.00  0.00     0.173 HD
HETATM    7  C3  UNL     1     -23.734  23.894 153.822  1.00  0.00     0.267 A 
HETATM    8  O2  UNL     1     -23.664  24.860 154.653  1.00  0.00    -0.267 OA
HETATM    9  C4  UNL     1     -24.633  22.866 154.014  1.00  0.00     0.121 A 
HETATM   10  C5  UNL     1     -25.457  22.929 155.146  1.00  0.00     0.136 A 
HETATM   11  N6  UNL     1     -26.320  21.913 155.301  1.00  0.00    -0.176 N 
ATOM     12  H6  UNL     1     -26.943  21.908 156.109  1.00  0.00     0.186 HD
HETATM   13  C10 UNL     1     -26.383  20.890 154.408  1.00  0.00     0.679 A 
HETATM   14  N8  UNL     1     -25.601  20.828 153.328  1.00  0.00    -0.175 N 
ATOM     15  H8  UNL     1     -25.672  20.047 152.675  1.00  0.00     0.186 HD
HETATM   16  C11 UNL     1     -24.717  21.819 153.123  1.00  0.00     0.146 A 
ENDROOT
BRANCH  10  17
HETATM   17  N3  UNL     1     -25.335  23.917 155.928  1.00  0.00    -0.373 N 
ATOM     18  H3  UNL     1     -24.800  24.705 155.562  1.00  0.00     0.161 HD
BRANCH  17  19
HETATM   19  C6  UNL     1     -25.842  24.083 157.250  1.00  0.00     0.140 C 
BRANCH  19  20
HETATM   20  C7  UNL     1     -24.646  24.257 158.177  1.00  0.00     0.133 C 
BRANCH  20  21
HETATM   21  N4  UNL     1     -23.412  23.807 157.634  1.00  0.00    -0.418 N 
ATOM     22  H4  UNL     1     -23.316  22.910 157.157  1.00  0.00     0.153 HD
BRANCH  21  23
HETATM   23  C8  UNL     1     -22.319  24.705 157.805  1.00  0.00     0.141 C 
BRANCH  23  24
HETATM   24  C9  UNL     1     -21.130  24.133 157.030  1.00  0.00     0.248 C 
BRANCH  24  25
HETATM   25  N5  UNL     1     -21.639  22.932 156.357  1.00  0.00    -0.078 N 
ATOM     26  H53 UNL     1     -20.911  22.260 156.112  1.00  0.00     0.274 HD
ATOM     27  H52 UNL     1     -22.172  22.314 156.970  1.00  0.00     0.274 HD
ATOM     28  H51 UNL     1     -22.170  23.271 155.555  1.00  0.00     0.274 HD
ENDBRANCH  24  25
ENDBRANCH  23  24
ENDBRANCH  21  23
ENDBRANCH  20  21
ENDBRANCH  19  20
ENDBRANCH  17  19
ENDBRANCH  10  17
BRANCH  13  29
HETATM   29  N7  UNL     1     -27.228  19.928 154.589  1.00  0.00    -0.234 N 
ATOM     30  H72 UNL     1     -27.911  19.759 153.851  1.00  0.00     0.174 HD
ATOM     31  H71 UNL     1     -27.194  19.374 155.444  1.00  0.00     0.174 HD
ENDBRANCH  13  29
TORSDOF 8
ENDMDL
