MODEL 1
REMARK VINA RESULT: -7.678611535      0.000      0.000
REMARK  6 active torsions:
REMARK  status: ('A' for Active; 'I' for Inactive)
REMARK    1  A    between atoms: C2_2  and  C3_3 
REMARK    2  A    between atoms: C2_2  and  N3_14 
REMARK    3  A    between atoms: C3_3  and  C4_4 
REMARK    4  A    between atoms: C6_11  and  O2_12 
REMARK    5  A    between atoms: C7_16  and  C8_17 
REMARK    6  A    between atoms: N5_20  and  N6_21 
ROOT
HETATM    1  N3  UNL     1     -25.249  23.630 154.185  1.00  0.00    -0.392 N 
ATOM      2  H3  UNL     1     -25.611  24.514 154.543  1.00  0.00     0.159 HD
HETATM    3  C7  UNL     1     -24.144  23.194 154.658  1.00  0.00     0.120 C 
ENDROOT
BRANCH   1   4
HETATM    4  C2  UNL     1     -26.015  22.938 153.167  1.00  0.00     0.082 C 
HETATM    5  C1  UNL     1     -25.723  23.585 151.842  1.00  0.00     0.032 C 
BRANCH   4   6
HETATM    6  C3  UNL     1     -27.451  22.983 153.553  1.00  0.00     0.086 C 
BRANCH   6   7
HETATM    7  C4  UNL     1     -27.739  22.436 154.890  1.00  0.00     0.066 A 
HETATM    8  N1  UNL     1     -27.756  22.988 156.098  1.00  0.00    -0.308 N 
HETATM    9  C5  UNL     1     -28.087  22.052 157.036  1.00  0.00     0.326 A 
ATOM     10  H1  UNL     1     -27.551  23.968 156.296  1.00  0.00     0.170 HD
HETATM   11  O1  UNL     1     -28.192  22.247 158.286  1.00  0.00    -0.247 OA
HETATM   12  N2  UNL     1     -28.279  20.892 156.381  1.00  0.00    -0.287 N 
HETATM   13  C6  UNL     1     -28.073  21.103 155.082  1.00  0.00     0.167 A 
ATOM     14  H2  UNL     1     -28.539  20.002 156.807  1.00  0.00     0.172 HD
BRANCH  13  15
HETATM   15  O2  UNL     1     -28.188  20.109 154.106  1.00  0.00    -0.345 OA
ATOM     16  H2  UNL     1     -27.764  19.258 154.097  1.00  0.00     0.219 HD
ENDBRANCH  13  15
ENDBRANCH   6   7
ENDBRANCH   4   6
ENDBRANCH   1   4
BRANCH   3  17
HETATM   17  C8  UNL     1     -23.421  23.929 155.673  1.00  0.00     0.133 A 
HETATM   18  N4  UNL     1     -22.164  24.356 155.464  1.00  0.00    -0.269 N 
HETATM   19  N5  UNL     1     -21.468  25.033 156.373  1.00  0.00    -0.148 N 
ATOM     20  H4  UNL     1     -21.723  24.151 154.566  1.00  0.00     0.189 HD
HETATM   21  C9  UNL     1     -22.072  25.296 157.563  1.00  0.00     0.363 A 
HETATM   22  O3  UNL     1     -21.442  25.938 158.456  1.00  0.00    -0.243 OA
HETATM   23  N7  UNL     1     -23.322  24.890 157.818  1.00  0.00    -0.271 N 
HETATM   24  C10 UNL     1     -23.999  24.213 156.889  1.00  0.00     0.279 A 
ATOM     25  H7  UNL     1     -23.755  25.098 158.718  1.00  0.00     0.174 HD
HETATM   26  O4  UNL     1     -25.173  23.850 157.173  1.00  0.00    -0.265 OA
BRANCH  19  27
HETATM   27  N6  UNL     1     -20.169  25.470 156.144  1.00  0.00    -0.320 N 
ATOM     28  H62 UNL     1     -19.391  25.027 156.633  1.00  0.00     0.179 HD
ATOM     29  H61 UNL     1     -19.953  26.230 155.499  1.00  0.00     0.179 HD
ENDBRANCH  19  27
ENDBRANCH   3  17
TORSDOF 6
ENDMDL
MODEL 2
REMARK VINA RESULT: -7.572133870      2.959      4.572
REMARK  6 active torsions:
REMARK  status: ('A' for Active; 'I' for Inactive)
REMARK    1  A    between atoms: C2_2  and  C3_3 
REMARK    2  A    between atoms: C2_2  and  N3_14 
REMARK    3  A    between atoms: C3_3  and  C4_4 
REMARK    4  A    between atoms: C6_11  and  O2_12 
REMARK    5  A    between atoms: C7_16  and  C8_17 
REMARK    6  A    between atoms: N5_20  and  N6_21 
ROOT
HETATM    1  N3  UNL     1     -26.118  23.429 155.609  1.00  0.00    -0.392 N 
ATOM      2  H3  UNL     1     -26.677  23.695 154.799  1.00  0.00     0.159 HD
HETATM    3  C7  UNL     1     -24.939  22.978 155.408  1.00  0.00     0.120 C 
ENDROOT
BRANCH   1   4
HETATM    4  C2  UNL     1     -26.705  23.581 156.927  1.00  0.00     0.082 C 
HETATM    5  C1  UNL     1     -25.586  23.712 157.923  1.00  0.00     0.032 C 
BRANCH   4   6
HETATM    6  C3  UNL     1     -27.598  22.419 157.177  1.00  0.00     0.086 C 
BRANCH   6   7
HETATM    7  C4  UNL     1     -27.391  21.284 156.261  1.00  0.00     0.066 A 
HETATM    8  N1  UNL     1     -26.667  20.175 156.360  1.00  0.00    -0.308 N 
HETATM    9  C5  UNL     1     -26.806  19.423 155.229  1.00  0.00     0.326 A 
ATOM     10  H1  UNL     1     -26.092  19.922 157.164  1.00  0.00     0.170 HD
HETATM   11  O1  UNL     1     -26.250  18.305 154.998  1.00  0.00    -0.247 OA
HETATM   12  N2  UNL     1     -27.641  20.093 154.413  1.00  0.00    -0.287 N 
HETATM   13  C6  UNL     1     -28.006  21.221 155.019  1.00  0.00     0.167 A 
ATOM     14  H2  UNL     1     -27.944  19.788 153.487  1.00  0.00     0.172 HD
BRANCH  13  15
HETATM   15  O2  UNL     1     -28.873  22.161 154.453  1.00  0.00    -0.345 OA
ATOM     16  H2  UNL     1     -29.729  21.999 154.072  1.00  0.00     0.219 HD
ENDBRANCH  13  15
ENDBRANCH   6   7
ENDBRANCH   4   6
ENDBRANCH   1   4
BRANCH   3  17
HETATM   17  C8  UNL     1     -24.405  22.847 154.069  1.00  0.00     0.133 A 
HETATM   18  N4  UNL     1     -24.544  21.707 153.371  1.00  0.00    -0.269 N 
HETATM   19  N5  UNL     1     -24.067  21.549 152.140  1.00  0.00    -0.148 N 
ATOM     20  H4  UNL     1     -25.039  20.927 153.805  1.00  0.00     0.189 HD
HETATM   21  C9  UNL     1     -23.410  22.599 151.577  1.00  0.00     0.363 A 
HETATM   22  O3  UNL     1     -22.940  22.488 150.406  1.00  0.00    -0.243 OA
HETATM   23  N7  UNL     1     -23.246  23.754 152.234  1.00  0.00    -0.271 N 
HETATM   24  C10 UNL     1     -23.735  23.887 153.468  1.00  0.00     0.279 A 
ATOM     25  H7  UNL     1     -22.750  24.529 151.793  1.00  0.00     0.174 HD
HETATM   26  O4  UNL     1     -23.556  24.992 154.049  1.00  0.00    -0.265 OA
BRANCH  19  27
HETATM   27  N6  UNL     1     -24.218  20.365 151.426  1.00  0.00    -0.320 N 
ATOM     28  H62 UNL     1     -25.073  19.818 151.528  1.00  0.00     0.179 HD
ATOM     29  H61 UNL     1     -23.500  20.012 150.794  1.00  0.00     0.179 HD
ENDBRANCH  19  27
ENDBRANCH   3  17
TORSDOF 6
ENDMDL
MODEL 3
REMARK VINA RESULT: -7.257000663      0.959      1.622
REMARK  6 active torsions:
REMARK  status: ('A' for Active; 'I' for Inactive)
REMARK    1  A    between atoms: C2_2  and  C3_3 
REMARK    2  A    between atoms: C2_2  and  N3_14 
REMARK    3  A    between atoms: C3_3  and  C4_4 
REMARK    4  A    between atoms: C6_11  and  O2_12 
REMARK    5  A    between atoms: C7_16  and  C8_17 
REMARK    6  A    between atoms: N5_20  and  N6_21 
ROOT
HETATM    1  N3  UNL     1     -25.011  23.734 153.980  1.00  0.00    -0.392 N 
ATOM      2  H3  UNL     1     -25.234  24.718 154.126  1.00  0.00     0.159 HD
HETATM    3  C7  UNL     1     -24.137  23.194 154.741  1.00  0.00     0.120 C 
ENDROOT
BRANCH   1   4
HETATM    4  C2  UNL     1     -25.703  23.024 152.922  1.00  0.00     0.082 C 
HETATM    5  C1  UNL     1     -25.322  23.655 151.611  1.00  0.00     0.032 C 
BRANCH   4   6
HETATM    6  C3  UNL     1     -27.161  23.068 153.207  1.00  0.00     0.086 C 
BRANCH   6   7
HETATM    7  C4  UNL     1     -27.631  22.029 154.139  1.00  0.00     0.066 A 
HETATM    8  N1  UNL     1     -27.758  20.712 154.019  1.00  0.00    -0.308 N 
HETATM    9  C5  UNL     1     -28.243  20.182 155.181  1.00  0.00     0.326 A 
ATOM     10  H1  UNL     1     -27.528  20.175 153.183  1.00  0.00     0.170 HD
HETATM   11  O1  UNL     1     -28.481  18.954 155.403  1.00  0.00    -0.247 OA
HETATM   12  N2  UNL     1     -28.416  21.206 156.037  1.00  0.00    -0.287 N 
HETATM   13  C6  UNL     1     -28.052  22.331 155.426  1.00  0.00     0.167 A 
ATOM     14  H2  UNL     1     -28.767  21.132 156.992  1.00  0.00     0.172 HD
BRANCH  13  15
HETATM   15  O2  UNL     1     -28.103  23.592 156.027  1.00  0.00    -0.345 OA
ATOM     16  H2  UNL     1     -28.856  24.008 156.431  1.00  0.00     0.219 HD
ENDBRANCH  13  15
ENDBRANCH   6   7
ENDBRANCH   4   6
ENDBRANCH   1   4
BRANCH   3  17
HETATM   17  C8  UNL     1     -23.476  23.952 155.782  1.00  0.00     0.133 A 
HETATM   18  N4  UNL     1     -22.211  24.381 155.637  1.00  0.00    -0.269 N 
HETATM   19  N5  UNL     1     -21.572  25.079 156.572  1.00  0.00    -0.148 N 
ATOM     20  H4  UNL     1     -21.718  24.160 154.772  1.00  0.00     0.189 HD
HETATM   21  C9  UNL     1     -22.245  25.363 157.719  1.00  0.00     0.363 A 
HETATM   22  O3  UNL     1     -21.672  26.025 158.634  1.00  0.00    -0.243 OA
HETATM   23  N7  UNL     1     -23.507  24.956 157.909  1.00  0.00    -0.271 N 
HETATM   24  C10 UNL     1     -24.125  24.257 156.956  1.00  0.00     0.279 A 
ATOM     25  H7  UNL     1     -23.993  25.180 158.778  1.00  0.00     0.174 HD
HETATM   26  O4  UNL     1     -25.313  23.895 157.178  1.00  0.00    -0.265 OA
BRANCH  19  27
HETATM   27  N6  UNL     1     -20.263  25.518 156.411  1.00  0.00    -0.320 N 
ATOM     28  H62 UNL     1     -20.007  26.464 156.696  1.00  0.00     0.179 HD
ATOM     29  H61 UNL     1     -19.533  24.928 156.013  1.00  0.00     0.179 HD
ENDBRANCH  19  27
ENDBRANCH   3  17
TORSDOF 6
ENDMDL
MODEL 4
REMARK VINA RESULT: -7.221131920      3.055      6.249
REMARK  6 active torsions:
REMARK  status: ('A' for Active; 'I' for Inactive)
REMARK    1  A    between atoms: C2_2  and  C3_3 
REMARK    2  A    between atoms: C2_2  and  N3_14 
REMARK    3  A    between atoms: C3_3  and  C4_4 
REMARK    4  A    between atoms: C6_11  and  O2_12 
REMARK    5  A    between atoms: C7_16  and  C8_17 
REMARK    6  A    between atoms: N5_20  and  N6_21 
ROOT
HETATM    1  N3  UNL     1     -24.623  23.286 156.124  1.00  0.00    -0.392 N 
ATOM      2  H3  UNL     1     -23.631  23.494 156.013  1.00  0.00     0.159 HD
HETATM    3  C7  UNL     1     -25.273  22.877 155.103  1.00  0.00     0.120 C 
ENDROOT
BRANCH   1   4
HETATM    4  C2  UNL     1     -25.219  23.470 157.434  1.00  0.00     0.082 C 
HETATM    5  C1  UNL     1     -26.657  23.861 157.240  1.00  0.00     0.032 C 
BRANCH   4   6
HETATM    6  C3  UNL     1     -24.416  24.481 158.173  1.00  0.00     0.086 C 
BRANCH   6   7
HETATM    7  C4  UNL     1     -23.075  24.720 157.614  1.00  0.00     0.066 A 
HETATM    8  N1  UNL     1     -22.649  25.454 156.592  1.00  0.00    -0.308 N 
HETATM    9  C5  UNL     1     -21.293  25.349 156.473  1.00  0.00     0.326 A 
ATOM     10  H1  UNL     1     -23.248  26.014 155.985  1.00  0.00     0.170 HD
HETATM   11  O1  UNL     1     -20.569  25.922 155.602  1.00  0.00    -0.247 OA
HETATM   12  N2  UNL     1     -20.876  24.525 157.453  1.00  0.00    -0.287 N 
HETATM   13  C6  UNL     1     -21.939  24.134 158.154  1.00  0.00     0.167 A 
ATOM     14  H2  UNL     1     -19.911  24.247 157.629  1.00  0.00     0.172 HD
BRANCH  13  15
HETATM   15  O2  UNL     1     -21.870  23.269 159.251  1.00  0.00    -0.345 OA
ATOM     16  H2  UNL     1     -21.387  22.454 159.312  1.00  0.00     0.219 HD
ENDBRANCH  13  15
ENDBRANCH   6   7
ENDBRANCH   4   6
ENDBRANCH   1   4
BRANCH   3  17
HETATM   17  C8  UNL     1     -24.626  22.712 153.818  1.00  0.00     0.133 A 
HETATM   18  N4  UNL     1     -24.754  21.575 153.113  1.00  0.00    -0.269 N 
HETATM   19  N5  UNL     1     -24.175  21.388 151.931  1.00  0.00    -0.148 N 
ATOM     20  H4  UNL     1     -25.321  20.821 153.503  1.00  0.00     0.189 HD
HETATM   21  C9  UNL     1     -23.422  22.403 151.428  1.00  0.00     0.363 A 
HETATM   22  O3  UNL     1     -22.853  22.263 150.304  1.00  0.00    -0.243 OA
HETATM   23  N7  UNL     1     -23.265  23.554 152.094  1.00  0.00    -0.271 N 
HETATM   24  C10 UNL     1     -23.857  23.717 153.278  1.00  0.00     0.279 A 
ATOM     25  H7  UNL     1     -22.695  24.302 151.699  1.00  0.00     0.174 HD
HETATM   26  O4  UNL     1     -23.681  24.816 153.871  1.00  0.00    -0.265 OA
BRANCH  19  27
HETATM   27  N6  UNL     1     -24.315  20.208 151.209  1.00  0.00    -0.320 N 
ATOM     28  H62 UNL     1     -24.876  19.445 151.589  1.00  0.00     0.179 HD
ATOM     29  H61 UNL     1     -23.874  20.066 150.301  1.00  0.00     0.179 HD
ENDBRANCH  19  27
ENDBRANCH   3  17
TORSDOF 6
ENDMDL
MODEL 5
REMARK VINA RESULT: -7.205761328      2.761      4.190
REMARK  6 active torsions:
REMARK  status: ('A' for Active; 'I' for Inactive)
REMARK    1  A    between atoms: C2_2  and  C3_3 
REMARK    2  A    between atoms: C2_2  and  N3_14 
REMARK    3  A    between atoms: C3_3  and  C4_4 
REMARK    4  A    between atoms: C6_11  and  O2_12 
REMARK    5  A    between atoms: C7_16  and  C8_17 
REMARK    6  A    between atoms: N5_20  and  N6_21 
ROOT
HETATM    1  N3  UNL     1     -24.974  23.723 155.983  1.00  0.00    -0.392 N 
ATOM      2  H3  UNL     1     -25.511  23.908 155.137  1.00  0.00     0.159 HD
HETATM    3  C7  UNL     1     -23.762  23.337 155.856  1.00  0.00     0.120 C 
ENDROOT
BRANCH   1   4
HETATM    4  C2  UNL     1     -25.626  23.913 157.264  1.00  0.00     0.082 C 
HETATM    5  C1  UNL     1     -24.587  24.362 158.254  1.00  0.00     0.032 C 
BRANCH   4   6
HETATM    6  C3  UNL     1     -26.300  22.641 157.637  1.00  0.00     0.086 C 
BRANCH   6   7
HETATM    7  C4  UNL     1     -27.103  22.039 156.559  1.00  0.00     0.066 A 
HETATM    8  N1  UNL     1     -27.158  20.807 156.067  1.00  0.00    -0.308 N 
HETATM    9  C5  UNL     1     -28.076  20.747 155.057  1.00  0.00     0.326 A 
ATOM     10  H1  UNL     1     -26.597  20.020 156.394  1.00  0.00     0.170 HD
HETATM   11  O1  UNL     1     -28.374  19.720 154.374  1.00  0.00    -0.247 OA
HETATM   12  N2  UNL     1     -28.598  21.982 154.929  1.00  0.00    -0.287 N 
HETATM   13  C6  UNL     1     -28.023  22.777 155.828  1.00  0.00     0.167 A 
ATOM     14  H2  UNL     1     -29.313  22.260 154.257  1.00  0.00     0.172 HD
BRANCH  13  15
HETATM   15  O2  UNL     1     -28.330  24.133 155.975  1.00  0.00    -0.345 OA
ATOM     16  H2  UNL     1     -28.613  24.736 155.297  1.00  0.00     0.219 HD
ENDBRANCH  13  15
ENDBRANCH   6   7
ENDBRANCH   4   6
ENDBRANCH   1   4
BRANCH   3  17
HETATM   17  C8  UNL     1     -23.162  23.163 154.551  1.00  0.00     0.133 A 
HETATM   18  N4  UNL     1     -22.394  22.096 154.271  1.00  0.00    -0.269 N 
HETATM   19  N5  UNL     1     -21.827  21.904 153.084  1.00  0.00    -0.148 N 
ATOM     20  H4  UNL     1     -22.239  21.403 155.004  1.00  0.00     0.189 HD
HETATM   21  C9  UNL     1     -22.044  22.839 152.120  1.00  0.00     0.363 A 
HETATM   22  O3  UNL     1     -21.521  22.691 150.976  1.00  0.00    -0.243 OA
HETATM   23  N7  UNL     1     -22.802  23.918 152.352  1.00  0.00    -0.271 N 
HETATM   24  C10 UNL     1     -23.360  24.088 153.551  1.00  0.00     0.279 A 
ATOM     25  H7  UNL     1     -22.951  24.607 151.615  1.00  0.00     0.174 HD
HETATM   26  O4  UNL     1     -24.064  25.120 153.724  1.00  0.00    -0.265 OA
BRANCH  19  27
HETATM   27  N6  UNL     1     -21.035  20.795 152.806  1.00  0.00    -0.320 N 
ATOM     28  H62 UNL     1     -20.370  20.460 153.503  1.00  0.00     0.179 HD
ATOM     29  H61 UNL     1     -21.089  20.292 151.921  1.00  0.00     0.179 HD
ENDBRANCH  19  27
ENDBRANCH   3  17
TORSDOF 6
ENDMDL
