MODEL 1
REMARK VINA RESULT: -7.580247160      0.000      0.000
REMARK  7 active torsions:
REMARK  status: ('A' for Active; 'I' for Inactive)
REMARK    1  A    between atoms: C2_3  and  O1_4 
REMARK    2  A    between atoms: O1_4  and  C3_5 
REMARK    3  A    between atoms: C3_5  and  C4_6 
REMARK    4  A    between atoms: C4_6  and  O2_7 
REMARK    5  A    between atoms: C4_6  and  C5_9 
REMARK    6  A    between atoms: C4_6  and  C6_12 
REMARK    7  A    between atoms: C5_9  and  O3_10 
ROOT
HETATM    1  C4  UNL     1     -27.924  22.861 156.929  1.00  0.00     0.122 C 
ENDROOT
BRANCH   1   2
HETATM    2  C3  UNL     1     -26.735  23.758 157.149  1.00  0.00     0.219 C 
BRANCH   2   3
HETATM    3  O1  UNL     1     -25.511  23.080 157.175  1.00  0.00    -0.331 OA
BRANCH   3   4
HETATM    4  C2  UNL     1     -24.366  23.790 156.895  1.00  0.00     0.176 A 
HETATM    5  C1  UNL     1     -23.695  23.605 155.716  1.00  0.00     0.165 A 
HETATM    6  N1  UNL     1     -24.160  22.677 154.749  1.00  0.00    -0.092 NA
HETATM    7  C10 UNL     1     -22.537  24.335 155.451  1.00  0.00     0.278 A 
HETATM    8  N5  UNL     1     -22.076  25.224 156.360  1.00  0.00    -0.274 N 
HETATM    9  O6  UNL     1     -21.919  24.175 154.385  1.00  0.00    -0.266 OA
HETATM   10  C9  UNL     1     -22.768  25.372 157.501  1.00  0.00     0.329 A 
ATOM     11  H5  UNL     1     -21.230  25.765 156.185  1.00  0.00     0.173 HD
HETATM   12  N4  UNL     1     -23.895  24.673 157.779  1.00  0.00    -0.287 N 
HETATM   13  O5  UNL     1     -22.336  26.202 158.347  1.00  0.00    -0.247 OA
ATOM     14  H4  UNL     1     -24.382  24.820 158.662  1.00  0.00     0.172 HD
ENDBRANCH   3   4
ENDBRANCH   2   3
ENDBRANCH   1   2
BRANCH   1  15
HETATM   15  O2  UNL     1     -29.061  23.383 157.527  1.00  0.00    -0.383 OA
ATOM     16  H2  UNL     1     -29.788  22.773 157.472  1.00  0.00     0.210 HD
ENDBRANCH   1  15
BRANCH   1  17
HETATM   17  C5  UNL     1     -27.656  21.502 157.563  1.00  0.00     0.206 C 
BRANCH  17  18
HETATM   18  O3  UNL     1     -28.588  21.267 158.573  1.00  0.00    -0.398 OA
ATOM     19  H3  UNL     1     -29.420  21.659 158.335  1.00  0.00     0.209 HD
ENDBRANCH  17  18
ENDBRANCH   1  17
BRANCH   1  20
HETATM   20  C6  UNL     1     -28.079  22.671 155.447  1.00  0.00     0.142 C 
HETATM   21  C7  UNL     1     -27.512  21.286 155.121  1.00  0.00     0.152 C 
HETATM   22  N2  UNL     1     -27.209  21.445 153.715  1.00  0.00    -0.341 N 
HETATM   23  C8  UNL     1     -27.040  22.844 153.415  1.00  0.00     0.316 C 
ATOM     24  H2  UNL     1     -27.127  20.684 153.041  1.00  0.00     0.164 HD
HETATM   25  O4  UNL     1     -26.772  23.318 152.275  1.00  0.00    -0.247 OA
HETATM   26  N3  UNL     1     -27.241  23.513 154.652  1.00  0.00    -0.334 N 
ATOM     27  H3  UNL     1     -26.860  24.421 154.921  1.00  0.00     0.164 HD
ENDBRANCH   1  20
TORSDOF 7
ENDMDL
MODEL 2
REMARK VINA RESULT: -7.578134304      1.348      1.585
REMARK  7 active torsions:
REMARK  status: ('A' for Active; 'I' for Inactive)
REMARK    1  A    between atoms: C2_3  and  O1_4 
REMARK    2  A    between atoms: O1_4  and  C3_5 
REMARK    3  A    between atoms: C3_5  and  C4_6 
REMARK    4  A    between atoms: C4_6  and  O2_7 
REMARK    5  A    between atoms: C4_6  and  C5_9 
REMARK    6  A    between atoms: C4_6  and  C6_12 
REMARK    7  A    between atoms: C5_9  and  O3_10 
ROOT
HETATM    1  C4  UNL     1     -27.788  23.471 156.722  1.00  0.00     0.122 C 
ENDROOT
BRANCH   1   2
HETATM    2  C3  UNL     1     -26.526  23.985 157.364  1.00  0.00     0.219 C 
BRANCH   2   3
HETATM    3  O1  UNL     1     -25.395  23.208 157.091  1.00  0.00    -0.331 OA
BRANCH   3   4
HETATM    4  C2  UNL     1     -24.202  23.852 156.859  1.00  0.00     0.176 A 
HETATM    5  C1  UNL     1     -23.513  23.658 155.691  1.00  0.00     0.165 A 
HETATM    6  N1  UNL     1     -24.010  22.788 154.687  1.00  0.00    -0.092 NA
HETATM    7  C10 UNL     1     -22.306  24.322 155.476  1.00  0.00     0.278 A 
HETATM    8  N5  UNL     1     -21.814  25.155 156.421  1.00  0.00    -0.274 N 
HETATM    9  O6  UNL     1     -21.672  24.153 154.420  1.00  0.00    -0.266 OA
HETATM   10  C9  UNL     1     -22.525  25.314 157.549  1.00  0.00     0.329 A 
ATOM     11  H5  UNL     1     -20.932  25.647 156.281  1.00  0.00     0.173 HD
HETATM   12  N4  UNL     1     -23.699  24.679 157.779  1.00  0.00    -0.287 N 
HETATM   13  O5  UNL     1     -22.064  26.092 158.428  1.00  0.00    -0.247 OA
ATOM     14  H4  UNL     1     -24.199  24.833 158.655  1.00  0.00     0.172 HD
ENDBRANCH   3   4
ENDBRANCH   2   3
ENDBRANCH   1   2
BRANCH   1  15
HETATM   15  O2  UNL     1     -28.438  24.476 156.022  1.00  0.00    -0.383 OA
ATOM     16  H2  UNL     1     -29.187  24.135 155.548  1.00  0.00     0.210 HD
ENDBRANCH   1  15
BRANCH   1  17
HETATM   17  C5  UNL     1     -28.739  22.977 157.804  1.00  0.00     0.206 C 
BRANCH  17  18
HETATM   18  O3  UNL     1     -28.101  22.009 158.579  1.00  0.00    -0.398 OA
ATOM     19  H3  UNL     1     -28.618  21.833 159.356  1.00  0.00     0.209 HD
ENDBRANCH  17  18
ENDBRANCH   1  17
BRANCH   1  20
HETATM   20  C6  UNL     1     -27.410  22.305 155.852  1.00  0.00     0.142 C 
HETATM   21  C7  UNL     1     -27.574  22.770 154.402  1.00  0.00     0.152 C 
HETATM   22  N2  UNL     1     -27.733  21.498 153.730  1.00  0.00    -0.341 N 
HETATM   23  C8  UNL     1     -28.204  20.513 154.670  1.00  0.00     0.316 C 
ATOM     24  H2  UNL     1     -27.541  21.325 152.743  1.00  0.00     0.164 HD
HETATM   25  O4  UNL     1     -28.440  19.302 154.401  1.00  0.00    -0.247 OA
HETATM   26  N3  UNL     1     -28.328  21.210 155.903  1.00  0.00    -0.334 N 
ATOM     27  H3  UNL     1     -28.951  20.973 156.675  1.00  0.00     0.164 HD
ENDBRANCH   1  20
TORSDOF 7
ENDMDL
MODEL 3
REMARK VINA RESULT: -7.553188682      2.148      6.279
REMARK  7 active torsions:
REMARK  status: ('A' for Active; 'I' for Inactive)
REMARK    1  A    between atoms: C2_3  and  O1_4 
REMARK    2  A    between atoms: O1_4  and  C3_5 
REMARK    3  A    between atoms: C3_5  and  C4_6 
REMARK    4  A    between atoms: C4_6  and  O2_7 
REMARK    5  A    between atoms: C4_6  and  C5_9 
REMARK    6  A    between atoms: C4_6  and  C6_12 
REMARK    7  A    between atoms: C5_9  and  O3_10 
ROOT
HETATM    1  C4  UNL     1     -23.786  23.773 153.328  1.00  0.00     0.122 C 
ENDROOT
BRANCH   1   2
HETATM    2  C3  UNL     1     -24.777  22.689 153.658  1.00  0.00     0.219 C 
BRANCH   2   3
HETATM    3  O1  UNL     1     -26.017  23.169 154.096  1.00  0.00    -0.331 OA
BRANCH   3   4
HETATM    4  C2  UNL     1     -26.827  22.320 154.813  1.00  0.00     0.176 A 
HETATM    5  C1  UNL     1     -27.112  22.566 156.131  1.00  0.00     0.165 A 
HETATM    6  N1  UNL     1     -26.580  23.703 156.792  1.00  0.00    -0.092 NA
HETATM    7  C10 UNL     1     -27.936  21.693 156.840  1.00  0.00     0.278 A 
HETATM    8  N5  UNL     1     -28.453  20.604 156.228  1.00  0.00    -0.274 N 
HETATM    9  O6  UNL     1     -28.201  21.906 158.035  1.00  0.00    -0.266 OA
HETATM   10  C9  UNL     1     -28.147  20.405 154.936  1.00  0.00     0.329 A 
ATOM     11  H5  UNL     1     -29.056  19.954 156.731  1.00  0.00     0.173 HD
HETATM   12  N4  UNL     1     -27.348  21.239 154.228  1.00  0.00    -0.287 N 
HETATM   13  O5  UNL     1     -28.631  19.389 154.367  1.00  0.00    -0.247 OA
ATOM     14  H4  UNL     1     -27.144  21.041 153.249  1.00  0.00     0.172 HD
ENDBRANCH   3   4
ENDBRANCH   2   3
ENDBRANCH   1   2
BRANCH   1  15
HETATM   15  O2  UNL     1     -24.410  24.858 152.731  1.00  0.00    -0.383 OA
ATOM     16  H2  UNL     1     -23.905  25.654 152.852  1.00  0.00     0.210 HD
ENDBRANCH   1  15
BRANCH   1  17
HETATM   17  C5  UNL     1     -22.759  23.235 152.340  1.00  0.00     0.206 C 
BRANCH  17  18
HETATM   18  O3  UNL     1     -21.827  24.229 152.048  1.00  0.00    -0.398 OA
ATOM     19  H3  UNL     1     -21.579  24.174 151.133  1.00  0.00     0.209 HD
ENDBRANCH  17  18
ENDBRANCH   1  17
BRANCH   1  20
HETATM   20  C6  UNL     1     -23.074  24.138 154.600  1.00  0.00     0.142 C 
HETATM   21  C7  UNL     1     -22.448  22.847 155.137  1.00  0.00     0.152 C 
HETATM   22  N2  UNL     1     -22.303  23.182 156.537  1.00  0.00    -0.341 N 
HETATM   23  C8  UNL     1     -23.238  24.223 156.882  1.00  0.00     0.316 C 
ATOM     24  H2  UNL     1     -21.641  22.748 157.181  1.00  0.00     0.164 HD
HETATM   25  O4  UNL     1     -23.362  24.742 158.026  1.00  0.00    -0.247 OA
HETATM   26  N3  UNL     1     -23.941  24.501 155.679  1.00  0.00    -0.334 N 
ATOM     27  H3  UNL     1     -24.883  24.885 155.599  1.00  0.00     0.164 HD
ENDBRANCH   1  20
TORSDOF 7
ENDMDL
MODEL 4
REMARK VINA RESULT: -7.542939509      2.695      3.643
REMARK  7 active torsions:
REMARK  status: ('A' for Active; 'I' for Inactive)
REMARK    1  A    between atoms: C2_3  and  O1_4 
REMARK    2  A    between atoms: O1_4  and  C3_5 
REMARK    3  A    between atoms: C3_5  and  C4_6 
REMARK    4  A    between atoms: C4_6  and  O2_7 
REMARK    5  A    between atoms: C4_6  and  C5_9 
REMARK    6  A    between atoms: C4_6  and  C6_12 
REMARK    7  A    between atoms: C5_9  and  O3_10 
ROOT
HETATM    1  C4  UNL     1     -26.234  21.128 155.504  1.00  0.00     0.122 C 
ENDROOT
BRANCH   1   2
HETATM    2  C3  UNL     1     -25.614  21.893 154.366  1.00  0.00     0.219 C 
BRANCH   2   3
HETATM    3  O1  UNL     1     -24.768  22.930 154.774  1.00  0.00    -0.331 OA
BRANCH   3   4
HETATM    4  C2  UNL     1     -23.426  22.827 154.491  1.00  0.00     0.176 A 
HETATM    5  C1  UNL     1     -22.832  23.662 153.582  1.00  0.00     0.165 A 
HETATM    6  N1  UNL     1     -23.583  24.659 152.908  1.00  0.00    -0.092 NA
HETATM    7  C10 UNL     1     -21.469  23.541 153.311  1.00  0.00     0.278 A 
HETATM    8  N5  UNL     1     -20.736  22.596 153.942  1.00  0.00    -0.274 N 
HETATM    9  O6  UNL     1     -20.920  24.293 152.488  1.00  0.00    -0.266 OA
HETATM   10  C9  UNL     1     -21.361  21.801 154.824  1.00  0.00     0.329 A 
ATOM     11  H5  UNL     1     -19.739  22.492 153.754  1.00  0.00     0.173 HD
HETATM   12  N4  UNL     1     -22.683  21.901 155.103  1.00  0.00    -0.287 N 
HETATM   13  O5  UNL     1     -20.675  20.922 155.413  1.00  0.00    -0.247 OA
ATOM     14  H4  UNL     1     -23.111  21.270 155.781  1.00  0.00     0.172 HD
ENDBRANCH   3   4
ENDBRANCH   2   3
ENDBRANCH   1   2
BRANCH   1  15
HETATM   15  O2  UNL     1     -25.334  20.227 156.052  1.00  0.00    -0.383 OA
ATOM     16  H2  UNL     1     -25.237  20.364 156.987  1.00  0.00     0.210 HD
ENDBRANCH   1  15
BRANCH   1  17
HETATM   17  C5  UNL     1     -27.424  20.329 154.987  1.00  0.00     0.206 C 
BRANCH  17  18
HETATM   18  O3  UNL     1     -27.995  20.993 153.902  1.00  0.00    -0.398 OA
ATOM     19  H3  UNL     1     -27.309  21.314 153.329  1.00  0.00     0.209 HD
ENDBRANCH  17  18
ENDBRANCH   1  17
BRANCH   1  20
HETATM   20  C6  UNL     1     -26.736  22.132 156.504  1.00  0.00     0.142 C 
HETATM   21  C7  UNL     1     -27.938  21.492 157.202  1.00  0.00     0.152 C 
HETATM   22  N2  UNL     1     -28.630  22.670 157.680  1.00  0.00    -0.341 N 
HETATM   23  C8  UNL     1     -28.249  23.807 156.881  1.00  0.00     0.316 C 
ATOM     24  H2  UNL     1     -29.284  22.693 158.462  1.00  0.00     0.164 HD
HETATM   25  O4  UNL     1     -28.672  24.986 157.043  1.00  0.00    -0.247 OA
HETATM   26  N3  UNL     1     -27.332  23.296 155.924  1.00  0.00    -0.334 N 
ATOM     27  H3  UNL     1     -27.137  23.683 155.000  1.00  0.00     0.164 HD
ENDBRANCH   1  20
TORSDOF 7
ENDMDL
MODEL 5
REMARK VINA RESULT: -7.528591245      2.763      4.388
REMARK  7 active torsions:
REMARK  status: ('A' for Active; 'I' for Inactive)
REMARK    1  A    between atoms: C2_3  and  O1_4 
REMARK    2  A    between atoms: O1_4  and  C3_5 
REMARK    3  A    between atoms: C3_5  and  C4_6 
REMARK    4  A    between atoms: C4_6  and  O2_7 
REMARK    5  A    between atoms: C4_6  and  C5_9 
REMARK    6  A    between atoms: C4_6  and  C6_12 
REMARK    7  A    between atoms: C5_9  and  O3_10 
ROOT
HETATM    1  C4  UNL     1     -26.370  21.033 155.458  1.00  0.00     0.122 C 
ENDROOT
BRANCH   1   2
HETATM    2  C3  UNL     1     -26.003  21.722 154.171  1.00  0.00     0.219 C 
BRANCH   2   3
HETATM    3  O1  UNL     1     -24.958  22.644 154.300  1.00  0.00    -0.331 OA
BRANCH   3   4
HETATM    4  C2  UNL     1     -23.949  22.621 153.364  1.00  0.00     0.176 A 
HETATM    5  C1  UNL     1     -22.955  23.563 153.379  1.00  0.00     0.165 A 
HETATM    6  N1  UNL     1     -22.935  24.588 154.359  1.00  0.00    -0.092 NA
HETATM    7  C10 UNL     1     -21.941  23.520 152.422  1.00  0.00     0.278 A 
HETATM    8  N5  UNL     1     -21.942  22.551 151.479  1.00  0.00    -0.274 N 
HETATM    9  O6  UNL     1     -21.034  24.370 152.425  1.00  0.00    -0.266 OA
HETATM   10  C9  UNL     1     -22.937  21.650 151.505  1.00  0.00     0.329 A 
ATOM     11  H5  UNL     1     -21.210  22.506 150.770  1.00  0.00     0.173 HD
HETATM   12  N4  UNL     1     -23.931  21.672 152.425  1.00  0.00    -0.287 N 
HETATM   13  O5  UNL     1     -22.934  20.747 150.625  1.00  0.00    -0.247 OA
ATOM     14  H4  UNL     1     -24.666  20.965 152.399  1.00  0.00     0.172 HD
ENDBRANCH   3   4
ENDBRANCH   2   3
ENDBRANCH   1   2
BRANCH   1  15
HETATM   15  O2  UNL     1     -25.322  20.258 155.929  1.00  0.00    -0.383 OA
ATOM     16  H2  UNL     1     -24.738  20.767 156.479  1.00  0.00     0.210 HD
ENDBRANCH   1  15
BRANCH   1  17
HETATM   17  C5  UNL     1     -27.553  20.104 155.214  1.00  0.00     0.206 C 
BRANCH  17  18
HETATM   18  O3  UNL     1     -28.243  20.517 154.075  1.00  0.00    -0.398 OA
ATOM     19  H3  UNL     1     -28.583  21.393 154.211  1.00  0.00     0.209 HD
ENDBRANCH  17  18
ENDBRANCH   1  17
BRANCH   1  20
HETATM   20  C6  UNL     1     -26.795  22.095 156.434  1.00  0.00     0.142 C 
HETATM   21  C7  UNL     1     -27.948  21.504 157.250  1.00  0.00     0.152 C 
HETATM   22  N2  UNL     1     -28.598  22.713 157.710  1.00  0.00    -0.341 N 
HETATM   23  C8  UNL     1     -28.269  23.801 156.825  1.00  0.00     0.316 C 
ATOM     24  H2  UNL     1     -29.195  22.784 158.534  1.00  0.00     0.164 HD
HETATM   25  O4  UNL     1     -28.674  24.991 156.951  1.00  0.00    -0.247 OA
HETATM   26  N3  UNL     1     -27.425  23.230 155.835  1.00  0.00    -0.334 N 
ATOM     27  H3  UNL     1     -27.294  23.565 154.880  1.00  0.00     0.164 HD
ENDBRANCH   1  20
TORSDOF 7
ENDMDL
