MODEL 1
REMARK VINA RESULT: -6.156014902      0.000      0.000
REMARK  12 active torsions:
REMARK  status: ('A' for Active; 'I' for Inactive)
REMARK    1  A    between atoms: C1_2  and  C2_4 
REMARK    2  A    between atoms: C2_4  and  C3_5 
REMARK       I    between atoms: C3_5  and  N2_7 
REMARK    3  A    between atoms: N2_7  and  C4_9 
REMARK    4  A    between atoms: C4_9  and  C5_10 
REMARK    5  A    between atoms: C4_9  and  C9_18 
REMARK    6  A    between atoms: C5_10  and  C6_11 
REMARK    7  A    between atoms: C6_11  and  C7_12 
REMARK    8  A    between atoms: C7_12  and  N3_13 
REMARK       I    between atoms: C9_18  and  N6_20 
REMARK    9  A    between atoms: C12_23  and  C13_24 
REMARK   10  A    between atoms: C13_24  and  C14_25 
REMARK   11  A    between atoms: C14_25  and  C15_26 
REMARK   12  A    between atoms: C15_26  and  N7_27 
ROOT
HETATM    1  C4  UNL     1      29.651   8.202  28.435  1.00  0.00     0.176 C 
ENDROOT
BRANCH   1   2
HETATM    2  N2  UNL     1      29.314   9.406  29.248  1.00  0.00    -0.347 N 
HETATM    3  C3  UNL     1      27.976   9.777  29.514  1.00  0.00     0.226 C 
HETATM    4  O2  UNL     1      27.066   9.088  29.049  1.00  0.00    -0.273 OA
ATOM      5  H2  UNL     1      30.070   9.979  29.623  1.00  0.00     0.163 HD
BRANCH   3   6
HETATM    6  C2  UNL     1      27.648  10.974  30.338  1.00  0.00     0.202 C 
BRANCH   6   7
HETATM    7  C1  UNL     1      28.535  11.076  31.527  1.00  0.00     0.239 C 
HETATM    8  N1  UNL     1      29.140  12.328  31.825  1.00  0.00    -0.062 NA
HETATM    9  O1  UNL     1      28.774  10.106  32.282  1.00  0.00    -0.276 OA
ENDBRANCH   6   7
ENDBRANCH   3   6
ENDBRANCH   1   2
BRANCH   1  10
HETATM   10  C5  UNL     1      29.952   7.150  29.430  1.00  0.00     0.036 C 
BRANCH  10  11
HETATM   11  C6  UNL     1      29.246   5.857  29.360  1.00  0.00     0.022 C 
BRANCH  11  12
HETATM   12  C7  UNL     1      29.726   4.888  28.332  1.00  0.00     0.122 C 
BRANCH  12  13
HETATM   13  N3  UNL     1      31.136   5.019  28.121  1.00  0.00    -0.367 N 
HETATM   14  C8  UNL     1      32.066   4.301  28.596  1.00  0.00     0.196 C 
HETATM   15  N4  UNL     1      33.406   4.605  28.262  1.00  0.00    -0.067 NA
HETATM   16  N5  UNL     1      31.779   3.190  29.418  1.00  0.00    -0.067 NA
ATOM     17  H3  UNL     1      31.429   5.785  27.514  1.00  0.00     0.161 HD
ENDBRANCH  12  13
ENDBRANCH  11  12
ENDBRANCH  10  11
ENDBRANCH   1  10
BRANCH   1  18
HETATM   18  C9  UNL     1      30.957   8.630  27.788  1.00  0.00     0.242 C 
HETATM   19  O3  UNL     1      31.975   7.989  28.090  1.00  0.00    -0.271 OA
HETATM   20  N6  UNL     1      31.077   9.695  26.890  1.00  0.00    -0.350 N 
HETATM   21  C10 UNL     1      32.373  10.067  26.341  1.00  0.00     0.126 C 
HETATM   22  C18 UNL     1      29.986  10.546  26.428  1.00  0.00     0.126 C 
HETATM   23  C11 UNL     1      32.706  11.509  26.741  1.00  0.00     0.024 C 
HETATM   24  C12 UNL     1      31.590  12.459  26.616  1.00  0.00    -0.012 C 
HETATM   25  C17 UNL     1      30.218  11.884  27.041  1.00  0.00     0.024 C 
BRANCH  24  26
HETATM   26  C13 UNL     1      31.720  13.711  27.430  1.00  0.00     0.006 C 
BRANCH  26  27
HETATM   27  C14 UNL     1      32.622  13.771  28.575  1.00  0.00     0.020 C 
BRANCH  27  28
HETATM   28  C15 UNL     1      32.121  13.538  29.950  1.00  0.00     0.122 C 
BRANCH  28  29
HETATM   29  N7  UNL     1      31.761  12.153  30.189  1.00  0.00    -0.367 N 
HETATM   30  C16 UNL     1      32.431  11.304  30.853  1.00  0.00     0.196 C 
HETATM   31  N8  UNL     1      31.940   9.989  30.992  1.00  0.00    -0.067 NA
HETATM   32  N9  UNL     1      33.653  11.658  31.446  1.00  0.00    -0.067 NA
ATOM     33  H7  UNL     1      30.882  11.830  29.785  1.00  0.00     0.161 HD
ENDBRANCH  28  29
ENDBRANCH  27  28
ENDBRANCH  26  27
ENDBRANCH  24  26
ENDBRANCH   1  18
TORSDOF 12
ENDMDL
MODEL 2
REMARK VINA RESULT: -6.096432860      3.236      6.903
REMARK  12 active torsions:
REMARK  status: ('A' for Active; 'I' for Inactive)
REMARK    1  A    between atoms: C1_2  and  C2_4 
REMARK    2  A    between atoms: C2_4  and  C3_5 
REMARK       I    between atoms: C3_5  and  N2_7 
REMARK    3  A    between atoms: N2_7  and  C4_9 
REMARK    4  A    between atoms: C4_9  and  C5_10 
REMARK    5  A    between atoms: C4_9  and  C9_18 
REMARK    6  A    between atoms: C5_10  and  C6_11 
REMARK    7  A    between atoms: C6_11  and  C7_12 
REMARK    8  A    between atoms: C7_12  and  N3_13 
REMARK       I    between atoms: C9_18  and  N6_20 
REMARK    9  A    between atoms: C12_23  and  C13_24 
REMARK   10  A    between atoms: C13_24  and  C14_25 
REMARK   11  A    between atoms: C14_25  and  C15_26 
REMARK   12  A    between atoms: C15_26  and  N7_27 
ROOT
HETATM    1  C4  UNL     1      28.610   9.094  28.361  1.00  0.00     0.176 C 
ENDROOT
BRANCH   1   2
HETATM    2  N2  UNL     1      29.384   7.995  29.008  1.00  0.00    -0.347 N 
HETATM    3  C3  UNL     1      28.976   6.645  28.924  1.00  0.00     0.226 C 
HETATM    4  O2  UNL     1      27.943   6.374  28.307  1.00  0.00    -0.273 OA
ATOM      5  H2  UNL     1      30.232   8.225  29.525  1.00  0.00     0.163 HD
BRANCH   3   6
HETATM    6  C2  UNL     1      29.761   5.552  29.563  1.00  0.00     0.202 C 
BRANCH   6   7
HETATM    7  C1  UNL     1      30.976   5.222  28.772  1.00  0.00     0.239 C 
HETATM    8  N1  UNL     1      31.944   6.238  28.546  1.00  0.00    -0.062 NA
HETATM    9  O1  UNL     1      31.188   4.083  28.294  1.00  0.00    -0.276 OA
ENDBRANCH   6   7
ENDBRANCH   3   6
ENDBRANCH   1   2
BRANCH   1  10
HETATM   10  C5  UNL     1      29.616   9.861  27.595  1.00  0.00     0.036 C 
BRANCH  10  11
HETATM   11  C6  UNL     1      31.010   9.915  28.075  1.00  0.00     0.022 C 
BRANCH  11  12
HETATM   12  C7  UNL     1      31.380  11.084  28.925  1.00  0.00     0.122 C 
BRANCH  12  13
HETATM   13  N3  UNL     1      32.277  10.696  29.971  1.00  0.00    -0.367 N 
HETATM   14  C8  UNL     1      32.115  10.812  31.221  1.00  0.00     0.196 C 
HETATM   15  N4  UNL     1      33.136  10.363  32.091  1.00  0.00    -0.067 NA
HETATM   16  N5  UNL     1      30.921  11.347  31.753  1.00  0.00    -0.067 NA
ATOM     17  H3  UNL     1      33.157  10.273  29.671  1.00  0.00     0.161 HD
ENDBRANCH  12  13
ENDBRANCH  11  12
ENDBRANCH  10  11
ENDBRANCH   1  10
BRANCH   1  18
HETATM   18  C9  UNL     1      28.199   9.924  29.565  1.00  0.00     0.242 C 
HETATM   19  O3  UNL     1      28.379   9.423  30.686  1.00  0.00    -0.271 OA
HETATM   20  N6  UNL     1      27.632  11.199  29.484  1.00  0.00    -0.350 N 
HETATM   21  C10 UNL     1      27.230  11.916  30.685  1.00  0.00     0.126 C 
HETATM   22  C18 UNL     1      27.356  11.931  28.253  1.00  0.00     0.126 C 
HETATM   23  C11 UNL     1      25.724  12.196  30.638  1.00  0.00     0.024 C 
HETATM   24  C12 UNL     1      25.223  12.667  29.337  1.00  0.00    -0.012 C 
HETATM   25  C17 UNL     1      25.872  11.970  28.119  1.00  0.00     0.024 C 
BRANCH  24  26
HETATM   26  C13 UNL     1      23.752  12.483  29.112  1.00  0.00     0.006 C 
BRANCH  26  27
HETATM   27  C14 UNL     1      22.945  11.693  30.036  1.00  0.00     0.020 C 
BRANCH  27  28
HETATM   28  C15 UNL     1      22.612  10.281  29.738  1.00  0.00     0.122 C 
BRANCH  28  29
HETATM   29  N7  UNL     1      22.390  10.042  28.323  1.00  0.00    -0.367 N 
HETATM   30  C16 UNL     1      23.134   9.368  27.547  1.00  0.00     0.196 C 
HETATM   31  N8  UNL     1      22.776   9.232  26.190  1.00  0.00    -0.067 NA
HETATM   32  N9  UNL     1      24.307   8.762  28.023  1.00  0.00    -0.067 NA
ATOM     33  H7  UNL     1      21.553  10.456  27.913  1.00  0.00     0.161 HD
ENDBRANCH  28  29
ENDBRANCH  27  28
ENDBRANCH  26  27
ENDBRANCH  24  26
ENDBRANCH   1  18
TORSDOF 12
ENDMDL
MODEL 3
REMARK VINA RESULT: -6.062420357      3.135      6.905
REMARK  12 active torsions:
REMARK  status: ('A' for Active; 'I' for Inactive)
REMARK    1  A    between atoms: C1_2  and  C2_4 
REMARK    2  A    between atoms: C2_4  and  C3_5 
REMARK       I    between atoms: C3_5  and  N2_7 
REMARK    3  A    between atoms: N2_7  and  C4_9 
REMARK    4  A    between atoms: C4_9  and  C5_10 
REMARK    5  A    between atoms: C4_9  and  C9_18 
REMARK    6  A    between atoms: C5_10  and  C6_11 
REMARK    7  A    between atoms: C6_11  and  C7_12 
REMARK    8  A    between atoms: C7_12  and  N3_13 
REMARK       I    between atoms: C9_18  and  N6_20 
REMARK    9  A    between atoms: C12_23  and  C13_24 
REMARK   10  A    between atoms: C13_24  and  C14_25 
REMARK   11  A    between atoms: C14_25  and  C15_26 
REMARK   12  A    between atoms: C15_26  and  N7_27 
ROOT
HETATM    1  C4  UNL     1      28.944  10.229  29.046  1.00  0.00     0.176 C 
ENDROOT
BRANCH   1   2
HETATM    2  N2  UNL     1      28.783   8.780  29.360  1.00  0.00    -0.347 N 
HETATM    3  C3  UNL     1      29.182   7.771  28.453  1.00  0.00     0.226 C 
HETATM    4  O2  UNL     1      29.665   8.105  27.369  1.00  0.00    -0.273 OA
ATOM      5  H2  UNL     1      28.374   8.508  30.254  1.00  0.00     0.163 HD
BRANCH   3   6
HETATM    6  C2  UNL     1      29.030   6.325  28.779  1.00  0.00     0.202 C 
BRANCH   6   7
HETATM    7  C1  UNL     1      30.319   5.599  28.642  1.00  0.00     0.239 C 
HETATM    8  N1  UNL     1      30.315   4.299  28.064  1.00  0.00    -0.062 NA
HETATM    9  O1  UNL     1      31.415   6.080  29.013  1.00  0.00    -0.276 OA
ENDBRANCH   6   7
ENDBRANCH   3   6
ENDBRANCH   1   2
BRANCH   1  10
HETATM   10  C5  UNL     1      30.212  10.616  29.702  1.00  0.00     0.036 C 
BRANCH  10  11
HETATM   11  C6  UNL     1      31.261  11.294  28.917  1.00  0.00     0.022 C 
BRANCH  11  12
HETATM   12  C7  UNL     1      32.174  12.204  29.667  1.00  0.00     0.122 C 
BRANCH  12  13
HETATM   13  N3  UNL     1      33.115  11.459  30.447  1.00  0.00    -0.367 N 
HETATM   14  C8  UNL     1      33.210  11.400  31.709  1.00  0.00     0.196 C 
HETATM   15  N4  UNL     1      34.223  10.598  32.285  1.00  0.00    -0.067 NA
HETATM   16  N5  UNL     1      32.301  12.091  32.539  1.00  0.00    -0.067 NA
ATOM     17  H3  UNL     1      33.794  10.907  29.921  1.00  0.00     0.161 HD
ENDBRANCH  12  13
ENDBRANCH  11  12
ENDBRANCH  10  11
ENDBRANCH   1  10
BRANCH   1  18
HETATM   18  C9  UNL     1      27.797  10.838  29.836  1.00  0.00     0.242 C 
HETATM   19  O3  UNL     1      27.412  10.221  30.841  1.00  0.00    -0.271 OA
HETATM   20  N6  UNL     1      27.157  12.033  29.497  1.00  0.00    -0.350 N 
HETATM   21  C10 UNL     1      26.040  12.532  30.285  1.00  0.00     0.126 C 
HETATM   22  C18 UNL     1      27.485  12.880  28.355  1.00  0.00     0.126 C 
HETATM   23  C11 UNL     1      24.790  12.629  29.403  1.00  0.00     0.024 C 
HETATM   24  C12 UNL     1      25.019  13.201  28.067  1.00  0.00    -0.012 C 
HETATM   25  C17 UNL     1      26.344  12.754  27.405  1.00  0.00     0.024 C 
BRANCH  24  26
HETATM   26  C13 UNL     1      23.978  12.868  27.041  1.00  0.00     0.006 C 
BRANCH  26  27
HETATM   27  C14 UNL     1      22.798  12.086  27.395  1.00  0.00     0.020 C 
BRANCH  27  28
HETATM   28  C15 UNL     1      22.698  10.654  27.032  1.00  0.00     0.122 C 
BRANCH  28  29
HETATM   29  N7  UNL     1      23.983   9.978  27.053  1.00  0.00    -0.367 N 
HETATM   30  C16 UNL     1      24.483   9.341  28.029  1.00  0.00     0.196 C 
HETATM   31  N8  UNL     1      25.751   8.739  27.887  1.00  0.00    -0.067 NA
HETATM   32  N9  UNL     1      23.792   9.231  29.246  1.00  0.00    -0.067 NA
ATOM     33  H7  UNL     1      24.538  10.019  26.198  1.00  0.00     0.161 HD
ENDBRANCH  28  29
ENDBRANCH  27  28
ENDBRANCH  26  27
ENDBRANCH  24  26
ENDBRANCH   1  18
TORSDOF 12
ENDMDL
MODEL 4
REMARK VINA RESULT: -6.057355639      3.204      5.458
REMARK  12 active torsions:
REMARK  status: ('A' for Active; 'I' for Inactive)
REMARK    1  A    between atoms: C1_2  and  C2_4 
REMARK    2  A    between atoms: C2_4  and  C3_5 
REMARK       I    between atoms: C3_5  and  N2_7 
REMARK    3  A    between atoms: N2_7  and  C4_9 
REMARK    4  A    between atoms: C4_9  and  C5_10 
REMARK    5  A    between atoms: C4_9  and  C9_18 
REMARK    6  A    between atoms: C5_10  and  C6_11 
REMARK    7  A    between atoms: C6_11  and  C7_12 
REMARK    8  A    between atoms: C7_12  and  N3_13 
REMARK       I    between atoms: C9_18  and  N6_20 
REMARK    9  A    between atoms: C12_23  and  C13_24 
REMARK   10  A    between atoms: C13_24  and  C14_25 
REMARK   11  A    between atoms: C14_25  and  C15_26 
REMARK   12  A    between atoms: C15_26  and  N7_27 
ROOT
HETATM    1  C4  UNL     1      30.756   9.380  29.601  1.00  0.00     0.176 C 
ENDROOT
BRANCH   1   2
HETATM    2  N2  UNL     1      31.920  10.015  30.285  1.00  0.00    -0.347 N 
HETATM    3  C3  UNL     1      31.792  10.652  31.540  1.00  0.00     0.226 C 
HETATM    4  O2  UNL     1      30.682  10.689  32.076  1.00  0.00    -0.273 OA
ATOM      5  H2  UNL     1      32.834   9.990  29.834  1.00  0.00     0.163 HD
BRANCH   3   6
HETATM    6  C2  UNL     1      32.962  11.273  32.222  1.00  0.00     0.202 C 
BRANCH   6   7
HETATM    7  C1  UNL     1      32.819  12.750  32.311  1.00  0.00     0.239 C 
HETATM    8  N1  UNL     1      32.365  13.323  33.530  1.00  0.00    -0.062 NA
HETATM    9  O1  UNL     1      33.082  13.517  31.356  1.00  0.00    -0.276 OA
ENDBRANCH   6   7
ENDBRANCH   3   6
ENDBRANCH   1   2
BRANCH   1  10
HETATM   10  C5  UNL     1      31.338   8.249  28.846  1.00  0.00     0.036 C 
BRANCH  10  11
HETATM   11  C6  UNL     1      30.653   6.942  28.847  1.00  0.00     0.022 C 
BRANCH  11  12
HETATM   12  C7  UNL     1      31.041   5.982  27.774  1.00  0.00     0.122 C 
BRANCH  12  13
HETATM   13  N3  UNL     1      32.450   5.724  27.801  1.00  0.00    -0.367 N 
HETATM   14  C8  UNL     1      33.041   4.652  28.127  1.00  0.00     0.196 C 
HETATM   15  N4  UNL     1      34.454   4.607  28.086  1.00  0.00    -0.067 NA
HETATM   16  N5  UNL     1      32.310   3.500  28.492  1.00  0.00    -0.067 NA
ATOM     17  H3  UNL     1      33.052   6.500  27.523  1.00  0.00     0.161 HD
ENDBRANCH  12  13
ENDBRANCH  11  12
ENDBRANCH  10  11
ENDBRANCH   1  10
BRANCH   1  18
HETATM   18  C9  UNL     1      30.363  10.460  28.608  1.00  0.00     0.242 C 
HETATM   19  O3  UNL     1      31.189  11.360  28.393  1.00  0.00    -0.271 OA
HETATM   20  N6  UNL     1      29.138  10.500  27.936  1.00  0.00    -0.350 N 
HETATM   21  C10 UNL     1      28.820  11.590  27.026  1.00  0.00     0.126 C 
HETATM   22  C18 UNL     1      28.061   9.524  28.069  1.00  0.00     0.126 C 
HETATM   23  C11 UNL     1      27.577  12.334  27.527  1.00  0.00     0.024 C 
HETATM   24  C12 UNL     1      26.484  11.467  27.994  1.00  0.00    -0.012 C 
HETATM   25  C17 UNL     1      26.956  10.223  28.783  1.00  0.00     0.024 C 
BRANCH  24  26
HETATM   26  C13 UNL     1      25.497  12.120  28.914  1.00  0.00     0.006 C 
BRANCH  26  27
HETATM   27  C14 UNL     1      24.223  12.624  28.412  1.00  0.00     0.020 C 
BRANCH  27  28
HETATM   28  C15 UNL     1      22.995  11.800  28.490  1.00  0.00     0.122 C 
BRANCH  28  29
HETATM   29  N7  UNL     1      23.277  10.379  28.588  1.00  0.00    -0.367 N 
HETATM   30  C16 UNL     1      23.279   9.544  27.633  1.00  0.00     0.196 C 
HETATM   31  N8  UNL     1      23.574   8.190  27.898  1.00  0.00    -0.067 NA
HETATM   32  N9  UNL     1      22.991   9.951  26.321  1.00  0.00    -0.067 NA
ATOM     33  H7  UNL     1      23.495  10.017  29.516  1.00  0.00     0.161 HD
ENDBRANCH  28  29
ENDBRANCH  27  28
ENDBRANCH  26  27
ENDBRANCH  24  26
ENDBRANCH   1  18
TORSDOF 12
ENDMDL
MODEL 5
REMARK VINA RESULT: -6.049044300      2.685      5.224
REMARK  12 active torsions:
REMARK  status: ('A' for Active; 'I' for Inactive)
REMARK    1  A    between atoms: C1_2  and  C2_4 
REMARK    2  A    between atoms: C2_4  and  C3_5 
REMARK       I    between atoms: C3_5  and  N2_7 
REMARK    3  A    between atoms: N2_7  and  C4_9 
REMARK    4  A    between atoms: C4_9  and  C5_10 
REMARK    5  A    between atoms: C4_9  and  C9_18 
REMARK    6  A    between atoms: C5_10  and  C6_11 
REMARK    7  A    between atoms: C6_11  and  C7_12 
REMARK    8  A    between atoms: C7_12  and  N3_13 
REMARK       I    between atoms: C9_18  and  N6_20 
REMARK    9  A    between atoms: C12_23  and  C13_24 
REMARK   10  A    between atoms: C13_24  and  C14_25 
REMARK   11  A    between atoms: C14_25  and  C15_26 
REMARK   12  A    between atoms: C15_26  and  N7_27 
ROOT
HETATM    1  C4  UNL     1      29.723   8.666  28.280  1.00  0.00     0.176 C 
ENDROOT
BRANCH   1   2
HETATM    2  N2  UNL     1      30.124   7.306  27.817  1.00  0.00    -0.347 N 
HETATM    3  C3  UNL     1      29.962   6.162  28.631  1.00  0.00     0.226 C 
HETATM    4  O2  UNL     1      29.486   6.300  29.760  1.00  0.00    -0.273 OA
ATOM      5  H2  UNL     1      30.526   7.197  26.886  1.00  0.00     0.163 HD
BRANCH   3   6
HETATM    6  C2  UNL     1      30.353   4.805  28.156  1.00  0.00     0.202 C 
BRANCH   6   7
HETATM    7  C1  UNL     1      31.806   4.560  28.344  1.00  0.00     0.239 C 
HETATM    8  N1  UNL     1      32.695   5.670  28.334  1.00  0.00    -0.062 NA
HETATM    9  O1  UNL     1      32.288   3.416  28.512  1.00  0.00    -0.276 OA
ENDBRANCH   6   7
ENDBRANCH   3   6
ENDBRANCH   1   2
BRANCH   1  10
HETATM   10  C5  UNL     1      28.248   8.680  28.169  1.00  0.00     0.036 C 
BRANCH  10  11
HETATM   11  C6  UNL     1      27.446   9.360  29.204  1.00  0.00     0.022 C 
BRANCH  11  12
HETATM   12  C7  UNL     1      26.305  10.193  28.725  1.00  0.00     0.122 C 
BRANCH  12  13
HETATM   13  N3  UNL     1      25.308   9.383  28.093  1.00  0.00    -0.367 N 
HETATM   14  C8  UNL     1      24.092   9.243  28.421  1.00  0.00     0.196 C 
HETATM   15  N4  UNL     1      23.269   8.384  27.657  1.00  0.00    -0.067 NA
HETATM   16  N5  UNL     1      23.546   9.957  29.510  1.00  0.00    -0.067 NA
ATOM     17  H3  UNL     1      25.614   8.852  27.277  1.00  0.00     0.161 HD
ENDBRANCH  12  13
ENDBRANCH  11  12
ENDBRANCH  10  11
ENDBRANCH   1  10
BRANCH   1  18
HETATM   18  C9  UNL     1      30.290   9.540  27.175  1.00  0.00     0.242 C 
HETATM   19  O3  UNL     1      30.626   8.976  26.122  1.00  0.00    -0.271 OA
HETATM   20  N6  UNL     1      30.457  10.925  27.276  1.00  0.00    -0.350 N 
HETATM   21  C10 UNL     1      31.042  11.688  26.184  1.00  0.00     0.126 C 
HETATM   22  C18 UNL     1      30.113  11.741  28.435  1.00  0.00     0.126 C 
HETATM   23  C11 UNL     1      32.325  12.376  26.666  1.00  0.00     0.024 C 
HETATM   24  C12 UNL     1      32.227  13.006  27.992  1.00  0.00    -0.012 C 
HETATM   25  C17 UNL     1      31.406  12.194  29.021  1.00  0.00     0.024 C 
BRANCH  24  26
HETATM   26  C13 UNL     1      33.534  13.244  28.686  1.00  0.00     0.006 C 
BRANCH  26  27
HETATM   27  C14 UNL     1      33.594  13.982  29.944  1.00  0.00     0.020 C 
BRANCH  27  28
HETATM   28  C15 UNL     1      34.265  13.407  31.132  1.00  0.00     0.122 C 
BRANCH  28  29
HETATM   29  N7  UNL     1      33.658  13.830  32.381  1.00  0.00    -0.367 N 
HETATM   30  C16 UNL     1      32.776  13.201  33.040  1.00  0.00     0.196 C 
HETATM   31  N8  UNL     1      32.285  13.753  34.242  1.00  0.00    -0.067 NA
HETATM   32  N9  UNL     1      32.283  11.967  32.588  1.00  0.00    -0.067 NA
ATOM     33  H7  UNL     1      33.972  14.721  32.766  1.00  0.00     0.161 HD
ENDBRANCH  28  29
ENDBRANCH  27  28
ENDBRANCH  26  27
ENDBRANCH  24  26
ENDBRANCH   1  18
TORSDOF 12
ENDMDL
