MODEL 1
REMARK VINA RESULT: -6.939710402      0.000      0.000
REMARK  12 active torsions:
REMARK  status: ('A' for Active; 'I' for Inactive)
REMARK    1  A    between atoms: N1_2  and  C3_4 
REMARK    2  A    between atoms: N1_2  and  C14_22 
REMARK    3  A    between atoms: C3_4  and  C4_5 
REMARK    4  A    between atoms: C5_6  and  C6_7 
REMARK    5  A    between atoms: C6_7  and  C7_8 
REMARK    6  A    between atoms: C9_10  and  C10_11 
REMARK    7  A    between atoms: C10_11  and  O1_12 
REMARK       I    between atoms: N2_15  and  C12_16 
REMARK    8  A    between atoms: C14_22  and  C15_23 
REMARK       I    between atoms: C15_23  and  N6_25 
REMARK    9  A    between atoms: N6_25  and  C16_27 
REMARK   10  A    between atoms: C16_27  and  C17_28 
REMARK   11  A    between atoms: C17_28  and  C18_29 
REMARK   12  A    between atoms: C18_29  and  N7_30 
ROOT
HETATM    1  C7  UNL     1      31.039   7.120  27.494  1.00  0.00     0.090 C 
HETATM    2  C8  UNL     1      31.849   5.885  27.293  1.00  0.00     0.034 C 
HETATM    3  C9  UNL     1      31.178   4.815  28.151  1.00  0.00     0.029 C 
HETATM    4  C11 UNL     1      30.431   5.652  29.170  1.00  0.00     0.132 C 
HETATM    5  N2  UNL     1      30.040   6.844  28.461  1.00  0.00    -0.349 N 
HETATM    6  C12 UNL     1      28.856   7.589  28.711  1.00  0.00     0.199 C 
HETATM    7  N3  UNL     1      27.621   7.269  28.041  1.00  0.00    -0.063 NA
HETATM    8  N4  UNL     1      28.828   8.572  29.539  1.00  0.00    -0.267 N 
ATOM      9  H4  UNL     1      29.675   8.840  30.041  1.00  0.00     0.180 HD
HETATM   10  C13 UNL     1      27.652   9.266  29.749  1.00  0.00     0.184 C 
HETATM   11  N5  UNL     1      26.666   9.854  29.935  1.00  0.00    -0.172 NA
ENDROOT
BRANCH   1  12
HETATM   12  C6  UNL     1      31.902   8.325  27.809  1.00  0.00     0.052 C 
BRANCH  12  13
HETATM   13  C5  UNL     1      31.935   9.302  26.724  1.00  0.00    -0.027 C 
HETATM   14  C4  UNL     1      31.278  10.410  26.666  1.00  0.00    -0.003 C 
BRANCH  14  15
HETATM   15  C3  UNL     1      30.367  10.911  27.673  1.00  0.00     0.264 C 
BRANCH  15  16
HETATM   16  N1  UNL     1      30.351  12.374  27.765  1.00  0.00    -0.063 N 
HETATM   17  C1  UNL     1      31.595  12.924  27.281  1.00  0.00     0.272 C 
HETATM   18  C2  UNL     1      29.258  12.792  26.920  1.00  0.00     0.272 C 
BRANCH  16  19
HETATM   19  C14 UNL     1      30.131  12.718  29.139  1.00  0.00     0.339 C 
BRANCH  19  20
HETATM   20  C15 UNL     1      30.708  11.860  30.162  1.00  0.00     0.243 C 
HETATM   21  O2  UNL     1      29.871  11.274  30.948  1.00  0.00    -0.272 OA
HETATM   22  N6  UNL     1      32.065  11.592  30.398  1.00  0.00    -0.360 N 
ATOM     23  H6  UNL     1      32.762  12.031  29.795  1.00  0.00     0.162 HD
BRANCH  22  24
HETATM   24  C16 UNL     1      32.517  10.720  31.462  1.00  0.00     0.124 C 
BRANCH  24  25
HETATM   25  C17 UNL     1      33.781  11.144  32.119  1.00  0.00     0.039 C 
BRANCH  25  26
HETATM   26  C18 UNL     1      33.796  12.667  32.150  1.00  0.00     0.123 C 
BRANCH  26  27
HETATM   27  N7  UNL     1      33.138  13.123  33.355  1.00  0.00    -0.367 N 
HETATM   28  C19 UNL     1      32.212  14.010  33.317  1.00  0.00     0.196 C 
HETATM   29  N8  UNL     1      31.600  14.423  34.523  1.00  0.00    -0.067 NA
HETATM   30  N9  UNL     1      31.793  14.581  32.091  1.00  0.00    -0.067 NA
ATOM     31  H7  UNL     1      33.417  12.731  34.254  1.00  0.00     0.161 HD
ENDBRANCH  26  27
ENDBRANCH  25  26
ENDBRANCH  24  25
ENDBRANCH  22  24
ENDBRANCH  19  20
ENDBRANCH  16  19
ENDBRANCH  15  16
ENDBRANCH  14  15
ENDBRANCH  12  13
ENDBRANCH   1  12
BRANCH   3  32
HETATM   32  C10 UNL     1      32.254   3.980  28.779  1.00  0.00     0.170 C 
BRANCH  32  33
HETATM   33  O1  UNL     1      32.875   3.258  27.756  1.00  0.00    -0.400 OA
ATOM     34  H1  UNL     1      33.762   3.589  27.671  1.00  0.00     0.209 HD
ENDBRANCH  32  33
ENDBRANCH   3  32
TORSDOF 12
ENDMDL
MODEL 2
REMARK VINA RESULT: -6.909758548      1.624      2.190
REMARK  12 active torsions:
REMARK  status: ('A' for Active; 'I' for Inactive)
REMARK    1  A    between atoms: N1_2  and  C3_4 
REMARK    2  A    between atoms: N1_2  and  C14_22 
REMARK    3  A    between atoms: C3_4  and  C4_5 
REMARK    4  A    between atoms: C5_6  and  C6_7 
REMARK    5  A    between atoms: C6_7  and  C7_8 
REMARK    6  A    between atoms: C9_10  and  C10_11 
REMARK    7  A    between atoms: C10_11  and  O1_12 
REMARK       I    between atoms: N2_15  and  C12_16 
REMARK    8  A    between atoms: C14_22  and  C15_23 
REMARK       I    between atoms: C15_23  and  N6_25 
REMARK    9  A    between atoms: N6_25  and  C16_27 
REMARK   10  A    between atoms: C16_27  and  C17_28 
REMARK   11  A    between atoms: C17_28  and  C18_29 
REMARK   12  A    between atoms: C18_29  and  N7_30 
ROOT
HETATM    1  C7  UNL     1      31.015   7.077  27.412  1.00  0.00     0.090 C 
HETATM    2  C8  UNL     1      31.824   5.838  27.232  1.00  0.00     0.034 C 
HETATM    3  C9  UNL     1      31.226   4.819  28.200  1.00  0.00     0.029 C 
HETATM    4  C11 UNL     1      30.541   5.713  29.214  1.00  0.00     0.132 C 
HETATM    5  N2  UNL     1      30.088   6.855  28.461  1.00  0.00    -0.349 N 
HETATM    6  C12 UNL     1      28.915   7.605  28.745  1.00  0.00     0.199 C 
HETATM    7  N3  UNL     1      27.641   7.233  28.183  1.00  0.00    -0.063 NA
HETATM    8  N4  UNL     1      28.932   8.638  29.510  1.00  0.00    -0.267 N 
ATOM      9  H4  UNL     1      29.808   8.944  29.935  1.00  0.00     0.180 HD
HETATM   10  C13 UNL     1      27.764   9.335  29.758  1.00  0.00     0.184 C 
HETATM   11  N5  UNL     1      26.787   9.925  29.975  1.00  0.00    -0.172 NA
ENDROOT
BRANCH   1  12
HETATM   12  C6  UNL     1      31.883   8.306  27.590  1.00  0.00     0.052 C 
BRANCH  12  13
HETATM   13  C5  UNL     1      31.833   9.211  26.445  1.00  0.00    -0.027 C 
HETATM   14  C4  UNL     1      31.294  10.382  26.413  1.00  0.00    -0.003 C 
BRANCH  14  15
HETATM   15  C3  UNL     1      30.625  11.040  27.515  1.00  0.00     0.264 C 
BRANCH  15  16
HETATM   16  N1  UNL     1      30.732  12.502  27.469  1.00  0.00    -0.063 N 
HETATM   17  C1  UNL     1      29.779  13.048  26.532  1.00  0.00     0.272 C 
HETATM   18  C2  UNL     1      30.424  12.943  28.808  1.00  0.00     0.272 C 
BRANCH  16  19
HETATM   19  C14 UNL     1      32.076  12.826  27.092  1.00  0.00     0.339 C 
BRANCH  19  20
HETATM   20  C15 UNL     1      33.071  12.957  28.145  1.00  0.00     0.243 C 
HETATM   21  O2  UNL     1      33.513  14.149  28.362  1.00  0.00    -0.272 OA
HETATM   22  N6  UNL     1      33.610  11.944  28.953  1.00  0.00    -0.360 N 
ATOM     23  H6  UNL     1      33.284  10.986  28.819  1.00  0.00     0.162 HD
BRANCH  22  24
HETATM   24  C16 UNL     1      34.609  12.202  29.969  1.00  0.00     0.124 C 
BRANCH  24  25
HETATM   25  C17 UNL     1      34.060  12.542  31.308  1.00  0.00     0.039 C 
BRANCH  25  26
HETATM   26  C18 UNL     1      33.562  11.250  31.943  1.00  0.00     0.123 C 
BRANCH  26  27
HETATM   27  N7  UNL     1      32.147  11.372  32.218  1.00  0.00    -0.367 N 
HETATM   28  C19 UNL     1      31.281  10.649  31.606  1.00  0.00     0.196 C 
HETATM   29  N8  UNL     1      29.909  10.807  31.912  1.00  0.00    -0.067 NA
HETATM   30  N9  UNL     1      31.674   9.701  30.632  1.00  0.00    -0.067 NA
ATOM     31  H7  UNL     1      31.831  12.046  32.915  1.00  0.00     0.161 HD
ENDBRANCH  26  27
ENDBRANCH  25  26
ENDBRANCH  24  25
ENDBRANCH  22  24
ENDBRANCH  19  20
ENDBRANCH  16  19
ENDBRANCH  15  16
ENDBRANCH  14  15
ENDBRANCH  12  13
ENDBRANCH   1  12
BRANCH   3  32
HETATM   32  C10 UNL     1      32.353   4.034  28.803  1.00  0.00     0.170 C 
BRANCH  32  33
HETATM   33  O1  UNL     1      32.923   3.267  27.782  1.00  0.00    -0.400 OA
ATOM     34  H1  UNL     1      33.433   2.579  28.193  1.00  0.00     0.209 HD
ENDBRANCH  32  33
ENDBRANCH   3  32
TORSDOF 12
ENDMDL
MODEL 3
REMARK VINA RESULT: -6.641707393      1.947      2.647
REMARK  12 active torsions:
REMARK  status: ('A' for Active; 'I' for Inactive)
REMARK    1  A    between atoms: N1_2  and  C3_4 
REMARK    2  A    between atoms: N1_2  and  C14_22 
REMARK    3  A    between atoms: C3_4  and  C4_5 
REMARK    4  A    between atoms: C5_6  and  C6_7 
REMARK    5  A    between atoms: C6_7  and  C7_8 
REMARK    6  A    between atoms: C9_10  and  C10_11 
REMARK    7  A    between atoms: C10_11  and  O1_12 
REMARK       I    between atoms: N2_15  and  C12_16 
REMARK    8  A    between atoms: C14_22  and  C15_23 
REMARK       I    between atoms: C15_23  and  N6_25 
REMARK    9  A    between atoms: N6_25  and  C16_27 
REMARK   10  A    between atoms: C16_27  and  C17_28 
REMARK   11  A    between atoms: C17_28  and  C18_29 
REMARK   12  A    between atoms: C18_29  and  N7_30 
ROOT
HETATM    1  C7  UNL     1      31.043   7.060  27.370  1.00  0.00     0.090 C 
HETATM    2  C8  UNL     1      31.849   5.821  27.173  1.00  0.00     0.034 C 
HETATM    3  C9  UNL     1      31.289   4.811  28.172  1.00  0.00     0.029 C 
HETATM    4  C11 UNL     1      30.639   5.713  29.202  1.00  0.00     0.132 C 
HETATM    5  N2  UNL     1      30.156   6.847  28.454  1.00  0.00    -0.349 N 
HETATM    6  C12 UNL     1      28.992   7.596  28.774  1.00  0.00     0.199 C 
HETATM    7  N3  UNL     1      27.700   7.217  28.262  1.00  0.00    -0.063 NA
HETATM    8  N4  UNL     1      29.034   8.637  29.527  1.00  0.00    -0.267 N 
ATOM      9  H4  UNL     1      29.924   8.949  29.916  1.00  0.00     0.180 HD
HETATM   10  C13 UNL     1      27.875   9.334  29.810  1.00  0.00     0.184 C 
HETATM   11  N5  UNL     1      26.904   9.924  30.057  1.00  0.00    -0.172 NA
ENDROOT
BRANCH   1  12
HETATM   12  C6  UNL     1      31.914   8.292  27.504  1.00  0.00     0.052 C 
BRANCH  12  13
HETATM   13  C5  UNL     1      31.520   9.371  26.601  1.00  0.00    -0.027 C 
HETATM   14  C4  UNL     1      32.002  10.567  26.576  1.00  0.00    -0.003 C 
BRANCH  14  15
HETATM   15  C3  UNL     1      33.038  11.085  27.443  1.00  0.00     0.264 C 
BRANCH  15  16
HETATM   16  N1  UNL     1      33.615  12.347  26.969  1.00  0.00    -0.063 N 
HETATM   17  C1  UNL     1      33.913  12.267  25.559  1.00  0.00     0.272 C 
HETATM   18  C2  UNL     1      32.596  13.340  27.209  1.00  0.00     0.272 C 
BRANCH  16  19
HETATM   19  C14 UNL     1      34.800  12.595  27.737  1.00  0.00     0.339 C 
BRANCH  19  20
HETATM   20  C15 UNL     1      34.655  12.819  29.167  1.00  0.00     0.243 C 
HETATM   21  O2  UNL     1      35.001  11.841  29.932  1.00  0.00    -0.272 OA
HETATM   22  N6  UNL     1      34.184  13.971  29.817  1.00  0.00    -0.360 N 
ATOM     23  H6  UNL     1      33.905  14.772  29.250  1.00  0.00     0.162 HD
BRANCH  22  24
HETATM   24  C16 UNL     1      34.078  14.068  31.257  1.00  0.00     0.124 C 
BRANCH  24  25
HETATM   25  C17 UNL     1      32.696  13.938  31.789  1.00  0.00     0.039 C 
BRANCH  25  26
HETATM   26  C18 UNL     1      32.662  12.709  32.689  1.00  0.00     0.123 C 
BRANCH  26  27
HETATM   27  N7  UNL     1      32.685  11.519  31.868  1.00  0.00    -0.367 N 
HETATM   28  C19 UNL     1      31.602  10.945  31.490  1.00  0.00     0.196 C 
HETATM   29  N8  UNL     1      31.680   9.782  30.687  1.00  0.00    -0.067 NA
HETATM   30  N9  UNL     1      30.334  11.453  31.860  1.00  0.00    -0.067 NA
ATOM     31  H7  UNL     1      33.583  11.127  31.583  1.00  0.00     0.161 HD
ENDBRANCH  26  27
ENDBRANCH  25  26
ENDBRANCH  24  25
ENDBRANCH  22  24
ENDBRANCH  19  20
ENDBRANCH  16  19
ENDBRANCH  15  16
ENDBRANCH  14  15
ENDBRANCH  12  13
ENDBRANCH   1  12
BRANCH   3  32
HETATM   32  C10 UNL     1      32.439   4.034  28.741  1.00  0.00     0.170 C 
BRANCH  32  33
HETATM   33  O1  UNL     1      32.959   3.240  27.714  1.00  0.00    -0.400 OA
ATOM     34  H1  UNL     1      33.596   3.764  27.243  1.00  0.00     0.209 HD
ENDBRANCH  32  33
ENDBRANCH   3  32
TORSDOF 12
ENDMDL
MODEL 4
REMARK VINA RESULT: -6.627985817      2.202      2.836
REMARK  12 active torsions:
REMARK  status: ('A' for Active; 'I' for Inactive)
REMARK    1  A    between atoms: N1_2  and  C3_4 
REMARK    2  A    between atoms: N1_2  and  C14_22 
REMARK    3  A    between atoms: C3_4  and  C4_5 
REMARK    4  A    between atoms: C5_6  and  C6_7 
REMARK    5  A    between atoms: C6_7  and  C7_8 
REMARK    6  A    between atoms: C9_10  and  C10_11 
REMARK    7  A    between atoms: C10_11  and  O1_12 
REMARK       I    between atoms: N2_15  and  C12_16 
REMARK    8  A    between atoms: C14_22  and  C15_23 
REMARK       I    between atoms: C15_23  and  N6_25 
REMARK    9  A    between atoms: N6_25  and  C16_27 
REMARK   10  A    between atoms: C16_27  and  C17_28 
REMARK   11  A    between atoms: C17_28  and  C18_29 
REMARK   12  A    between atoms: C18_29  and  N7_30 
ROOT
HETATM    1  C7  UNL     1      31.010   7.300  27.204  1.00  0.00     0.090 C 
HETATM    2  C8  UNL     1      31.906   6.129  26.988  1.00  0.00     0.034 C 
HETATM    3  C9  UNL     1      31.469   5.088  28.017  1.00  0.00     0.029 C 
HETATM    4  C11 UNL     1      30.785   5.947  29.062  1.00  0.00     0.132 C 
HETATM    5  N2  UNL     1      30.184   7.028  28.323  1.00  0.00    -0.349 N 
HETATM    6  C12 UNL     1      28.975   7.684  28.680  1.00  0.00     0.199 C 
HETATM    7  N3  UNL     1      27.700   7.194  28.220  1.00  0.00    -0.063 NA
HETATM    8  N4  UNL     1      28.960   8.734  29.421  1.00  0.00    -0.267 N 
ATOM      9  H4  UNL     1      29.835   9.122  29.774  1.00  0.00     0.180 HD
HETATM   10  C13 UNL     1      27.758   9.337  29.742  1.00  0.00     0.184 C 
HETATM   11  N5  UNL     1      26.752   9.849  30.020  1.00  0.00    -0.172 NA
ENDROOT
BRANCH   1  12
HETATM   12  C6  UNL     1      31.782   8.601  27.295  1.00  0.00     0.052 C 
BRANCH  12  13
HETATM   13  C5  UNL     1      31.077   9.726  26.686  1.00  0.00    -0.027 C 
HETATM   14  C4  UNL     1      31.613  10.759  26.130  1.00  0.00    -0.003 C 
BRANCH  14  15
HETATM   15  C3  UNL     1      33.031  11.013  25.998  1.00  0.00     0.264 C 
BRANCH  15  16
HETATM   16  N1  UNL     1      33.334  12.241  25.255  1.00  0.00    -0.063 N 
HETATM   17  C1  UNL     1      34.311  11.979  24.224  1.00  0.00     0.272 C 
HETATM   18  C2  UNL     1      32.080  12.642  24.664  1.00  0.00     0.272 C 
BRANCH  16  19
HETATM   19  C14 UNL     1      33.818  13.207  26.196  1.00  0.00     0.339 C 
BRANCH  19  20
HETATM   20  C15 UNL     1      34.454  12.722  27.412  1.00  0.00     0.243 C 
HETATM   21  O2  UNL     1      35.690  12.372  27.303  1.00  0.00    -0.272 OA
HETATM   22  N6  UNL     1      33.885  12.587  28.687  1.00  0.00    -0.360 N 
ATOM     23  H6  UNL     1      32.910  12.858  28.820  1.00  0.00     0.162 HD
BRANCH  22  24
HETATM   24  C16 UNL     1      34.625  12.079  29.824  1.00  0.00     0.124 C 
BRANCH  24  25
HETATM   25  C17 UNL     1      34.112  12.521  31.147  1.00  0.00     0.039 C 
BRANCH  25  26
HETATM   26  C18 UNL     1      33.616  11.285  31.886  1.00  0.00     0.123 C 
BRANCH  26  27
HETATM   27  N7  UNL     1      32.203  11.430  32.156  1.00  0.00    -0.367 N 
HETATM   28  C19 UNL     1      31.329  10.704  31.558  1.00  0.00     0.196 C 
HETATM   29  N8  UNL     1      29.959  10.884  31.858  1.00  0.00    -0.067 NA
HETATM   30  N9  UNL     1      31.713   9.729  30.607  1.00  0.00    -0.067 NA
ATOM     31  H7  UNL     1      31.893  12.123  32.837  1.00  0.00     0.161 HD
ENDBRANCH  26  27
ENDBRANCH  25  26
ENDBRANCH  24  25
ENDBRANCH  22  24
ENDBRANCH  19  20
ENDBRANCH  16  19
ENDBRANCH  15  16
ENDBRANCH  14  15
ENDBRANCH  12  13
ENDBRANCH   1  12
BRANCH   3  32
HETATM   32  C10 UNL     1      32.698   4.414  28.549  1.00  0.00     0.170 C 
BRANCH  32  33
HETATM   33  O1  UNL     1      32.906   3.259  27.790  1.00  0.00    -0.400 OA
ATOM     34  H1  UNL     1      33.791   2.959  27.962  1.00  0.00     0.209 HD
ENDBRANCH  32  33
ENDBRANCH   3  32
TORSDOF 12
ENDMDL
MODEL 5
REMARK VINA RESULT: -6.610364066      2.144      5.140
REMARK  12 active torsions:
REMARK  status: ('A' for Active; 'I' for Inactive)
REMARK    1  A    between atoms: N1_2  and  C3_4 
REMARK    2  A    between atoms: N1_2  and  C14_22 
REMARK    3  A    between atoms: C3_4  and  C4_5 
REMARK    4  A    between atoms: C5_6  and  C6_7 
REMARK    5  A    between atoms: C6_7  and  C7_8 
REMARK    6  A    between atoms: C9_10  and  C10_11 
REMARK    7  A    between atoms: C10_11  and  O1_12 
REMARK       I    between atoms: N2_15  and  C12_16 
REMARK    8  A    between atoms: C14_22  and  C15_23 
REMARK       I    between atoms: C15_23  and  N6_25 
REMARK    9  A    between atoms: N6_25  and  C16_27 
REMARK   10  A    between atoms: C16_27  and  C17_28 
REMARK   11  A    between atoms: C17_28  and  C18_29 
REMARK   12  A    between atoms: C18_29  and  N7_30 
ROOT
HETATM    1  C7  UNL     1      31.077   7.031  27.501  1.00  0.00     0.090 C 
HETATM    2  C8  UNL     1      31.856   5.776  27.298  1.00  0.00     0.034 C 
HETATM    3  C9  UNL     1      31.187   4.734  28.191  1.00  0.00     0.029 C 
HETATM    4  C11 UNL     1      30.484   5.602  29.216  1.00  0.00     0.132 C 
HETATM    5  N2  UNL     1      30.099   6.791  28.497  1.00  0.00    -0.349 N 
HETATM    6  C12 UNL     1      28.937   7.563  28.766  1.00  0.00     0.199 C 
HETATM    7  N3  UNL     1      27.679   7.258  28.134  1.00  0.00    -0.063 NA
HETATM    8  N4  UNL     1      28.950   8.559  29.578  1.00  0.00    -0.267 N 
ATOM      9  H4  UNL     1      29.815   8.818  30.054  1.00  0.00     0.180 HD
HETATM   10  C13 UNL     1      27.794   9.281  29.808  1.00  0.00     0.184 C 
HETATM   11  N5  UNL     1      26.826   9.891  30.010  1.00  0.00    -0.172 NA
ENDROOT
BRANCH   1  12
HETATM   12  C6  UNL     1      31.972   8.222  27.773  1.00  0.00     0.052 C 
BRANCH  12  13
HETATM   13  C5  UNL     1      31.518   9.441  27.109  1.00  0.00    -0.027 C 
HETATM   14  C4  UNL     1      31.333  10.593  27.657  1.00  0.00    -0.003 C 
BRANCH  14  15
HETATM   15  C3  UNL     1      31.539  10.912  29.054  1.00  0.00     0.264 C 
BRANCH  15  16
HETATM   16  N1  UNL     1      31.238  12.309  29.381  1.00  0.00    -0.063 N 
HETATM   17  C1  UNL     1      32.250  12.853  30.255  1.00  0.00     0.272 C 
HETATM   18  C2  UNL     1      31.246  13.002  28.115  1.00  0.00     0.272 C 
BRANCH  16  19
HETATM   19  C14 UNL     1      29.946  12.338  30.001  1.00  0.00     0.339 C 
BRANCH  19  20
HETATM   20  C15 UNL     1      28.842  12.925  29.258  1.00  0.00     0.243 C 
HETATM   21  O2  UNL     1      28.571  14.158  29.524  1.00  0.00    -0.272 OA
HETATM   22  N6  UNL     1      28.033  12.314  28.287  1.00  0.00    -0.360 N 
ATOM     23  H6  UNL     1      28.216  11.340  28.041  1.00  0.00     0.162 HD
BRANCH  22  24
HETATM   24  C16 UNL     1      26.951  13.007  27.620  1.00  0.00     0.124 C 
BRANCH  24  25
HETATM   25  C17 UNL     1      25.626  12.870  28.279  1.00  0.00     0.039 C 
BRANCH  25  26
HETATM   26  C18 UNL     1      24.760  11.985  27.393  1.00  0.00     0.123 C 
BRANCH  26  27
HETATM   27  N7  UNL     1      24.775  10.634  27.911  1.00  0.00    -0.367 N 
HETATM   28  C19 UNL     1      24.067   9.705  27.380  1.00  0.00     0.196 C 
HETATM   29  N8  UNL     1      24.118   8.401  27.924  1.00  0.00    -0.067 NA
HETATM   30  N9  UNL     1      23.238   9.963  26.262  1.00  0.00    -0.067 NA
ATOM     31  H7  UNL     1      25.362  10.415  28.715  1.00  0.00     0.161 HD
ENDBRANCH  26  27
ENDBRANCH  25  26
ENDBRANCH  24  25
ENDBRANCH  22  24
ENDBRANCH  19  20
ENDBRANCH  16  19
ENDBRANCH  15  16
ENDBRANCH  14  15
ENDBRANCH  12  13
ENDBRANCH   1  12
BRANCH   3  32
HETATM   32  C10 UNL     1      32.262   3.887  28.804  1.00  0.00     0.170 C 
BRANCH  32  33
HETATM   33  O1  UNL     1      33.035   3.369  27.760  1.00  0.00    -0.400 OA
ATOM     34  H1  UNL     1      33.459   2.582  28.082  1.00  0.00     0.209 HD
ENDBRANCH  32  33
ENDBRANCH   3  32
TORSDOF 12
ENDMDL
