MODEL 1
REMARK VINA RESULT: -7.409741765      0.000      0.000
REMARK  10 active torsions:
REMARK  status: ('A' for Active; 'I' for Inactive)
REMARK    1  A    between atoms: C2_2  and  C3_3 
REMARK    2  A    between atoms: C3_3  and  N1_4 
REMARK    3  A    between atoms: N1_4  and  C4_5 
REMARK    4  A    between atoms: N1_4  and  C8_12 
REMARK    5  A    between atoms: C4_5  and  C5_6 
REMARK    6  A    between atoms: C9_13  and  C10_14 
REMARK    7  A    between atoms: C16_24  and  C17_25 
REMARK    8  A    between atoms: C17_25  and  C18_26 
REMARK    9  A    between atoms: C18_26  and  C19_27 
REMARK   10  A    between atoms: C19_27  and  N5_28 
ROOT
HETATM    1  C8  UNL     1      30.191   9.776  29.298  1.00  0.00     0.115 C 
HETATM    2  C9  UNL     1      28.838  10.350  29.038  1.00  0.00     0.099 C 
HETATM    3  C11 UNL     1      28.380  11.206  30.199  1.00  0.00     0.017 C 
HETATM    4  C12 UNL     1      29.400  12.097  30.784  1.00  0.00     0.017 C 
HETATM    5  C13 UNL     1      30.808  11.537  30.825  1.00  0.00     0.103 C 
HETATM    6  C14 UNL     1      31.720  12.571  31.295  1.00  0.00     0.226 C 
HETATM    7  O3  UNL     1      31.945  12.552  32.551  1.00  0.00    -0.273 OA
HETATM    8  N4  UNL     1      32.446  13.640  30.655  1.00  0.00    -0.343 N 
HETATM    9  C15 UNL     1      32.575  14.875  31.401  1.00  0.00     0.153 C 
HETATM   10  C16 UNL     1      33.027  13.529  29.330  1.00  0.00     0.178 C 
HETATM   11  C21 UNL     1      32.050  12.994  28.360  1.00  0.00     0.241 C 
HETATM   12  O4  UNL     1      32.008  13.591  27.250  1.00  0.00    -0.271 OA
HETATM   13  N8  UNL     1      31.137  11.906  28.462  1.00  0.00    -0.352 N 
ATOM     14  H8  UNL     1      30.406  11.830  27.754  1.00  0.00     0.163 HD
HETATM   15  C22 UNL     1      31.177  10.907  29.497  1.00  0.00     0.120 C 
ENDROOT
BRANCH   1  16
HETATM   16  N1  UNL     1      30.622   8.748  28.417  1.00  0.00    -0.400 N 
BRANCH  16  17
HETATM   17  C3  UNL     1      30.506   9.045  27.027  1.00  0.00     0.144 C 
BRANCH  17  18
HETATM   18  C2  UNL     1      31.829   9.260  26.388  1.00  0.00    -0.018 C 
HETATM   19  C1  UNL     1      32.045  10.216  25.497  1.00  0.00     0.008 C 
ENDBRANCH  17  18
ENDBRANCH  16  17
BRANCH  16  20
HETATM   20  C4  UNL     1      30.275   7.422  28.785  1.00  0.00     0.143 C 
BRANCH  20  21
HETATM   21  C5  UNL     1      30.798   6.351  27.859  1.00  0.00     0.110 C 
HETATM   22  C6  UNL     1      30.655   4.966  28.508  1.00  0.00     0.129 C 
HETATM   23  C7  UNL     1      31.976   4.688  27.906  1.00  0.00     0.220 C 
HETATM   24  O1  UNL     1      32.579   3.625  27.591  1.00  0.00    -0.274 OA
HETATM   25  N2  UNL     1      32.199   6.096  27.869  1.00  0.00    -0.354 N 
ATOM     26  H2  UNL     1      33.031   6.686  27.855  1.00  0.00     0.162 HD
ENDBRANCH  20  21
ENDBRANCH  16  20
ENDBRANCH   1  16
BRANCH   2  27
HETATM   27  C10 UNL     1      27.794   9.274  28.942  1.00  0.00     0.237 C 
HETATM   28  N3  UNL     1      27.127   8.983  27.725  1.00  0.00    -0.062 NA
HETATM   29  O2  UNL     1      27.522   8.633  29.972  1.00  0.00    -0.276 OA
ENDBRANCH   2  27
BRANCH  10  30
HETATM   30  C17 UNL     1      34.339  12.822  29.290  1.00  0.00     0.037 C 
BRANCH  30  31
HETATM   31  C18 UNL     1      34.697  12.165  28.004  1.00  0.00     0.022 C 
BRANCH  31  32
HETATM   32  C19 UNL     1      35.321  13.067  26.977  1.00  0.00     0.122 C 
BRANCH  32  33
HETATM   33  N5  UNL     1      34.752  12.853  25.655  1.00  0.00    -0.367 N 
HETATM   34  C20 UNL     1      35.424  12.761  24.592  1.00  0.00     0.196 C 
HETATM   35  N6  UNL     1      34.781  12.552  23.350  1.00  0.00    -0.067 NA
HETATM   36  N7  UNL     1      36.835  12.863  24.622  1.00  0.00    -0.067 NA
ATOM     37  H5  UNL     1      33.738  12.771  25.583  1.00  0.00     0.161 HD
ENDBRANCH  32  33
ENDBRANCH  31  32
ENDBRANCH  30  31
ENDBRANCH  10  30
TORSDOF 10
ENDMDL
MODEL 2
REMARK VINA RESULT: -7.313108234      2.769      6.694
REMARK  10 active torsions:
REMARK  status: ('A' for Active; 'I' for Inactive)
REMARK    1  A    between atoms: C2_2  and  C3_3 
REMARK    2  A    between atoms: C3_3  and  N1_4 
REMARK    3  A    between atoms: N1_4  and  C4_5 
REMARK    4  A    between atoms: N1_4  and  C8_12 
REMARK    5  A    between atoms: C4_5  and  C5_6 
REMARK    6  A    between atoms: C9_13  and  C10_14 
REMARK    7  A    between atoms: C16_24  and  C17_25 
REMARK    8  A    between atoms: C17_25  and  C18_26 
REMARK    9  A    between atoms: C18_26  and  C19_27 
REMARK   10  A    between atoms: C19_27  and  N5_28 
ROOT
HETATM    1  C8  UNL     1      30.809  11.463  28.880  1.00  0.00     0.115 C 
HETATM    2  C9  UNL     1      31.018  11.323  30.351  1.00  0.00     0.099 C 
HETATM    3  C11 UNL     1      30.554  12.562  31.085  1.00  0.00     0.017 C 
HETATM    4  C12 UNL     1      29.276  13.142  30.629  1.00  0.00     0.017 C 
HETATM    5  C13 UNL     1      29.021  13.062  29.136  1.00  0.00     0.103 C 
HETATM    6  C14 UNL     1      27.675  13.542  28.856  1.00  0.00     0.226 C 
HETATM    7  O3  UNL     1      27.604  14.778  28.548  1.00  0.00    -0.273 OA
HETATM    8  N4  UNL     1      26.369  12.930  28.846  1.00  0.00    -0.343 N 
HETATM    9  C15 UNL     1      25.266  13.746  29.312  1.00  0.00     0.153 C 
HETATM   10  C16 UNL     1      26.129  11.569  28.407  1.00  0.00     0.178 C 
HETATM   11  C21 UNL     1      27.072  10.626  29.043  1.00  0.00     0.241 C 
HETATM   12  O4  UNL     1      26.557   9.562  29.483  1.00  0.00    -0.271 OA
HETATM   13  N8  UNL     1      28.478  10.712  29.249  1.00  0.00    -0.352 N 
ATOM     14  H8  UNL     1      28.906  10.046  29.892  1.00  0.00     0.163 HD
HETATM   15  C22 UNL     1      29.334  11.676  28.609  1.00  0.00     0.120 C 
ENDROOT
BRANCH   1  16
HETATM   16  N1  UNL     1      31.439  10.493  28.055  1.00  0.00    -0.400 N 
BRANCH  16  17
HETATM   17  C3  UNL     1      32.260  11.018  27.013  1.00  0.00     0.144 C 
BRANCH  17  18
HETATM   18  C2  UNL     1      32.348  10.095  25.853  1.00  0.00    -0.018 C 
HETATM   19  C1  UNL     1      32.477  10.525  24.606  1.00  0.00     0.008 C 
ENDBRANCH  17  18
ENDBRANCH  16  17
BRANCH  16  20
HETATM   20  C4  UNL     1      30.651   9.367  27.699  1.00  0.00     0.143 C 
BRANCH  20  21
HETATM   21  C5  UNL     1      30.867   8.146  28.560  1.00  0.00     0.110 C 
HETATM   22  C6  UNL     1      31.140   6.916  27.683  1.00  0.00     0.129 C 
HETATM   23  C7  UNL     1      30.302   6.191  28.661  1.00  0.00     0.220 C 
HETATM   24  O1  UNL     1      30.206   4.975  28.990  1.00  0.00    -0.274 OA
HETATM   25  N2  UNL     1      29.713   7.442  29.007  1.00  0.00    -0.354 N 
ATOM     26  H2  UNL     1      28.820   7.722  29.414  1.00  0.00     0.162 HD
ENDBRANCH  20  21
ENDBRANCH  16  20
ENDBRANCH   1  16
BRANCH   2  27
HETATM   27  C10 UNL     1      32.477  11.220  30.690  1.00  0.00     0.237 C 
HETATM   28  N3  UNL     1      33.407  12.223  30.315  1.00  0.00    -0.062 NA
HETATM   29  O2  UNL     1      32.859  10.217  31.318  1.00  0.00    -0.276 OA
ENDBRANCH   2  27
BRANCH  10  30
HETATM   30  C17 UNL     1      26.047  11.404  26.927  1.00  0.00     0.037 C 
BRANCH  30  31
HETATM   31  C18 UNL     1      24.769  11.815  26.286  1.00  0.00     0.022 C 
BRANCH  31  32
HETATM   32  C19 UNL     1      23.528  11.236  26.903  1.00  0.00     0.122 C 
BRANCH  32  33
HETATM   33  N5  UNL     1      23.512   9.783  26.818  1.00  0.00    -0.367 N 
HETATM   34  C20 UNL     1      23.384   9.009  27.805  1.00  0.00     0.196 C 
HETATM   35  N6  UNL     1      23.380   7.607  27.624  1.00  0.00    -0.067 NA
HETATM   36  N7  UNL     1      23.242   9.529  29.113  1.00  0.00    -0.067 NA
ATOM     37  H5  UNL     1      23.610   9.361  25.895  1.00  0.00     0.161 HD
ENDBRANCH  32  33
ENDBRANCH  31  32
ENDBRANCH  30  31
ENDBRANCH  10  30
TORSDOF 10
ENDMDL
MODEL 3
REMARK VINA RESULT: -7.306068912      4.037      7.389
REMARK  10 active torsions:
REMARK  status: ('A' for Active; 'I' for Inactive)
REMARK    1  A    between atoms: C2_2  and  C3_3 
REMARK    2  A    between atoms: C3_3  and  N1_4 
REMARK    3  A    between atoms: N1_4  and  C4_5 
REMARK    4  A    between atoms: N1_4  and  C8_12 
REMARK    5  A    between atoms: C4_5  and  C5_6 
REMARK    6  A    between atoms: C9_13  and  C10_14 
REMARK    7  A    between atoms: C16_24  and  C17_25 
REMARK    8  A    between atoms: C17_25  and  C18_26 
REMARK    9  A    between atoms: C18_26  and  C19_27 
REMARK   10  A    between atoms: C19_27  and  N5_28 
ROOT
HETATM    1  C8  UNL     1      25.529  11.525  29.178  1.00  0.00     0.115 C 
HETATM    2  C9  UNL     1      25.563  12.992  29.445  1.00  0.00     0.099 C 
HETATM    3  C11 UNL     1      26.299  13.292  30.733  1.00  0.00     0.017 C 
HETATM    4  C12 UNL     1      27.539  12.527  30.960  1.00  0.00     0.017 C 
HETATM    5  C13 UNL     1      27.519  11.093  30.470  1.00  0.00     0.103 C 
HETATM    6  C14 UNL     1      28.845  10.513  30.634  1.00  0.00     0.226 C 
HETATM    7  O3  UNL     1      29.015   9.873  31.726  1.00  0.00    -0.273 OA
HETATM    8  N4  UNL     1      30.043  10.493  29.832  1.00  0.00    -0.343 N 
HETATM    9  C15 UNL     1      31.303  10.567  30.543  1.00  0.00     0.153 C 
HETATM   10  C16 UNL     1      30.031  10.414  28.383  1.00  0.00     0.178 C 
HETATM   11  C21 UNL     1      29.104  11.404  27.799  1.00  0.00     0.241 C 
HETATM   12  O4  UNL     1      29.550  12.043  26.808  1.00  0.00    -0.271 OA
HETATM   13  N8  UNL     1      27.776  11.766  28.165  1.00  0.00    -0.352 N 
ATOM     14  H8  UNL     1      27.387  12.618  27.761  1.00  0.00     0.163 HD
HETATM   15  C22 UNL     1      26.948  11.010  29.068  1.00  0.00     0.120 C 
ENDROOT
BRANCH   1  16
HETATM   16  N1  UNL     1      24.649  11.088  28.152  1.00  0.00    -0.400 N 
BRANCH  16  17
HETATM   17  C3  UNL     1      24.163   9.754  28.289  1.00  0.00     0.144 C 
BRANCH  17  18
HETATM   18  C2  UNL     1      22.929   9.691  29.112  1.00  0.00    -0.018 C 
HETATM   19  C1  UNL     1      21.947  10.573  28.996  1.00  0.00     0.008 C 
ENDBRANCH  17  18
ENDBRANCH  16  17
BRANCH  16  20
HETATM   20  C4  UNL     1      24.987  11.478  26.829  1.00  0.00     0.143 C 
BRANCH  20  21
HETATM   21  C5  UNL     1      23.817  11.592  25.884  1.00  0.00     0.110 C 
HETATM   22  C6  UNL     1      24.191  12.456  24.671  1.00  0.00     0.129 C 
HETATM   23  C7  UNL     1      22.823  13.001  24.797  1.00  0.00     0.220 C 
HETATM   24  O1  UNL     1      22.039  13.575  23.990  1.00  0.00    -0.274 OA
HETATM   25  N2  UNL     1      22.839  12.591  26.162  1.00  0.00    -0.354 N 
ATOM     26  H2  UNL     1      22.347  12.891  27.003  1.00  0.00     0.162 HD
ENDBRANCH  20  21
ENDBRANCH  16  20
ENDBRANCH   1  16
BRANCH   2  27
HETATM   27  C10 UNL     1      24.185  13.541  29.674  1.00  0.00     0.237 C 
HETATM   28  N3  UNL     1      23.486  13.332  30.891  1.00  0.00    -0.062 NA
HETATM   29  O2  UNL     1      23.658  14.194  28.756  1.00  0.00    -0.276 OA
ENDBRANCH   2  27
BRANCH  10  30
HETATM   30  C17 UNL     1      29.833   9.037  27.843  1.00  0.00     0.037 C 
BRANCH  30  31
HETATM   31  C18 UNL     1      30.947   8.075  28.062  1.00  0.00     0.022 C 
BRANCH  31  32
HETATM   32  C19 UNL     1      31.162   7.084  26.953  1.00  0.00     0.122 C 
BRANCH  32  33
HETATM   33  N5  UNL     1      32.047   6.003  27.362  1.00  0.00    -0.367 N 
HETATM   34  C20 UNL     1      31.662   4.852  27.701  1.00  0.00     0.196 C 
HETATM   35  N6  UNL     1      32.598   3.864  28.083  1.00  0.00    -0.067 NA
HETATM   36  N7  UNL     1      30.285   4.525  27.705  1.00  0.00    -0.067 NA
ATOM     37  H5  UNL     1      33.049   6.190  27.374  1.00  0.00     0.161 HD
ENDBRANCH  32  33
ENDBRANCH  31  32
ENDBRANCH  30  31
ENDBRANCH  10  30
TORSDOF 10
ENDMDL
MODEL 4
REMARK VINA RESULT: -7.302408259      2.895      6.436
REMARK  10 active torsions:
REMARK  status: ('A' for Active; 'I' for Inactive)
REMARK    1  A    between atoms: C2_2  and  C3_3 
REMARK    2  A    between atoms: C3_3  and  N1_4 
REMARK    3  A    between atoms: N1_4  and  C4_5 
REMARK    4  A    between atoms: N1_4  and  C8_12 
REMARK    5  A    between atoms: C4_5  and  C5_6 
REMARK    6  A    between atoms: C9_13  and  C10_14 
REMARK    7  A    between atoms: C16_24  and  C17_25 
REMARK    8  A    between atoms: C17_25  and  C18_26 
REMARK    9  A    between atoms: C18_26  and  C19_27 
REMARK   10  A    between atoms: C19_27  and  N5_28 
ROOT
HETATM    1  C8  UNL     1      30.971  11.344  27.659  1.00  0.00     0.115 C 
HETATM    2  C9  UNL     1      31.530  12.076  28.833  1.00  0.00     0.099 C 
HETATM    3  C11 UNL     1      30.953  13.472  28.927  1.00  0.00     0.017 C 
HETATM    4  C12 UNL     1      29.505  13.589  28.676  1.00  0.00     0.017 C 
HETATM    5  C13 UNL     1      28.951  12.661  27.612  1.00  0.00     0.103 C 
HETATM    6  C14 UNL     1      27.500  12.790  27.575  1.00  0.00     0.226 C 
HETATM    7  O3  UNL     1      27.063  13.626  26.715  1.00  0.00    -0.273 OA
HETATM    8  N4  UNL     1      26.415  12.179  28.301  1.00  0.00    -0.343 N 
HETATM    9  C15 UNL     1      25.279  13.025  28.605  1.00  0.00     0.153 C 
HETATM   10  C16 UNL     1      26.423  10.793  28.731  1.00  0.00     0.178 C 
HETATM   11  C21 UNL     1      27.685  10.453  29.420  1.00  0.00     0.241 C 
HETATM   12  O4  UNL     1      27.557   9.786  30.483  1.00  0.00    -0.271 OA
HETATM   13  N8  UNL     1      29.037  10.751  29.088  1.00  0.00    -0.352 N 
ATOM     14  H8  UNL     1      29.747  10.601  29.804  1.00  0.00     0.163 HD
HETATM   15  C22 UNL     1      29.467  11.249  27.807  1.00  0.00     0.120 C 
ENDROOT
BRANCH   1  16
HETATM   16  N1  UNL     1      31.618  10.131  27.301  1.00  0.00    -0.400 N 
BRANCH  16  17
HETATM   17  C3  UNL     1      31.697   9.870  25.901  1.00  0.00     0.144 C 
BRANCH  17  18
HETATM   18  C2  UNL     1      32.031  11.090  25.122  1.00  0.00    -0.018 C 
HETATM   19  C1  UNL     1      32.460  11.042  23.870  1.00  0.00     0.008 C 
ENDBRANCH  17  18
ENDBRANCH  16  17
BRANCH  16  20
HETATM   20  C4  UNL     1      31.329   9.004  28.113  1.00  0.00     0.143 C 
BRANCH  20  21
HETATM   21  C5  UNL     1      31.135   7.712  27.357  1.00  0.00     0.110 C 
HETATM   22  C6  UNL     1      30.124   6.814  28.084  1.00  0.00     0.129 C 
HETATM   23  C7  UNL     1      31.024   5.706  27.701  1.00  0.00     0.220 C 
HETATM   24  O1  UNL     1      30.859   4.462  27.558  1.00  0.00    -0.274 OA
HETATM   25  N2  UNL     1      32.073   6.665  27.588  1.00  0.00    -0.354 N 
ATOM     26  H2  UNL     1      33.090   6.620  27.648  1.00  0.00     0.162 HD
ENDBRANCH  20  21
ENDBRANCH  16  20
ENDBRANCH   1  16
BRANCH   2  27
HETATM   27  C10 UNL     1      33.008  12.299  28.687  1.00  0.00     0.237 C 
HETATM   28  N3  UNL     1      33.551  13.048  27.612  1.00  0.00    -0.062 NA
HETATM   29  O2  UNL     1      33.759  11.802  29.545  1.00  0.00    -0.276 OA
ENDBRANCH   2  27
BRANCH  10  30
HETATM   30  C17 UNL     1      26.055   9.815  27.666  1.00  0.00     0.037 C 
BRANCH  30  31
HETATM   31  C18 UNL     1      24.629   9.396  27.618  1.00  0.00     0.022 C 
BRANCH  31  32
HETATM   32  C19 UNL     1      23.730  10.280  26.801  1.00  0.00     0.122 C 
BRANCH  32  33
HETATM   33  N5  UNL     1      24.236  10.459  25.448  1.00  0.00    -0.367 N 
HETATM   34  C20 UNL     1      24.250  11.557  24.828  1.00  0.00     0.196 C 
HETATM   35  N6  UNL     1      24.763  11.634  23.513  1.00  0.00    -0.067 NA
HETATM   36  N7  UNL     1      23.755  12.734  25.438  1.00  0.00    -0.067 NA
ATOM     37  H5  UNL     1      24.605   9.639  24.967  1.00  0.00     0.161 HD
ENDBRANCH  32  33
ENDBRANCH  31  32
ENDBRANCH  30  31
ENDBRANCH  10  30
TORSDOF 10
ENDMDL
MODEL 5
REMARK VINA RESULT: -7.260509606      3.729      6.538
REMARK  10 active torsions:
REMARK  status: ('A' for Active; 'I' for Inactive)
REMARK    1  A    between atoms: C2_2  and  C3_3 
REMARK    2  A    between atoms: C3_3  and  N1_4 
REMARK    3  A    between atoms: N1_4  and  C4_5 
REMARK    4  A    between atoms: N1_4  and  C8_12 
REMARK    5  A    between atoms: C4_5  and  C5_6 
REMARK    6  A    between atoms: C9_13  and  C10_14 
REMARK    7  A    between atoms: C16_24  and  C17_25 
REMARK    8  A    between atoms: C17_25  and  C18_26 
REMARK    9  A    between atoms: C18_26  and  C19_27 
REMARK   10  A    between atoms: C19_27  and  N5_28 
ROOT
HETATM    1  C8  UNL     1      30.018  10.896  28.299  1.00  0.00     0.115 C 
HETATM    2  C9  UNL     1      30.189  11.010  29.777  1.00  0.00     0.099 C 
HETATM    3  C11 UNL     1      29.816  12.393  30.262  1.00  0.00     0.017 C 
HETATM    4  C12 UNL     1      28.598  12.978  29.669  1.00  0.00     0.017 C 
HETATM    5  C13 UNL     1      28.363  12.648  28.207  1.00  0.00     0.103 C 
HETATM    6  C14 UNL     1      27.066  13.172  27.803  1.00  0.00     0.226 C 
HETATM    7  O3  UNL     1      27.102  14.334  27.276  1.00  0.00    -0.273 OA
HETATM    8  N4  UNL     1      25.714  12.672  27.861  1.00  0.00    -0.343 N 
HETATM    9  C15 UNL     1      24.674  13.641  28.138  1.00  0.00     0.153 C 
HETATM   10  C16 UNL     1      25.371  11.276  27.666  1.00  0.00     0.178 C 
HETATM   11  C21 UNL     1      26.223  10.394  28.491  1.00  0.00     0.241 C 
HETATM   12  O4  UNL     1      25.615   9.471  29.098  1.00  0.00    -0.271 OA
HETATM   13  N8  UNL     1      27.628  10.407  28.722  1.00  0.00    -0.352 N 
ATOM     14  H8  UNL     1      27.989   9.837  29.488  1.00  0.00     0.163 HD
HETATM   15  C22 UNL     1      28.571  11.169  27.947  1.00  0.00     0.120 C 
ENDROOT
BRANCH   1  16
HETATM   16  N1  UNL     1      30.581   9.747  27.682  1.00  0.00    -0.400 N 
BRANCH  16  17
HETATM   17  C3  UNL     1      31.328   9.996  26.492  1.00  0.00     0.144 C 
BRANCH  17  18
HETATM   18  C2  UNL     1      31.745  11.416  26.380  1.00  0.00    -0.018 C 
HETATM   19  C1  UNL     1      31.736  12.074  25.230  1.00  0.00     0.008 C 
ENDBRANCH  17  18
ENDBRANCH  16  17
BRANCH  16  20
HETATM   20  C4  UNL     1      29.763   8.587  27.654  1.00  0.00     0.143 C 
BRANCH  20  21
HETATM   21  C5  UNL     1      30.285   7.425  28.461  1.00  0.00     0.110 C 
HETATM   22  C6  UNL     1      31.141   6.503  27.581  1.00  0.00     0.129 C 
HETATM   23  C7  UNL     1      30.496   5.402  28.325  1.00  0.00     0.220 C 
HETATM   24  O1  UNL     1      30.817   4.202  28.552  1.00  0.00    -0.274 OA
HETATM   25  N2  UNL     1      29.429   6.298  28.626  1.00  0.00    -0.354 N 
ATOM     26  H2  UNL     1      28.444   6.180  28.865  1.00  0.00     0.162 HD
ENDBRANCH  20  21
ENDBRANCH  16  20
ENDBRANCH   1  16
BRANCH   2  27
HETATM   27  C10 UNL     1      31.629  10.857  30.176  1.00  0.00     0.237 C 
HETATM   28  N3  UNL     1      32.611  11.818  29.822  1.00  0.00    -0.062 NA
HETATM   29  O2  UNL     1      31.947   9.852  30.834  1.00  0.00    -0.276 OA
ENDBRANCH   2  27
BRANCH  10  30
HETATM   30  C17 UNL     1      25.302  10.852  26.237  1.00  0.00     0.037 C 
BRANCH  30  31
HETATM   31  C18 UNL     1      24.051  11.193  25.507  1.00  0.00     0.022 C 
BRANCH  31  32
HETATM   32  C19 UNL     1      24.145  12.388  24.602  1.00  0.00     0.122 C 
BRANCH  32  33
HETATM   33  N5  UNL     1      23.443  12.170  23.346  1.00  0.00    -0.367 N 
HETATM   34  C20 UNL     1      23.923  12.411  22.206  1.00  0.00     0.196 C 
HETATM   35  N6  UNL     1      23.163  12.166  21.039  1.00  0.00    -0.067 NA
HETATM   36  N7  UNL     1      25.232  12.930  22.071  1.00  0.00    -0.067 NA
ATOM     37  H5  UNL     1      22.495  11.795  23.392  1.00  0.00     0.161 HD
ENDBRANCH  32  33
ENDBRANCH  31  32
ENDBRANCH  30  31
ENDBRANCH  10  30
TORSDOF 10
ENDMDL
