MODEL 1
REMARK VINA RESULT: -7.298659205      0.000      0.000
REMARK  12 active torsions:
REMARK  status: ('A' for Active; 'I' for Inactive)
REMARK    1  A    between atoms: N3_4  and  C2_6 
REMARK    2  A    between atoms: C2_6  and  C3_7 
REMARK    3  A    between atoms: C3_7  and  C4_8 
REMARK    4  A    between atoms: C4_8  and  C5_9 
REMARK    5  A    between atoms: C7_14  and  C8_15 
REMARK    6  A    between atoms: C8_15  and  O2_16 
REMARK    7  A    between atoms: N5_18  and  C9_19 
REMARK    8  A    between atoms: C9_19  and  C10_20 
REMARK    9  A    between atoms: C15_26  and  C16_27 
REMARK   10  A    between atoms: C16_27  and  C17_28 
REMARK   11  A    between atoms: C17_28  and  C18_29 
REMARK   12  A    between atoms: C18_29  and  N6_30 
ROOT
HETATM    1  C5  UNL     1      29.480   9.786  29.185  1.00  0.00     0.176 C 
HETATM    2  N4  UNL     1      29.502  10.692  28.068  1.00  0.00    -0.346 N 
ATOM      3  H4  UNL     1      28.921  10.416  27.276  1.00  0.00     0.163 HD
HETATM    4  C6  UNL     1      30.190  11.880  27.904  1.00  0.00     0.243 C 
HETATM    5  O1  UNL     1      30.624  12.091  26.704  1.00  0.00    -0.271 OA
HETATM    6  C7  UNL     1      30.533  12.960  28.821  1.00  0.00     0.202 C 
HETATM    7  N5  UNL     1      30.078  12.913  30.159  1.00  0.00    -0.334 N 
HETATM    8  C14 UNL     1      28.711  12.995  30.584  1.00  0.00     0.243 C 
HETATM    9  O3  UNL     1      28.438  13.756  31.563  1.00  0.00    -0.271 OA
HETATM   10  C15 UNL     1      27.585  12.260  29.970  1.00  0.00     0.176 C 
HETATM   11  N9  UNL     1      27.592  10.904  30.507  1.00  0.00    -0.346 N 
ATOM     12  H9  UNL     1      27.131  10.757  31.405  1.00  0.00     0.163 HD
HETATM   13  C20 UNL     1      28.181   9.780  29.893  1.00  0.00     0.241 C 
HETATM   14  O4  UNL     1      27.544   8.700  29.959  1.00  0.00    -0.271 OA
ENDROOT
BRANCH   1  15
HETATM   15  C4  UNL     1      29.719   8.382  28.672  1.00  0.00     0.036 C 
BRANCH  15  16
HETATM   16  C3  UNL     1      31.160   8.149  28.299  1.00  0.00     0.022 C 
BRANCH  16  17
HETATM   17  C2  UNL     1      31.164   7.133  27.166  1.00  0.00     0.122 C 
BRANCH  17  18
HETATM   18  N3  UNL     1      32.031   6.025  27.413  1.00  0.00    -0.367 N 
HETATM   19  C1  UNL     1      31.599   4.828  27.686  1.00  0.00     0.196 C 
HETATM   20  N1  UNL     1      30.224   4.503  27.766  1.00  0.00    -0.067 NA
HETATM   21  N2  UNL     1      32.581   3.826  27.909  1.00  0.00    -0.067 NA
ATOM     22  H3  UNL     1      33.039   6.180  27.373  1.00  0.00     0.161 HD
ENDBRANCH  17  18
ENDBRANCH  16  17
ENDBRANCH  15  16
ENDBRANCH   1  15
BRANCH   6  23
HETATM   23  C8  UNL     1      30.258  14.283  28.095  1.00  0.00     0.199 C 
BRANCH  23  24
HETATM   24  O2  UNL     1      29.073  14.313  27.417  1.00  0.00    -0.398 OA
ATOM     25  H2  UNL     1      28.362  14.724  27.896  1.00  0.00     0.209 HD
ENDBRANCH  23  24
ENDBRANCH   6  23
BRANCH  10  26
HETATM   26  C16 UNL     1      26.225  12.819  30.232  1.00  0.00     0.036 C 
BRANCH  26  27
HETATM   27  C17 UNL     1      25.391  13.212  29.067  1.00  0.00     0.022 C 
BRANCH  27  28
HETATM   28  C18 UNL     1      24.355  12.089  28.869  1.00  0.00     0.122 C 
BRANCH  28  29
HETATM   29  N6  UNL     1      24.948  11.024  28.087  1.00  0.00    -0.367 N 
HETATM   30  C19 UNL     1      24.597   9.796  28.227  1.00  0.00     0.196 C 
HETATM   31  N7  UNL     1      25.240   8.827  27.409  1.00  0.00    -0.067 NA
HETATM   32  N8  UNL     1      23.613   9.343  29.138  1.00  0.00    -0.067 NA
ATOM     33  H6  UNL     1      25.668  11.257  27.402  1.00  0.00     0.161 HD
ENDBRANCH  28  29
ENDBRANCH  27  28
ENDBRANCH  26  27
ENDBRANCH  10  26
BRANCH   7  34
HETATM   34  C9  UNL     1      31.069  12.773  31.220  1.00  0.00     0.131 C 
BRANCH  34  35
HETATM   35  C10 UNL     1      32.311  12.036  30.786  1.00  0.00     0.004 C 
HETATM   36  C11 UNL     1      33.536  12.360  31.640  1.00  0.00     0.006 C 
HETATM   37  C12 UNL     1      33.896  10.888  31.652  1.00  0.00     0.001 C 
HETATM   38  C13 UNL     1      32.434  10.611  31.349  1.00  0.00     0.006 C 
ENDBRANCH  34  35
ENDBRANCH   7  34
TORSDOF 12
ENDMDL
MODEL 2
REMARK VINA RESULT: -7.285644086      1.910      5.813
REMARK  12 active torsions:
REMARK  status: ('A' for Active; 'I' for Inactive)
REMARK    1  A    between atoms: N3_4  and  C2_6 
REMARK    2  A    between atoms: C2_6  and  C3_7 
REMARK    3  A    between atoms: C3_7  and  C4_8 
REMARK    4  A    between atoms: C4_8  and  C5_9 
REMARK    5  A    between atoms: C7_14  and  C8_15 
REMARK    6  A    between atoms: C8_15  and  O2_16 
REMARK    7  A    between atoms: N5_18  and  C9_19 
REMARK    8  A    between atoms: C9_19  and  C10_20 
REMARK    9  A    between atoms: C15_26  and  C16_27 
REMARK   10  A    between atoms: C16_27  and  C17_28 
REMARK   11  A    between atoms: C17_28  and  C18_29 
REMARK   12  A    between atoms: C18_29  and  N6_30 
ROOT
HETATM    1  C5  UNL     1      29.548   8.376  28.807  1.00  0.00     0.176 C 
HETATM    2  N4  UNL     1      29.482   9.119  30.038  1.00  0.00    -0.346 N 
ATOM      3  H4  UNL     1      30.314   9.059  30.624  1.00  0.00     0.163 HD
HETATM    4  C6  UNL     1      28.462   9.901  30.545  1.00  0.00     0.243 C 
HETATM    5  O1  UNL     1      28.320   9.836  31.830  1.00  0.00    -0.271 OA
HETATM    6  C7  UNL     1      27.496  10.797  29.920  1.00  0.00     0.202 C 
HETATM    7  N5  UNL     1      27.555  11.028  28.526  1.00  0.00    -0.334 N 
HETATM    8  C14 UNL     1      28.616  11.696  27.831  1.00  0.00     0.243 C 
HETATM    9  O3  UNL     1      28.300  12.563  26.958  1.00  0.00    -0.271 OA
HETATM   10  C15 UNL     1      30.058  11.457  28.050  1.00  0.00     0.176 C 
HETATM   11  N9  UNL     1      30.429  10.258  27.308  1.00  0.00    -0.346 N 
ATOM     12  H9  UNL     1      30.651  10.372  26.320  1.00  0.00     0.163 HD
HETATM   13  C20 UNL     1      30.507   8.954  27.840  1.00  0.00     0.241 C 
HETATM   14  O4  UNL     1      31.467   8.243  27.455  1.00  0.00    -0.271 OA
ENDROOT
BRANCH   1  15
HETATM   15  C4  UNL     1      30.016   6.971  29.117  1.00  0.00     0.036 C 
BRANCH  15  16
HETATM   16  C3  UNL     1      28.968   5.937  28.795  1.00  0.00     0.022 C 
BRANCH  16  17
HETATM   17  C2  UNL     1      29.676   4.800  28.072  1.00  0.00     0.122 C 
BRANCH  17  18
HETATM   18  N3  UNL     1      30.986   5.153  27.628  1.00  0.00    -0.367 N 
HETATM   19  C1  UNL     1      32.056   4.496  27.973  1.00  0.00     0.196 C 
HETATM   20  N1  UNL     1      32.029   3.366  28.824  1.00  0.00    -0.067 NA
HETATM   21  N2  UNL     1      33.293   4.965  27.452  1.00  0.00    -0.067 NA
ATOM     22  H3  UNL     1      31.089   5.958  27.010  1.00  0.00     0.161 HD
ENDBRANCH  17  18
ENDBRANCH  16  17
ENDBRANCH  15  16
ENDBRANCH   1  15
BRANCH   6  23
HETATM   23  C8  UNL     1      27.424  12.066  30.780  1.00  0.00     0.199 C 
BRANCH  23  24
HETATM   24  O2  UNL     1      28.632  12.482  31.263  1.00  0.00    -0.398 OA
ATOM     25  H2  UNL     1      28.711  13.425  31.353  1.00  0.00     0.209 HD
ENDBRANCH  23  24
ENDBRANCH   6  23
BRANCH  10  26
HETATM   26  C16 UNL     1      30.974  12.546  27.593  1.00  0.00     0.036 C 
BRANCH  26  27
HETATM   27  C17 UNL     1      32.411  12.453  27.956  1.00  0.00     0.022 C 
BRANCH  27  28
HETATM   28  C18 UNL     1      32.512  12.823  29.448  1.00  0.00     0.122 C 
BRANCH  28  29
HETATM   29  N6  UNL     1      33.234  11.783  30.151  1.00  0.00    -0.367 N 
HETATM   30  C19 UNL     1      32.727  11.153  31.149  1.00  0.00     0.196 C 
HETATM   31  N7  UNL     1      33.519  10.149  31.770  1.00  0.00    -0.067 NA
HETATM   32  N8  UNL     1      31.433  11.390  31.673  1.00  0.00    -0.067 NA
ATOM     33  H6  UNL     1      34.177  11.542  29.843  1.00  0.00     0.161 HD
ENDBRANCH  28  29
ENDBRANCH  27  28
ENDBRANCH  26  27
ENDBRANCH  10  26
BRANCH   7  34
HETATM   34  C9  UNL     1      26.448  10.558  27.702  1.00  0.00     0.131 C 
BRANCH  34  35
HETATM   35  C10 UNL     1      25.233  10.159  28.502  1.00  0.00     0.004 C 
HETATM   36  C11 UNL     1      24.156  11.243  28.545  1.00  0.00     0.006 C 
HETATM   37  C12 UNL     1      23.101  10.178  28.322  1.00  0.00     0.001 C 
HETATM   38  C13 UNL     1      24.205   9.325  27.723  1.00  0.00     0.006 C 
ENDBRANCH  34  35
ENDBRANCH   7  34
TORSDOF 12
ENDMDL
MODEL 3
REMARK VINA RESULT: -7.093457218      3.054      6.976
REMARK  12 active torsions:
REMARK  status: ('A' for Active; 'I' for Inactive)
REMARK    1  A    between atoms: N3_4  and  C2_6 
REMARK    2  A    between atoms: C2_6  and  C3_7 
REMARK    3  A    between atoms: C3_7  and  C4_8 
REMARK    4  A    between atoms: C4_8  and  C5_9 
REMARK    5  A    between atoms: C7_14  and  C8_15 
REMARK    6  A    between atoms: C8_15  and  O2_16 
REMARK    7  A    between atoms: N5_18  and  C9_19 
REMARK    8  A    between atoms: C9_19  and  C10_20 
REMARK    9  A    between atoms: C15_26  and  C16_27 
REMARK   10  A    between atoms: C16_27  and  C17_28 
REMARK   11  A    between atoms: C17_28  and  C18_29 
REMARK   12  A    between atoms: C18_29  and  N6_30 
ROOT
HETATM    1  C5  UNL     1      30.724  11.376  27.245  1.00  0.00     0.176 C 
HETATM    2  N4  UNL     1      31.193  10.016  27.227  1.00  0.00    -0.346 N 
ATOM      3  H4  UNL     1      32.180   9.903  26.996  1.00  0.00     0.163 HD
HETATM    4  C6  UNL     1      30.511   8.840  27.476  1.00  0.00     0.243 C 
HETATM    5  O1  UNL     1      30.870   7.841  26.738  1.00  0.00    -0.271 OA
HETATM    6  C7  UNL     1      29.450   8.491  28.414  1.00  0.00     0.202 C 
HETATM    7  N5  UNL     1      28.985   9.456  29.336  1.00  0.00    -0.334 N 
HETATM    8  C14 UNL     1      29.744  10.020  30.415  1.00  0.00     0.243 C 
HETATM    9  O3  UNL     1      29.183  10.113  31.550  1.00  0.00    -0.271 OA
HETATM   10  C15 UNL     1      31.136  10.505  30.310  1.00  0.00     0.176 C 
HETATM   11  N9  UNL     1      31.100  11.844  29.736  1.00  0.00    -0.346 N 
ATOM     12  H9  UNL     1      30.932  12.621  30.375  1.00  0.00     0.163 HD
HETATM   13  C20 UNL     1      31.277  12.158  28.372  1.00  0.00     0.241 C 
HETATM   14  O4  UNL     1      31.957  13.181  28.111  1.00  0.00    -0.271 OA
ENDROOT
BRANCH   1  15
HETATM   15  C4  UNL     1      31.167  12.055  25.967  1.00  0.00     0.036 C 
BRANCH  15  16
HETATM   16  C3  UNL     1      32.119  11.203  25.168  1.00  0.00     0.022 C 
BRANCH  16  17
HETATM   17  C2  UNL     1      33.326  12.072  24.846  1.00  0.00     0.122 C 
BRANCH  17  18
HETATM   18  N3  UNL     1      33.905  12.673  26.005  1.00  0.00    -0.367 N 
HETATM   19  C1  UNL     1      35.182  12.890  26.133  1.00  0.00     0.196 C 
HETATM   20  N1  UNL     1      36.127  12.551  25.136  1.00  0.00    -0.067 NA
HETATM   21  N2  UNL     1      35.611  13.497  27.344  1.00  0.00    -0.067 NA
ATOM     22  H3  UNL     1      33.287  12.946  26.770  1.00  0.00     0.161 HD
ENDBRANCH  17  18
ENDBRANCH  16  17
ENDBRANCH  15  16
ENDBRANCH   1  15
BRANCH   6  23
HETATM   23  C8  UNL     1      29.812   7.133  29.031  1.00  0.00     0.199 C 
BRANCH  23  24
HETATM   24  O2  UNL     1      28.733   6.391  29.417  1.00  0.00    -0.398 OA
ATOM     25  H2  UNL     1      28.177   6.111  28.699  1.00  0.00     0.209 HD
ENDBRANCH  23  24
ENDBRANCH   6  23
BRANCH  10  26
HETATM   26  C16 UNL     1      31.885  10.610  31.599  1.00  0.00     0.036 C 
BRANCH  26  27
HETATM   27  C17 UNL     1      33.345  10.878  31.543  1.00  0.00     0.022 C 
BRANCH  27  28
HETATM   28  C18 UNL     1      33.516  12.405  31.657  1.00  0.00     0.122 C 
BRANCH  28  29
HETATM   29  N6  UNL     1      32.777  12.884  32.806  1.00  0.00    -0.367 N 
HETATM   30  C19 UNL     1      31.930  13.847  32.721  1.00  0.00     0.196 C 
HETATM   31  N7  UNL     1      31.256  14.242  33.909  1.00  0.00    -0.067 NA
HETATM   32  N8  UNL     1      31.621  14.540  31.526  1.00  0.00    -0.067 NA
ATOM     33  H6  UNL     1      32.934  12.444  33.713  1.00  0.00     0.161 HD
ENDBRANCH  28  29
ENDBRANCH  27  28
ENDBRANCH  26  27
ENDBRANCH  10  26
BRANCH   7  34
HETATM   34  C9  UNL     1      27.614   9.933  29.203  1.00  0.00     0.131 C 
BRANCH  34  35
HETATM   35  C10 UNL     1      27.153  10.037  27.770  1.00  0.00     0.004 C 
HETATM   36  C11 UNL     1      25.688   9.643  27.577  1.00  0.00     0.006 C 
HETATM   37  C12 UNL     1      25.508  10.832  26.654  1.00  0.00     0.001 C 
HETATM   38  C13 UNL     1      26.713  11.446  27.344  1.00  0.00     0.006 C 
ENDBRANCH  34  35
ENDBRANCH   7  34
TORSDOF 12
ENDMDL
MODEL 4
REMARK VINA RESULT: -6.933094986      1.425      1.611
REMARK  12 active torsions:
REMARK  status: ('A' for Active; 'I' for Inactive)
REMARK    1  A    between atoms: N3_4  and  C2_6 
REMARK    2  A    between atoms: C2_6  and  C3_7 
REMARK    3  A    between atoms: C3_7  and  C4_8 
REMARK    4  A    between atoms: C4_8  and  C5_9 
REMARK    5  A    between atoms: C7_14  and  C8_15 
REMARK    6  A    between atoms: C8_15  and  O2_16 
REMARK    7  A    between atoms: N5_18  and  C9_19 
REMARK    8  A    between atoms: C9_19  and  C10_20 
REMARK    9  A    between atoms: C15_26  and  C16_27 
REMARK   10  A    between atoms: C16_27  and  C17_28 
REMARK   11  A    between atoms: C17_28  and  C18_29 
REMARK   12  A    between atoms: C18_29  and  N6_30 
ROOT
HETATM    1  C5  UNL     1      29.995   9.115  28.917  1.00  0.00     0.176 C 
HETATM    2  N4  UNL     1      30.103   9.826  27.671  1.00  0.00    -0.346 N 
ATOM      3  H4  UNL     1      29.673   9.362  26.870  1.00  0.00     0.163 HD
HETATM    4  C6  UNL     1      30.700  11.041  27.393  1.00  0.00     0.243 C 
HETATM    5  O1  UNL     1      31.288  11.103  26.243  1.00  0.00    -0.271 OA
HETATM    6  C7  UNL     1      30.806  12.286  28.144  1.00  0.00     0.202 C 
HETATM    7  N5  UNL     1      30.163  12.405  29.398  1.00  0.00    -0.334 N 
HETATM    8  C14 UNL     1      28.746  12.400  29.618  1.00  0.00     0.243 C 
HETATM    9  O3  UNL     1      28.265  13.275  30.404  1.00  0.00    -0.271 OA
HETATM   10  C15 UNL     1      27.794  11.455  29.000  1.00  0.00     0.176 C 
HETATM   11  N9  UNL     1      27.840  10.213  29.762  1.00  0.00    -0.346 N 
ATOM     12  H9  UNL     1      27.265  10.161  30.603  1.00  0.00     0.163 HD
HETATM   13  C20 UNL     1      28.611   9.077  29.437  1.00  0.00     0.241 C 
HETATM   14  O4  UNL     1      28.068   7.958  29.608  1.00  0.00    -0.271 OA
ENDROOT
BRANCH   1  15
HETATM   15  C4  UNL     1      30.430   7.683  28.694  1.00  0.00     0.036 C 
BRANCH  15  16
HETATM   16  C3  UNL     1      30.902   7.443  27.283  1.00  0.00     0.022 C 
BRANCH  16  17
HETATM   17  C2  UNL     1      31.294   5.975  27.192  1.00  0.00     0.122 C 
BRANCH  17  18
HETATM   18  N3  UNL     1      32.704   5.769  27.278  1.00  0.00    -0.367 N 
HETATM   19  C1  UNL     1      33.238   4.633  27.623  1.00  0.00     0.196 C 
HETATM   20  N1  UNL     1      32.474   3.486  27.948  1.00  0.00    -0.067 NA
HETATM   21  N2  UNL     1      34.658   4.577  27.666  1.00  0.00    -0.067 NA
ATOM     22  H3  UNL     1      33.324   6.549  27.059  1.00  0.00     0.161 HD
ENDBRANCH  17  18
ENDBRANCH  16  17
ENDBRANCH  15  16
ENDBRANCH   1  15
BRANCH   6  23
HETATM   23  C8  UNL     1      30.528  13.437  27.168  1.00  0.00     0.199 C 
BRANCH  23  24
HETATM   24  O2  UNL     1      29.410  13.261  26.402  1.00  0.00    -0.398 OA
ATOM     25  H2  UNL     1      29.497  13.575  25.510  1.00  0.00     0.209 HD
ENDBRANCH  23  24
ENDBRANCH   6  23
BRANCH  10  26
HETATM   26  C16 UNL     1      26.366  11.893  28.977  1.00  0.00     0.036 C 
BRANCH  26  27
HETATM   27  C17 UNL     1      25.324  10.878  28.673  1.00  0.00     0.022 C 
BRANCH  27  28
HETATM   28  C18 UNL     1      24.179  11.624  27.962  1.00  0.00     0.122 C 
BRANCH  28  29
HETATM   29  N6  UNL     1      24.552  11.872  26.585  1.00  0.00    -0.367 N 
HETATM   30  C19 UNL     1      24.244  11.062  25.637  1.00  0.00     0.196 C 
HETATM   31  N7  UNL     1      24.657  11.399  24.319  1.00  0.00    -0.067 NA
HETATM   32  N8  UNL     1      23.521   9.858  25.814  1.00  0.00    -0.067 NA
ATOM     33  H6  UNL     1      25.076  12.718  26.361  1.00  0.00     0.161 HD
ENDBRANCH  28  29
ENDBRANCH  27  28
ENDBRANCH  26  27
ENDBRANCH  10  26
BRANCH   7  34
HETATM   34  C9  UNL     1      30.994  12.550  30.588  1.00  0.00     0.131 C 
BRANCH  34  35
HETATM   35  C10 UNL     1      32.345  11.893  30.459  1.00  0.00     0.004 C 
HETATM   36  C11 UNL     1      33.392  12.473  31.410  1.00  0.00     0.006 C 
HETATM   37  C12 UNL     1      33.868  11.067  31.715  1.00  0.00     0.001 C 
HETATM   38  C13 UNL     1      32.499  10.592  31.262  1.00  0.00     0.006 C 
ENDBRANCH  34  35
ENDBRANCH   7  34
TORSDOF 12
ENDMDL
MODEL 5
REMARK VINA RESULT: -6.910816684      2.114      6.576
REMARK  12 active torsions:
REMARK  status: ('A' for Active; 'I' for Inactive)
REMARK    1  A    between atoms: N3_4  and  C2_6 
REMARK    2  A    between atoms: C2_6  and  C3_7 
REMARK    3  A    between atoms: C3_7  and  C4_8 
REMARK    4  A    between atoms: C4_8  and  C5_9 
REMARK    5  A    between atoms: C7_14  and  C8_15 
REMARK    6  A    between atoms: C8_15  and  O2_16 
REMARK    7  A    between atoms: N5_18  and  C9_19 
REMARK    8  A    between atoms: C9_19  and  C10_20 
REMARK    9  A    between atoms: C15_26  and  C16_27 
REMARK   10  A    between atoms: C16_27  and  C17_28 
REMARK   11  A    between atoms: C17_28  and  C18_29 
REMARK   12  A    between atoms: C18_29  and  N6_30 
ROOT
HETATM    1  C5  UNL     1      27.630  11.224  29.315  1.00  0.00     0.176 C 
HETATM    2  N4  UNL     1      28.607  11.334  30.366  1.00  0.00    -0.346 N 
ATOM      3  H4  UNL     1      28.278  11.061  31.292  1.00  0.00     0.163 HD
HETATM    4  C6  UNL     1      29.923  11.752  30.311  1.00  0.00     0.243 C 
HETATM    5  O1  UNL     1      30.318  12.428  31.341  1.00  0.00    -0.271 OA
HETATM    6  C7  UNL     1      30.974  11.587  29.314  1.00  0.00     0.202 C 
HETATM    7  N5  UNL     1      30.724  10.818  28.153  1.00  0.00    -0.334 N 
HETATM    8  C14 UNL     1      30.478   9.406  28.119  1.00  0.00     0.243 C 
HETATM    9  O3  UNL     1      31.082   8.719  27.239  1.00  0.00    -0.271 OA
HETATM   10  C15 UNL     1      29.572   8.680  29.034  1.00  0.00     0.176 C 
HETATM   11  N9  UNL     1      28.210   8.852  28.542  1.00  0.00    -0.346 N 
ATOM     12  H9  UNL     1      27.896   8.216  27.809  1.00  0.00     0.163 HD
HETATM   13  C20 UNL     1      27.290   9.822  28.992  1.00  0.00     0.241 C 
HETATM   14  O4  UNL     1      26.098   9.451  29.125  1.00  0.00    -0.271 OA
ENDROOT
BRANCH   1  15
HETATM   15  C4  UNL     1      26.356  11.902  29.770  1.00  0.00     0.036 C 
BRANCH  15  16
HETATM   16  C3  UNL     1      25.887  12.950  28.794  1.00  0.00     0.022 C 
BRANCH  16  17
HETATM   17  C2  UNL     1      24.550  12.475  28.244  1.00  0.00     0.122 C 
BRANCH  17  18
HETATM   18  N3  UNL     1      24.684  11.655  27.082  1.00  0.00    -0.367 N 
HETATM   19  C1  UNL     1      23.829  10.727  26.762  1.00  0.00     0.196 C 
HETATM   20  N1  UNL     1      22.679  10.436  27.534  1.00  0.00    -0.067 NA
HETATM   21  N2  UNL     1      24.095   9.991  25.575  1.00  0.00    -0.067 NA
ATOM     22  H3  UNL     1      25.489  11.805  26.473  1.00  0.00     0.161 HD
ENDBRANCH  17  18
ENDBRANCH  16  17
ENDBRANCH  15  16
ENDBRANCH   1  15
BRANCH   6  23
HETATM   23  C8  UNL     1      32.263  11.221  30.061  1.00  0.00     0.199 C 
BRANCH  23  24
HETATM   24  O2  UNL     1      32.140  10.144  30.893  1.00  0.00    -0.398 OA
ATOM     25  H2  UNL     1      31.567  10.292  31.637  1.00  0.00     0.209 HD
ENDBRANCH  23  24
ENDBRANCH   6  23
BRANCH  10  26
HETATM   26  C16 UNL     1      29.805   7.208  29.146  1.00  0.00     0.036 C 
BRANCH  26  27
HETATM   27  C17 UNL     1      28.893   6.294  28.411  1.00  0.00     0.022 C 
BRANCH  27  28
HETATM   28  C18 UNL     1      29.696   5.012  28.121  1.00  0.00     0.122 C 
BRANCH  28  29
HETATM   29  N6  UNL     1      30.998   5.372  27.599  1.00  0.00    -0.367 N 
HETATM   30  C19 UNL     1      32.046   4.665  27.829  1.00  0.00     0.196 C 
HETATM   31  N7  UNL     1      33.277   5.104  27.270  1.00  0.00    -0.067 NA
HETATM   32  N8  UNL     1      32.059   3.477  28.600  1.00  0.00    -0.067 NA
ATOM     33  H6  UNL     1      31.087   6.214  27.031  1.00  0.00     0.161 HD
ENDBRANCH  28  29
ENDBRANCH  27  28
ENDBRANCH  26  27
ENDBRANCH  10  26
BRANCH   7  34
HETATM   34  C9  UNL     1      30.713  11.499  26.864  1.00  0.00     0.131 C 
BRANCH  34  35
HETATM   35  C10 UNL     1      31.991  12.245  26.571  1.00  0.00     0.004 C 
HETATM   36  C11 UNL     1      33.175  11.324  26.275  1.00  0.00     0.006 C 
HETATM   37  C12 UNL     1      33.576  12.236  25.132  1.00  0.00     0.001 C 
HETATM   38  C13 UNL     1      32.135  12.713  25.115  1.00  0.00     0.006 C 
ENDBRANCH  34  35
ENDBRANCH   7  34
TORSDOF 12
ENDMDL
