MODEL 1
REMARK VINA RESULT: -7.172340148      0.000      0.000
REMARK  10 active torsions:
REMARK  status: ('A' for Active; 'I' for Inactive)
REMARK    1  A    between atoms: C2_2  and  C3_3 
REMARK    2  A    between atoms: C3_3  and  C4_4 
REMARK       I    between atoms: C4_4  and  N1_6 
REMARK       I    between atoms: N1_6  and  C5_8 
REMARK       I    between atoms: C5_8  and  N2_9 
REMARK       I    between atoms: C5_8  and  N8_32 
REMARK       I    between atoms: N2_9  and  C6_11 
REMARK    3  A    between atoms: N4_13  and  C7_15 
REMARK    4  A    between atoms: C7_15  and  C8_16 
REMARK    5  A    between atoms: C8_16  and  C9_17 
REMARK    6  A    between atoms: C9_17  and  C10_18 
REMARK    7  A    between atoms: C10_18  and  C11_19 
REMARK    8  A    between atoms: C11_19  and  C12_20 
REMARK    9  A    between atoms: C12_20  and  C13_21 
REMARK       I    between atoms: C13_21  and  N5_23 
REMARK       I    between atoms: N6_26  and  C16_27 
REMARK   10  A    between atoms: N8_32  and  N9_34 
REMARK       I    between atoms: N9_34  and  C19_35 
ROOT
HETATM    1  C4  UNL     1      30.056   6.019  28.419  1.00  0.00     0.239 C 
HETATM    2  O1  UNL     1      29.396   5.497  29.333  1.00  0.00    -0.272 OA
HETATM    3  N1  UNL     1      29.903   7.469  28.230  1.00  0.00    -0.157 N 
ATOM      4  H1  UNL     1      30.425   7.968  27.510  1.00  0.00     0.187 HD
HETATM    5  C5  UNL     1      29.013   8.133  29.074  1.00  0.00     0.712 C 
HETATM    6  N2  UNL     1      28.277   8.689  29.771  1.00  0.00    -0.161 N 
ATOM      7  H2  UNL     1      27.882   7.979  30.388  1.00  0.00     0.187 HD
HETATM    8  C6  UNL     1      27.706   9.856  30.132  1.00  0.00     0.202 C 
HETATM    9  N3  UNL     1      27.973  10.542  31.384  1.00  0.00    -0.063 NA
HETATM   10  N4  UNL     1      26.848  10.458  29.348  1.00  0.00    -0.364 N 
ATOM     11  H4  UNL     1      26.611  10.034  28.452  1.00  0.00     0.162 HD
HETATM   12  N8  UNL     1      29.365   9.689  28.290  1.00  0.00    -0.062 N 
ATOM     13  H8  UNL     1      28.847  10.139  27.536  1.00  0.00     0.221 HD
ENDROOT
BRANCH  10  14
HETATM   14  C7  UNL     1      26.227  11.713  29.724  1.00  0.00     0.122 C 
BRANCH  14  15
HETATM   15  C8  UNL     1      26.017  12.516  28.446  1.00  0.00     0.020 C 
BRANCH  15  16
HETATM   16  C9  UNL     1      26.270  11.583  27.287  1.00  0.00     0.002 C 
BRANCH  16  17
HETATM   17  C10 UNL     1      25.097  11.371  26.400  1.00  0.00     0.001 C 
BRANCH  17  18
HETATM   18  C11 UNL     1      24.621   9.965  26.253  1.00  0.00     0.009 C 
BRANCH  18  19
HETATM   19  C12 UNL     1      23.225   9.763  26.793  1.00  0.00     0.103 C 
BRANCH  19  20
HETATM   20  C13 UNL     1      23.155  10.127  28.227  1.00  0.00     0.219 C 
HETATM   21  O2  UNL     1      23.785   9.350  29.031  1.00  0.00    -0.273 OA
HETATM   22  N5  UNL     1      22.460  11.240  28.732  1.00  0.00    -0.349 N 
HETATM   23  C14 UNL     1      22.445  11.492  30.153  1.00  0.00     0.145 C 
HETATM   24  C18 UNL     1      21.745  12.171  27.896  1.00  0.00     0.145 C 
HETATM   25  C15 UNL     1      22.798  12.921  30.479  1.00  0.00     0.147 C 
HETATM   26  N6  UNL     1      22.720  13.816  29.386  1.00  0.00    -0.333 N 
HETATM   27  C16 UNL     1      22.956  15.212  29.637  1.00  0.00     0.330 C 
HETATM   28  C17 UNL     1      22.428  13.490  28.007  1.00  0.00     0.147 C 
HETATM   29  N7  UNL     1      23.254  15.594  30.969  1.00  0.00    -0.040 NA
HETATM   30  O3  UNL     1      22.905  16.082  28.735  1.00  0.00    -0.251 OA
ENDBRANCH  19  20
ENDBRANCH  18  19
ENDBRANCH  17  18
ENDBRANCH  16  17
ENDBRANCH  15  16
ENDBRANCH  14  15
ENDBRANCH  10  14
BRANCH  12  31
HETATM   31  N9  UNL     1      30.404  10.117  28.876  1.00  0.00    -0.280 NA
HETATM   32  C19 UNL     1      31.388  10.551  29.385  1.00  0.00     0.299 C 
HETATM   33  N10 UNL     1      32.238  11.565  28.828  1.00  0.00    -0.051 NA
HETATM   34  N11 UNL     1      31.824  10.080  30.684  1.00  0.00    -0.051 NA
ENDBRANCH  12  31
BRANCH   1  35
HETATM   35  C3  UNL     1      30.973   5.302  27.523  1.00  0.00     0.130 C 
BRANCH  35  36
HETATM   36  C2  UNL     1      31.929   4.487  28.290  1.00  0.00    -0.028 C 
HETATM   37  C1  UNL     1      33.122   4.260  27.773  1.00  0.00     0.007 C 
ENDBRANCH  35  36
ENDBRANCH   1  35
TORSDOF 10
ENDMDL
MODEL 2
REMARK VINA RESULT: -7.040044627      3.152      7.303
REMARK  10 active torsions:
REMARK  status: ('A' for Active; 'I' for Inactive)
REMARK    1  A    between atoms: C2_2  and  C3_3 
REMARK    2  A    between atoms: C3_3  and  C4_4 
REMARK       I    between atoms: C4_4  and  N1_6 
REMARK       I    between atoms: N1_6  and  C5_8 
REMARK       I    between atoms: C5_8  and  N2_9 
REMARK       I    between atoms: C5_8  and  N8_32 
REMARK       I    between atoms: N2_9  and  C6_11 
REMARK    3  A    between atoms: N4_13  and  C7_15 
REMARK    4  A    between atoms: C7_15  and  C8_16 
REMARK    5  A    between atoms: C8_16  and  C9_17 
REMARK    6  A    between atoms: C9_17  and  C10_18 
REMARK    7  A    between atoms: C10_18  and  C11_19 
REMARK    8  A    between atoms: C11_19  and  C12_20 
REMARK    9  A    between atoms: C12_20  and  C13_21 
REMARK       I    between atoms: C13_21  and  N5_23 
REMARK       I    between atoms: N6_26  and  C16_27 
REMARK   10  A    between atoms: N8_32  and  N9_34 
REMARK       I    between atoms: N9_34  and  C19_35 
ROOT
HETATM    1  C4  UNL     1      28.844   7.501  28.085  1.00  0.00     0.239 C 
HETATM    2  O1  UNL     1      29.532   7.897  27.129  1.00  0.00    -0.272 OA
HETATM    3  N1  UNL     1      27.928   8.476  28.695  1.00  0.00    -0.157 N 
ATOM      4  H1  UNL     1      27.321   8.218  29.473  1.00  0.00     0.187 HD
HETATM    5  C5  UNL     1      27.923   9.767  28.167  1.00  0.00     0.712 C 
HETATM    6  N2  UNL     1      27.915  10.838  27.733  1.00  0.00    -0.161 N 
ATOM      7  H2  UNL     1      28.604  10.843  26.980  1.00  0.00     0.187 HD
HETATM    8  C6  UNL     1      27.402  12.085  27.778  1.00  0.00     0.202 C 
HETATM    9  N3  UNL     1      26.541  12.651  26.755  1.00  0.00    -0.063 NA
HETATM   10  N4  UNL     1      27.662  12.885  28.780  1.00  0.00    -0.364 N 
ATOM     11  H4  UNL     1      28.262  12.556  29.537  1.00  0.00     0.162 HD
HETATM   12  N8  UNL     1      26.676  10.282  29.325  1.00  0.00    -0.062 N 
ATOM     13  H8  UNL     1      26.813  10.745  30.223  1.00  0.00     0.221 HD
ENDROOT
BRANCH  10  14
HETATM   14  C7  UNL     1      27.118  14.227  28.842  1.00  0.00     0.122 C 
BRANCH  14  15
HETATM   15  C8  UNL     1      28.053  15.057  29.714  1.00  0.00     0.020 C 
BRANCH  15  16
HETATM   16  C9  UNL     1      29.338  15.235  28.945  1.00  0.00     0.002 C 
BRANCH  16  17
HETATM   17  C10 UNL     1      30.565  15.216  29.781  1.00  0.00     0.001 C 
BRANCH  17  18
HETATM   18  C11 UNL     1      30.370  14.990  31.243  1.00  0.00     0.009 C 
BRANCH  18  19
HETATM   19  C12 UNL     1      31.147  13.802  31.759  1.00  0.00     0.103 C 
BRANCH  19  20
HETATM   20  C13 UNL     1      30.741  12.561  31.059  1.00  0.00     0.219 C 
HETATM   21  O2  UNL     1      29.503  12.242  31.164  1.00  0.00    -0.273 OA
HETATM   22  N5  UNL     1      31.613  11.747  30.314  1.00  0.00    -0.349 N 
HETATM   23  C14 UNL     1      31.112  10.548  29.685  1.00  0.00     0.145 C 
HETATM   24  C18 UNL     1      33.011  12.045  30.132  1.00  0.00     0.145 C 
HETATM   25  C15 UNL     1      31.520  10.455  28.237  1.00  0.00     0.147 C 
HETATM   26  N6  UNL     1      32.576  11.318  27.861  1.00  0.00    -0.333 N 
HETATM   27  C16 UNL     1      33.080  11.224  26.518  1.00  0.00     0.330 C 
HETATM   28  C17 UNL     1      33.227  12.314  28.683  1.00  0.00     0.147 C 
HETATM   29  N7  UNL     1      32.477  10.270  25.660  1.00  0.00    -0.040 NA
HETATM   30  O3  UNL     1      34.016  11.942  26.092  1.00  0.00    -0.251 OA
ENDBRANCH  19  20
ENDBRANCH  18  19
ENDBRANCH  17  18
ENDBRANCH  16  17
ENDBRANCH  15  16
ENDBRANCH  14  15
ENDBRANCH  10  14
BRANCH  12  31
HETATM   31  N9  UNL     1      25.579   9.945  28.788  1.00  0.00    -0.280 NA
HETATM   32  C19 UNL     1      24.526   9.631  28.331  1.00  0.00     0.299 C 
HETATM   33  N10 UNL     1      23.309   9.466  29.075  1.00  0.00    -0.051 NA
HETATM   34  N11 UNL     1      24.373   9.392  26.910  1.00  0.00    -0.051 NA
ENDBRANCH  12  31
BRANCH   1  35
HETATM   35  C3  UNL     1      28.877   6.144  28.645  1.00  0.00     0.130 C 
BRANCH  35  36
HETATM   36  C2  UNL     1      30.258   5.643  28.733  1.00  0.00    -0.028 C 
HETATM   37  C1  UNL     1      30.629   4.672  27.920  1.00  0.00     0.007 C 
ENDBRANCH  35  36
ENDBRANCH   1  35
TORSDOF 10
ENDMDL
MODEL 3
REMARK VINA RESULT: -6.981699673      3.971      7.383
REMARK  10 active torsions:
REMARK  status: ('A' for Active; 'I' for Inactive)
REMARK    1  A    between atoms: C2_2  and  C3_3 
REMARK    2  A    between atoms: C3_3  and  C4_4 
REMARK       I    between atoms: C4_4  and  N1_6 
REMARK       I    between atoms: N1_6  and  C5_8 
REMARK       I    between atoms: C5_8  and  N2_9 
REMARK       I    between atoms: C5_8  and  N8_32 
REMARK       I    between atoms: N2_9  and  C6_11 
REMARK    3  A    between atoms: N4_13  and  C7_15 
REMARK    4  A    between atoms: C7_15  and  C8_16 
REMARK    5  A    between atoms: C8_16  and  C9_17 
REMARK    6  A    between atoms: C9_17  and  C10_18 
REMARK    7  A    between atoms: C10_18  and  C11_19 
REMARK    8  A    between atoms: C11_19  and  C12_20 
REMARK    9  A    between atoms: C12_20  and  C13_21 
REMARK       I    between atoms: C13_21  and  N5_23 
REMARK       I    between atoms: N6_26  and  C16_27 
REMARK   10  A    between atoms: N8_32  and  N9_34 
REMARK       I    between atoms: N9_34  and  C19_35 
ROOT
HETATM    1  C4  UNL     1      29.868   7.116  29.006  1.00  0.00     0.239 C 
HETATM    2  O1  UNL     1      30.923   7.720  28.749  1.00  0.00    -0.272 OA
HETATM    3  N1  UNL     1      28.708   7.933  29.391  1.00  0.00    -0.157 N 
ATOM      4  H1  UNL     1      27.805   7.508  29.599  1.00  0.00     0.187 HD
HETATM    5  C5  UNL     1      28.893   9.314  29.459  1.00  0.00     0.712 C 
HETATM    6  N2  UNL     1      29.041  10.459  29.518  1.00  0.00    -0.161 N 
ATOM      7  H2  UNL     1      30.017  10.630  29.275  1.00  0.00     0.187 HD
HETATM    8  C6  UNL     1      28.500  11.669  29.765  1.00  0.00     0.202 C 
HETATM    9  N3  UNL     1      28.254  12.677  28.748  1.00  0.00    -0.063 NA
HETATM   10  N4  UNL     1      28.155  12.019  30.978  1.00  0.00    -0.364 N 
ATOM     11  H4  UNL     1      28.299  11.362  31.744  1.00  0.00     0.162 HD
HETATM   12  N8  UNL     1      27.198   9.561  29.935  1.00  0.00    -0.062 N 
ATOM     13  H8  UNL     1      26.823   9.653  30.880  1.00  0.00     0.221 HD
ENDROOT
BRANCH  10  14
HETATM   14  C7  UNL     1      27.573  13.317  31.258  1.00  0.00     0.122 C 
BRANCH  14  15
HETATM   15  C8  UNL     1      28.678  14.198  31.826  1.00  0.00     0.020 C 
BRANCH  15  16
HETATM   16  C9  UNL     1      28.069  15.015  32.938  1.00  0.00     0.002 C 
BRANCH  16  17
HETATM   17  C10 UNL     1      28.908  16.150  33.400  1.00  0.00     0.001 C 
BRANCH  17  18
HETATM   18  C11 UNL     1      30.041  15.812  34.310  1.00  0.00     0.009 C 
BRANCH  18  19
HETATM   19  C12 UNL     1      31.380  15.842  33.611  1.00  0.00     0.103 C 
BRANCH  19  20
HETATM   20  C13 UNL     1      31.866  14.469  33.342  1.00  0.00     0.219 C 
HETATM   21  O2  UNL     1      31.657  13.611  34.273  1.00  0.00    -0.273 OA
HETATM   22  N5  UNL     1      32.520  14.074  32.161  1.00  0.00    -0.349 N 
HETATM   23  C14 UNL     1      32.967  12.710  32.011  1.00  0.00     0.145 C 
HETATM   24  C18 UNL     1      32.776  14.970  31.062  1.00  0.00     0.145 C 
HETATM   25  C15 UNL     1      32.538  12.115  30.694  1.00  0.00     0.147 C 
HETATM   26  N6  UNL     1      32.120  13.057  29.725  1.00  0.00    -0.333 N 
HETATM   27  C16 UNL     1      31.781  12.573  28.414  1.00  0.00     0.330 C 
HETATM   28  C17 UNL     1      31.984  14.487  29.896  1.00  0.00     0.147 C 
HETATM   29  N7  UNL     1      31.888  11.178  28.186  1.00  0.00    -0.040 NA
HETATM   30  O3  UNL     1      31.404  13.330  27.488  1.00  0.00    -0.251 OA
ENDBRANCH  19  20
ENDBRANCH  18  19
ENDBRANCH  17  18
ENDBRANCH  16  17
ENDBRANCH  15  16
ENDBRANCH  14  15
ENDBRANCH  10  14
BRANCH  12  31
HETATM   31  N9  UNL     1      26.559   9.595  28.843  1.00  0.00    -0.280 NA
HETATM   32  C19 UNL     1      25.983   9.673  27.804  1.00  0.00     0.299 C 
HETATM   33  N10 UNL     1      26.149  10.718  26.833  1.00  0.00    -0.051 NA
HETATM   34  N11 UNL     1      25.029   8.658  27.404  1.00  0.00    -0.051 NA
ENDBRANCH  12  31
BRANCH   1  35
HETATM   35  C3  UNL     1      29.694   5.659  28.951  1.00  0.00     0.130 C 
BRANCH  35  36
HETATM   36  C2  UNL     1      30.518   5.069  27.883  1.00  0.00    -0.028 C 
HETATM   37  C1  UNL     1      31.663   4.500  28.211  1.00  0.00     0.007 C 
ENDBRANCH  35  36
ENDBRANCH   1  35
TORSDOF 10
ENDMDL
MODEL 4
REMARK VINA RESULT: -6.969677967      3.328      7.069
REMARK  10 active torsions:
REMARK  status: ('A' for Active; 'I' for Inactive)
REMARK    1  A    between atoms: C2_2  and  C3_3 
REMARK    2  A    between atoms: C3_3  and  C4_4 
REMARK       I    between atoms: C4_4  and  N1_6 
REMARK       I    between atoms: N1_6  and  C5_8 
REMARK       I    between atoms: C5_8  and  N2_9 
REMARK       I    between atoms: C5_8  and  N8_32 
REMARK       I    between atoms: N2_9  and  C6_11 
REMARK    3  A    between atoms: N4_13  and  C7_15 
REMARK    4  A    between atoms: C7_15  and  C8_16 
REMARK    5  A    between atoms: C8_16  and  C9_17 
REMARK    6  A    between atoms: C9_17  and  C10_18 
REMARK    7  A    between atoms: C10_18  and  C11_19 
REMARK    8  A    between atoms: C11_19  and  C12_20 
REMARK    9  A    between atoms: C12_20  and  C13_21 
REMARK       I    between atoms: C13_21  and  N5_23 
REMARK       I    between atoms: N6_26  and  C16_27 
REMARK   10  A    between atoms: N8_32  and  N9_34 
REMARK       I    between atoms: N9_34  and  C19_35 
ROOT
HETATM    1  C4  UNL     1      28.944   7.508  28.000  1.00  0.00     0.239 C 
HETATM    2  O1  UNL     1      29.808   8.111  27.341  1.00  0.00    -0.272 OA
HETATM    3  N1  UNL     1      27.800   8.298  28.480  1.00  0.00    -0.157 N 
ATOM      4  H1  UNL     1      27.044   7.868  29.013  1.00  0.00     0.187 HD
HETATM    5  C5  UNL     1      27.791   9.660  28.176  1.00  0.00     0.712 C 
HETATM    6  N2  UNL     1      27.778  10.789  27.928  1.00  0.00    -0.161 N 
ATOM      7  H2  UNL     1      28.633  10.972  27.402  1.00  0.00     0.187 HD
HETATM    8  C6  UNL     1      27.138  11.972  28.024  1.00  0.00     0.202 C 
HETATM    9  N3  UNL     1      26.514  12.655  26.905  1.00  0.00    -0.063 NA
HETATM   10  N4  UNL     1      27.041  12.595  29.170  1.00  0.00    -0.364 N 
ATOM     11  H4  UNL     1      27.457  12.175  30.002  1.00  0.00     0.162 HD
HETATM   12  N8  UNL     1      26.238   9.879  29.015  1.00  0.00    -0.062 N 
ATOM     13  H8  UNL     1      26.087  10.183  29.977  1.00  0.00     0.221 HD
ENDROOT
BRANCH  10  14
HETATM   14  C7  UNL     1      26.357  13.868  29.288  1.00  0.00     0.122 C 
BRANCH  14  15
HETATM   15  C8  UNL     1      25.404  13.764  30.473  1.00  0.00     0.020 C 
BRANCH  15  16
HETATM   16  C9  UNL     1      26.208  13.263  31.647  1.00  0.00     0.002 C 
BRANCH  16  17
HETATM   17  C10 UNL     1      26.027  14.045  32.897  1.00  0.00     0.001 C 
BRANCH  17  18
HETATM   18  C11 UNL     1      27.227  14.772  33.405  1.00  0.00     0.009 C 
BRANCH  18  19
HETATM   19  C12 UNL     1      28.159  15.205  32.298  1.00  0.00     0.103 C 
BRANCH  19  20
HETATM   20  C13 UNL     1      29.574  14.999  32.688  1.00  0.00     0.219 C 
HETATM   21  O2  UNL     1      29.905  15.452  33.842  1.00  0.00    -0.273 OA
HETATM   22  N5  UNL     1      30.534  14.357  31.886  1.00  0.00    -0.349 N 
HETATM   23  C14 UNL     1      31.891  14.225  32.360  1.00  0.00     0.145 C 
HETATM   24  C18 UNL     1      30.239  13.804  30.589  1.00  0.00     0.145 C 
HETATM   25  C15 UNL     1      32.405  12.814  32.223  1.00  0.00     0.147 C 
HETATM   26  N6  UNL     1      31.649  11.989  31.357  1.00  0.00    -0.333 N 
HETATM   27  C16 UNL     1      32.127  10.656  31.106  1.00  0.00     0.330 C 
HETATM   28  C17 UNL     1      30.418  12.328  30.678  1.00  0.00     0.147 C 
HETATM   29  N7  UNL     1      33.327  10.261  31.749  1.00  0.00    -0.040 NA
HETATM   30  O3  UNL     1      31.530   9.852  30.351  1.00  0.00    -0.251 OA
ENDBRANCH  19  20
ENDBRANCH  18  19
ENDBRANCH  17  18
ENDBRANCH  16  17
ENDBRANCH  15  16
ENDBRANCH  14  15
ENDBRANCH  10  14
BRANCH  12  31
HETATM   31  N9  UNL     1      25.361   9.574  28.154  1.00  0.00    -0.280 NA
HETATM   32  C19 UNL     1      24.517   9.253  27.379  1.00  0.00     0.299 C 
HETATM   33  N10 UNL     1      23.506   8.261  27.610  1.00  0.00    -0.051 NA
HETATM   34  N11 UNL     1      24.426   9.880  26.075  1.00  0.00    -0.051 NA
ENDBRANCH  12  31
BRANCH   1  35
HETATM   35  C3  UNL     1      28.978   6.078  28.331  1.00  0.00     0.130 C 
BRANCH  35  36
HETATM   36  C2  UNL     1      30.339   5.655  28.702  1.00  0.00    -0.028 C 
HETATM   37  C1  UNL     1      30.953   4.767  27.943  1.00  0.00     0.007 C 
ENDBRANCH  35  36
ENDBRANCH   1  35
TORSDOF 10
ENDMDL
MODEL 5
REMARK VINA RESULT: -6.865827528      3.621      7.236
REMARK  10 active torsions:
REMARK  status: ('A' for Active; 'I' for Inactive)
REMARK    1  A    between atoms: C2_2  and  C3_3 
REMARK    2  A    between atoms: C3_3  and  C4_4 
REMARK       I    between atoms: C4_4  and  N1_6 
REMARK       I    between atoms: N1_6  and  C5_8 
REMARK       I    between atoms: C5_8  and  N2_9 
REMARK       I    between atoms: C5_8  and  N8_32 
REMARK       I    between atoms: N2_9  and  C6_11 
REMARK    3  A    between atoms: N4_13  and  C7_15 
REMARK    4  A    between atoms: C7_15  and  C8_16 
REMARK    5  A    between atoms: C8_16  and  C9_17 
REMARK    6  A    between atoms: C9_17  and  C10_18 
REMARK    7  A    between atoms: C10_18  and  C11_19 
REMARK    8  A    between atoms: C11_19  and  C12_20 
REMARK    9  A    between atoms: C12_20  and  C13_21 
REMARK       I    between atoms: C13_21  and  N5_23 
REMARK       I    between atoms: N6_26  and  C16_27 
REMARK   10  A    between atoms: N8_32  and  N9_34 
REMARK       I    between atoms: N9_34  and  C19_35 
ROOT
HETATM    1  C4  UNL     1      29.821   7.177  29.041  1.00  0.00     0.239 C 
HETATM    2  O1  UNL     1      30.886   7.758  28.770  1.00  0.00    -0.272 OA
HETATM    3  N1  UNL     1      28.672   8.023  29.397  1.00  0.00    -0.157 N 
ATOM      4  H1  UNL     1      27.762   7.618  29.614  1.00  0.00     0.187 HD
HETATM    5  C5  UNL     1      28.878   9.403  29.424  1.00  0.00     0.712 C 
HETATM    6  N2  UNL     1      29.044  10.547  29.449  1.00  0.00    -0.161 N 
ATOM      7  H2  UNL     1      30.023  10.696  29.205  1.00  0.00     0.187 HD
HETATM    8  C6  UNL     1      28.520  11.772  29.658  1.00  0.00     0.202 C 
HETATM    9  N3  UNL     1      28.293  12.752  28.611  1.00  0.00    -0.063 NA
HETATM   10  N4  UNL     1      28.176  12.163  30.859  1.00  0.00    -0.364 N 
ATOM     11  H4  UNL     1      28.308  11.527  31.645  1.00  0.00     0.162 HD
HETATM   12  N8  UNL     1      27.186   9.689  29.887  1.00  0.00    -0.062 N 
ATOM     13  H8  UNL     1      26.809   9.815  30.826  1.00  0.00     0.221 HD
ENDROOT
BRANCH  10  14
HETATM   14  C7  UNL     1      27.612  13.477  31.098  1.00  0.00     0.122 C 
BRANCH  14  15
HETATM   15  C8  UNL     1      28.541  14.201  32.064  1.00  0.00     0.020 C 
BRANCH  15  16
HETATM   16  C9  UNL     1      29.414  15.116  31.242  1.00  0.00     0.002 C 
BRANCH  16  17
HETATM   17  C10 UNL     1      30.848  15.114  31.629  1.00  0.00     0.001 C 
BRANCH  17  18
HETATM   18  C11 UNL     1      31.218  14.271  32.803  1.00  0.00     0.009 C 
BRANCH  18  19
HETATM   19  C12 UNL     1      32.376  13.345  32.514  1.00  0.00     0.103 C 
BRANCH  19  20
HETATM   20  C13 UNL     1      32.040  12.403  31.422  1.00  0.00     0.219 C 
HETATM   21  O2  UNL     1      31.114  11.554  31.684  1.00  0.00    -0.273 OA
HETATM   22  N5  UNL     1      32.662  12.393  30.160  1.00  0.00    -0.349 N 
HETATM   23  C14 UNL     1      32.266  11.417  29.174  1.00  0.00     0.145 C 
HETATM   24  C18 UNL     1      33.695  13.323  29.781  1.00  0.00     0.145 C 
HETATM   25  C15 UNL     1      31.985  12.047  27.834  1.00  0.00     0.147 C 
HETATM   26  N6  UNL     1      32.491  13.360  27.677  1.00  0.00    -0.333 N 
HETATM   27  C16 UNL     1      32.341  13.994  26.396  1.00  0.00     0.330 C 
HETATM   28  C17 UNL     1      33.156  14.166  28.677  1.00  0.00     0.147 C 
HETATM   29  N7  UNL     1      31.690  13.256  25.375  1.00  0.00    -0.040 NA
HETATM   30  O3  UNL     1      32.760  15.152  26.159  1.00  0.00    -0.251 OA
ENDBRANCH  19  20
ENDBRANCH  18  19
ENDBRANCH  17  18
ENDBRANCH  16  17
ENDBRANCH  15  16
ENDBRANCH  14  15
ENDBRANCH  10  14
BRANCH  12  31
HETATM   31  N9  UNL     1      26.550   9.700  28.791  1.00  0.00    -0.280 NA
HETATM   32  C19 UNL     1      25.929   9.666  27.776  1.00  0.00     0.299 C 
HETATM   33  N10 UNL     1      24.981   8.651  27.411  1.00  0.00    -0.051 NA
HETATM   34  N11 UNL     1      26.074  10.708  26.780  1.00  0.00    -0.051 NA
ENDBRANCH  12  31
BRANCH   1  35
HETATM   35  C3  UNL     1      29.625   5.722  29.029  1.00  0.00     0.130 C 
BRANCH  35  36
HETATM   36  C2  UNL     1      30.378   5.098  27.928  1.00  0.00    -0.028 C 
HETATM   37  C1  UNL     1      31.563   4.579  28.188  1.00  0.00     0.007 C 
ENDBRANCH  35  36
ENDBRANCH   1  35
TORSDOF 10
ENDMDL
