MODEL 1
REMARK VINA RESULT: -7.638815405      0.000      0.000
REMARK  11 active torsions:
REMARK  status: ('A' for Active; 'I' for Inactive)
REMARK       I    between atoms: C1_4  and  N3_6 
REMARK    1  A    between atoms: C5_10  and  N4_11 
REMARK       I    between atoms: N4_11  and  C6_13 
REMARK    2  A    between atoms: C6_13  and  C7_15 
REMARK    3  A    between atoms: C7_15  and  C8_16 
REMARK    4  A    between atoms: C7_15  and  N8_24 
REMARK    5  A    between atoms: C8_16  and  C9_17 
REMARK    6  A    between atoms: C9_17  and  C10_18 
REMARK    7  A    between atoms: C10_18  and  N5_19 
REMARK    8  A    between atoms: C15_28  and  C16_29 
REMARK    9  A    between atoms: C16_29  and  C17_30 
REMARK   10  A    between atoms: C17_30  and  C18_31 
REMARK   11  A    between atoms: C18_31  and  N9_32 
ROOT
HETATM    1  C7  UNL     1      29.046   8.529  28.728  1.00  0.00     0.179 C 
ENDROOT
BRANCH   1   2
HETATM    2  C6  UNL     1      27.776   9.054  29.102  1.00  0.00     0.241 C 
HETATM    3  N4  UNL     1      26.784   9.733  28.380  1.00  0.00    -0.353 N 
ATOM      4  H4  UNL     1      26.962   9.906  27.391  1.00  0.00     0.163 HD
HETATM    5  O1  UNL     1      27.433   8.900  30.336  1.00  0.00    -0.271 OA
BRANCH   3   6
HETATM    6  C5  UNL     1      25.525  10.209  28.923  1.00  0.00     0.102 C 
HETATM    7  C4  UNL     1      25.592  11.714  29.185  1.00  0.00     0.028 C 
HETATM    8  C3  UNL     1      24.358  12.117  29.962  1.00  0.00     0.022 C 
HETATM    9  C2  UNL     1      23.092  11.632  29.310  1.00  0.00     0.125 C 
HETATM   10  N3  UNL     1      23.359  10.976  28.055  1.00  0.00    -0.354 N 
HETATM   11  C1  UNL     1      22.561  11.293  26.929  1.00  0.00     0.184 C 
HETATM   12  C21 UNL     1      24.413  10.009  27.918  1.00  0.00     0.150 C 
HETATM   13  N1  UNL     1      21.282  11.195  27.041  1.00  0.00    -0.374 N 
HETATM   14  N2  UNL     1      23.160  11.711  25.698  1.00  0.00    -0.064 NA
ATOM     15  H12 UNL     1      20.707  11.423  26.230  1.00  0.00     0.158 HD
ATOM     16  H11 UNL     1      20.855  10.897  27.919  1.00  0.00     0.158 HD
ENDBRANCH   3   6
ENDBRANCH   1   2
BRANCH   1  17
HETATM   17  C8  UNL     1      29.555   7.550  29.767  1.00  0.00     0.037 C 
BRANCH  17  18
HETATM   18  C9  UNL     1      29.148   6.130  29.509  1.00  0.00     0.022 C 
BRANCH  18  19
HETATM   19  C10 UNL     1      29.564   5.700  28.099  1.00  0.00     0.122 C 
BRANCH  19  20
HETATM   20  N5  UNL     1      30.602   4.687  28.165  1.00  0.00    -0.367 N 
HETATM   21  C11 UNL     1      31.853   4.996  28.101  1.00  0.00     0.196 C 
HETATM   22  N6  UNL     1      32.356   6.299  27.964  1.00  0.00    -0.067 NA
HETATM   23  N7  UNL     1      32.775   3.907  28.177  1.00  0.00    -0.067 NA
ATOM     24  H5  UNL     1      30.336   3.708  28.265  1.00  0.00     0.161 HD
ENDBRANCH  19  20
ENDBRANCH  18  19
ENDBRANCH  17  18
ENDBRANCH   1  17
BRANCH   1  25
HETATM   25  N8  UNL     1      30.137   9.408  28.463  1.00  0.00    -0.338 N 
HETATM   26  C12 UNL     1      30.798  10.326  29.310  1.00  0.00     0.127 C 
HETATM   27  C13 UNL     1      30.981  11.690  28.704  1.00  0.00     0.021 C 
HETATM   28  C14 UNL     1      31.154  11.694  27.209  1.00  0.00     0.015 C 
HETATM   29  C15 UNL     1      31.708  10.354  26.773  1.00  0.00     0.078 C 
HETATM   30  C20 UNL     1      30.686   9.348  27.144  1.00  0.00     0.224 C 
HETATM   31  O2  UNL     1      30.359   8.500  26.281  1.00  0.00    -0.273 OA
BRANCH  29  32
HETATM   32  C16 UNL     1      32.128  10.330  25.348  1.00  0.00     0.015 C 
BRANCH  32  33
HETATM   33  C17 UNL     1      32.810  11.538  24.825  1.00  0.00     0.020 C 
BRANCH  33  34
HETATM   34  C18 UNL     1      32.787  11.529  23.293  1.00  0.00     0.122 C 
BRANCH  34  35
HETATM   35  N9  UNL     1      31.869  12.481  22.745  1.00  0.00    -0.367 N 
HETATM   36  C19 UNL     1      30.708  12.217  22.267  1.00  0.00     0.196 C 
HETATM   37  N10 UNL     1      29.933  13.296  21.763  1.00  0.00    -0.067 NA
HETATM   38  N11 UNL     1      30.183  10.905  22.225  1.00  0.00    -0.067 NA
ATOM     39  H9  UNL     1      32.165  13.457  22.734  1.00  0.00     0.161 HD
ENDBRANCH  34  35
ENDBRANCH  33  34
ENDBRANCH  32  33
ENDBRANCH  29  32
ENDBRANCH   1  25
TORSDOF 11
ENDMDL
MODEL 2
REMARK VINA RESULT: -7.506579086      3.354      6.760
REMARK  11 active torsions:
REMARK  status: ('A' for Active; 'I' for Inactive)
REMARK       I    between atoms: C1_4  and  N3_6 
REMARK    1  A    between atoms: C5_10  and  N4_11 
REMARK       I    between atoms: N4_11  and  C6_13 
REMARK    2  A    between atoms: C6_13  and  C7_15 
REMARK    3  A    between atoms: C7_15  and  C8_16 
REMARK    4  A    between atoms: C7_15  and  N8_24 
REMARK    5  A    between atoms: C8_16  and  C9_17 
REMARK    6  A    between atoms: C9_17  and  C10_18 
REMARK    7  A    between atoms: C10_18  and  N5_19 
REMARK    8  A    between atoms: C15_28  and  C16_29 
REMARK    9  A    between atoms: C16_29  and  C17_30 
REMARK   10  A    between atoms: C17_30  and  C18_31 
REMARK   11  A    between atoms: C18_31  and  N9_32 
ROOT
HETATM    1  C7  UNL     1      29.925   9.083  28.470  1.00  0.00     0.179 C 
ENDROOT
BRANCH   1   2
HETATM    2  C6  UNL     1      30.351   9.239  27.120  1.00  0.00     0.241 C 
HETATM    3  N4  UNL     1      30.617  10.372  26.338  1.00  0.00    -0.353 N 
ATOM      4  H4  UNL     1      30.495  11.284  26.780  1.00  0.00     0.163 HD
HETATM    5  O1  UNL     1      30.541   8.154  26.449  1.00  0.00    -0.271 OA
BRANCH   3   6
HETATM    6  C5  UNL     1      31.051  10.358  24.954  1.00  0.00     0.102 C 
HETATM    7  C4  UNL     1      30.373  11.481  24.169  1.00  0.00     0.028 C 
HETATM    8  C3  UNL     1      30.669  11.281  22.699  1.00  0.00     0.022 C 
HETATM    9  C2  UNL     1      32.139  11.105  22.434  1.00  0.00     0.125 C 
HETATM   10  N3  UNL     1      32.918  11.259  23.636  1.00  0.00    -0.354 N 
HETATM   11  C1  UNL     1      34.089  12.054  23.601  1.00  0.00     0.184 C 
HETATM   12  C21 UNL     1      32.537  10.625  24.868  1.00  0.00     0.150 C 
HETATM   13  N1  UNL     1      34.980  11.789  22.709  1.00  0.00    -0.374 N 
HETATM   14  N2  UNL     1      34.277  13.125  24.531  1.00  0.00    -0.064 NA
ATOM     15  H12 UNL     1      35.824  12.362  22.685  1.00  0.00     0.158 HD
ATOM     16  H11 UNL     1      34.845  11.025  22.046  1.00  0.00     0.158 HD
ENDBRANCH   3   6
ENDBRANCH   1   2
BRANCH   1  17
HETATM   17  C8  UNL     1      28.721   8.166  28.555  1.00  0.00     0.037 C 
BRANCH  17  18
HETATM   18  C9  UNL     1      28.962   6.928  29.366  1.00  0.00     0.022 C 
BRANCH  18  19
HETATM   19  C10 UNL     1      29.209   5.725  28.450  1.00  0.00     0.122 C 
BRANCH  19  20
HETATM   20  N5  UNL     1      30.610   5.650  28.082  1.00  0.00    -0.367 N 
HETATM   21  C11 UNL     1      31.413   4.807  28.641  1.00  0.00     0.196 C 
HETATM   22  N6  UNL     1      31.050   3.889  29.638  1.00  0.00    -0.067 NA
HETATM   23  N7  UNL     1      32.768   4.834  28.191  1.00  0.00    -0.067 NA
ATOM     24  H5  UNL     1      30.971   6.278  27.365  1.00  0.00     0.161 HD
ENDBRANCH  19  20
ENDBRANCH  18  19
ENDBRANCH  17  18
ENDBRANCH   1  17
BRANCH   1  25
HETATM   25  N8  UNL     1      29.590  10.226  29.254  1.00  0.00    -0.338 N 
HETATM   26  C12 UNL     1      28.471  11.086  29.187  1.00  0.00     0.127 C 
HETATM   27  C13 UNL     1      28.825  12.548  29.195  1.00  0.00     0.021 C 
HETATM   28  C14 UNL     1      30.066  12.888  29.977  1.00  0.00     0.015 C 
HETATM   29  C15 UNL     1      30.289  11.827  31.034  1.00  0.00     0.078 C 
HETATM   30  C20 UNL     1      30.506  10.558  30.301  1.00  0.00     0.224 C 
HETATM   31  O2  UNL     1      31.480   9.846  30.640  1.00  0.00    -0.273 OA
BRANCH  29  32
HETATM   32  C16 UNL     1      31.355  12.185  32.005  1.00  0.00     0.015 C 
BRANCH  32  33
HETATM   33  C17 UNL     1      32.397  13.133  31.545  1.00  0.00     0.020 C 
BRANCH  33  34
HETATM   34  C18 UNL     1      33.707  12.383  31.283  1.00  0.00     0.122 C 
BRANCH  34  35
HETATM   35  N9  UNL     1      33.828  11.931  29.931  1.00  0.00    -0.367 N 
HETATM   36  C19 UNL     1      34.548  12.475  29.017  1.00  0.00     0.196 C 
HETATM   37  N10 UNL     1      34.544  11.884  27.726  1.00  0.00    -0.067 NA
HETATM   38  N11 UNL     1      35.332  13.626  29.253  1.00  0.00    -0.067 NA
ATOM     39  H9  UNL     1      33.295  11.103  29.669  1.00  0.00     0.161 HD
ENDBRANCH  34  35
ENDBRANCH  33  34
ENDBRANCH  32  33
ENDBRANCH  29  32
ENDBRANCH   1  25
TORSDOF 11
ENDMDL
MODEL 3
REMARK VINA RESULT: -7.412387216      1.934      7.681
REMARK  11 active torsions:
REMARK  status: ('A' for Active; 'I' for Inactive)
REMARK       I    between atoms: C1_4  and  N3_6 
REMARK    1  A    between atoms: C5_10  and  N4_11 
REMARK       I    between atoms: N4_11  and  C6_13 
REMARK    2  A    between atoms: C6_13  and  C7_15 
REMARK    3  A    between atoms: C7_15  and  C8_16 
REMARK    4  A    between atoms: C7_15  and  N8_24 
REMARK    5  A    between atoms: C8_16  and  C9_17 
REMARK    6  A    between atoms: C9_17  and  C10_18 
REMARK    7  A    between atoms: C10_18  and  N5_19 
REMARK    8  A    between atoms: C15_28  and  C16_29 
REMARK    9  A    between atoms: C16_29  and  C17_30 
REMARK   10  A    between atoms: C17_30  and  C18_31 
REMARK   11  A    between atoms: C18_31  and  N9_32 
ROOT
HETATM    1  C7  UNL     1      27.755  11.382  28.142  1.00  0.00     0.179 C 
ENDROOT
BRANCH   1   2
HETATM    2  C6  UNL     1      28.492  12.155  27.200  1.00  0.00     0.241 C 
HETATM    3  N4  UNL     1      29.723  11.945  26.563  1.00  0.00    -0.353 N 
ATOM      4  H4  UNL     1      30.224  11.085  26.786  1.00  0.00     0.163 HD
HETATM    5  O1  UNL     1      27.962  13.273  26.836  1.00  0.00    -0.271 OA
BRANCH   3   6
HETATM    6  C5  UNL     1      30.344  12.848  25.612  1.00  0.00     0.102 C 
HETATM    7  C4  UNL     1      31.706  13.315  26.129  1.00  0.00     0.028 C 
HETATM    8  C3  UNL     1      32.202  14.425  25.228  1.00  0.00     0.022 C 
HETATM    9  C2  UNL     1      32.161  14.039  23.775  1.00  0.00     0.125 C 
HETATM   10  N3  UNL     1      31.742  12.671  23.600  1.00  0.00    -0.354 N 
HETATM   11  C1  UNL     1      32.460  11.840  22.706  1.00  0.00     0.184 C 
HETATM   12  C21 UNL     1      30.615  12.131  24.308  1.00  0.00     0.150 C 
HETATM   13  N1  UNL     1      32.630  12.249  21.496  1.00  0.00    -0.374 N 
HETATM   14  N2  UNL     1      32.983  10.580  23.135  1.00  0.00    -0.064 NA
ATOM     15  H12 UNL     1      33.148  11.650  20.853  1.00  0.00     0.158 HD
ATOM     16  H11 UNL     1      32.257  13.148  21.191  1.00  0.00     0.158 HD
ENDBRANCH   3   6
ENDBRANCH   1   2
BRANCH   1  17
HETATM   17  C8  UNL     1      26.930  12.275  29.048  1.00  0.00     0.037 C 
BRANCH  17  18
HETATM   18  C9  UNL     1      25.655  11.641  29.519  1.00  0.00     0.022 C 
BRANCH  18  19
HETATM   19  C10 UNL     1      24.769  11.267  28.326  1.00  0.00     0.122 C 
BRANCH  19  20
HETATM   20  N5  UNL     1      24.236   9.927  28.494  1.00  0.00    -0.367 N 
HETATM   21  C11 UNL     1      23.513   9.368  27.583  1.00  0.00     0.196 C 
HETATM   22  N6  UNL     1      23.159   9.958  26.360  1.00  0.00    -0.067 NA
HETATM   23  N7  UNL     1      23.050   8.047  27.869  1.00  0.00    -0.067 NA
ATOM     24  H5  UNL     1      24.439   9.415  29.352  1.00  0.00     0.161 HD
ENDBRANCH  19  20
ENDBRANCH  18  19
ENDBRANCH  17  18
ENDBRANCH   1  17
BRANCH   1  25
HETATM   25  N8  UNL     1      28.430  10.475  29.012  1.00  0.00    -0.338 N 
HETATM   26  C12 UNL     1      29.384  10.719  30.025  1.00  0.00     0.127 C 
HETATM   27  C13 UNL     1      30.593   9.828  29.951  1.00  0.00     0.021 C 
HETATM   28  C14 UNL     1      30.325   8.452  29.401  1.00  0.00     0.015 C 
HETATM   29  C15 UNL     1      28.871   8.102  29.636  1.00  0.00     0.078 C 
HETATM   30  C20 UNL     1      28.080   9.096  28.874  1.00  0.00     0.224 C 
HETATM   31  O2  UNL     1      27.149   8.672  28.149  1.00  0.00    -0.273 OA
BRANCH  29  32
HETATM   32  C16 UNL     1      28.555   6.681  29.336  1.00  0.00     0.015 C 
BRANCH  32  33
HETATM   33  C17 UNL     1      29.657   5.699  29.484  1.00  0.00     0.020 C 
BRANCH  33  34
HETATM   34  C18 UNL     1      29.945   5.031  28.136  1.00  0.00     0.122 C 
BRANCH  34  35
HETATM   35  N9  UNL     1      31.267   4.490  28.055  1.00  0.00    -0.367 N 
HETATM   36  C19 UNL     1      32.334   5.148  27.778  1.00  0.00     0.196 C 
HETATM   37  N10 UNL     1      33.564   4.438  27.742  1.00  0.00    -0.067 NA
HETATM   38  N11 UNL     1      32.323   6.536  27.513  1.00  0.00    -0.067 NA
ATOM     39  H9  UNL     1      31.371   3.491  28.232  1.00  0.00     0.161 HD
ENDBRANCH  34  35
ENDBRANCH  33  34
ENDBRANCH  32  33
ENDBRANCH  29  32
ENDBRANCH   1  25
TORSDOF 11
ENDMDL
MODEL 4
REMARK VINA RESULT: -7.351695928      2.907      7.106
REMARK  11 active torsions:
REMARK  status: ('A' for Active; 'I' for Inactive)
REMARK       I    between atoms: C1_4  and  N3_6 
REMARK    1  A    between atoms: C5_10  and  N4_11 
REMARK       I    between atoms: N4_11  and  C6_13 
REMARK    2  A    between atoms: C6_13  and  C7_15 
REMARK    3  A    between atoms: C7_15  and  C8_16 
REMARK    4  A    between atoms: C7_15  and  N8_24 
REMARK    5  A    between atoms: C8_16  and  C9_17 
REMARK    6  A    between atoms: C9_17  and  C10_18 
REMARK    7  A    between atoms: C10_18  and  N5_19 
REMARK    8  A    between atoms: C15_28  and  C16_29 
REMARK    9  A    between atoms: C16_29  and  C17_30 
REMARK   10  A    between atoms: C17_30  and  C18_31 
REMARK   11  A    between atoms: C18_31  and  N9_32 
ROOT
HETATM    1  C7  UNL     1      29.429   8.620  28.368  1.00  0.00     0.179 C 
ENDROOT
BRANCH   1   2
HETATM    2  C6  UNL     1      30.197   8.844  27.189  1.00  0.00     0.241 C 
HETATM    3  N4  UNL     1      30.489  10.005  26.458  1.00  0.00    -0.353 N 
ATOM      4  H4  UNL     1      30.097  10.883  26.799  1.00  0.00     0.163 HD
HETATM    5  O1  UNL     1      30.748   7.806  26.657  1.00  0.00    -0.271 OA
BRANCH   3   6
HETATM    6  C5  UNL     1      31.302  10.061  25.258  1.00  0.00     0.102 C 
HETATM    7  C4  UNL     1      30.592  10.867  24.169  1.00  0.00     0.028 C 
HETATM    8  C3  UNL     1      31.360  10.699  22.876  1.00  0.00     0.022 C 
HETATM    9  C2  UNL     1      32.825  10.992  23.043  1.00  0.00     0.125 C 
HETATM   10  N3  UNL     1      33.128  11.448  24.375  1.00  0.00    -0.354 N 
HETATM   11  C1  UNL     1      33.967  12.575  24.544  1.00  0.00     0.184 C 
HETATM   12  C21 UNL     1      32.599  10.788  25.537  1.00  0.00     0.150 C 
HETATM   13  N1  UNL     1      35.122  12.566  23.971  1.00  0.00    -0.374 N 
HETATM   14  N2  UNL     1      33.546  13.695  25.329  1.00  0.00    -0.064 NA
ATOM     15  H12 UNL     1      35.727  13.379  24.093  1.00  0.00     0.158 HD
ATOM     16  H11 UNL     1      35.421  11.768  23.411  1.00  0.00     0.158 HD
ENDBRANCH   3   6
ENDBRANCH   1   2
BRANCH   1  17
HETATM   17  C8  UNL     1      28.536   7.406  28.210  1.00  0.00     0.037 C 
BRANCH  17  18
HETATM   18  C9  UNL     1      28.913   6.261  29.102  1.00  0.00     0.022 C 
BRANCH  18  19
HETATM   19  C10 UNL     1      29.379   5.062  28.269  1.00  0.00     0.122 C 
BRANCH  19  20
HETATM   20  N5  UNL     1      30.790   5.182  27.957  1.00  0.00    -0.367 N 
HETATM   21  C11 UNL     1      31.689   4.536  28.621  1.00  0.00     0.196 C 
HETATM   22  N6  UNL     1      31.429   3.667  29.692  1.00  0.00    -0.067 NA
HETATM   23  N7  UNL     1      33.042   4.742  28.215  1.00  0.00    -0.067 NA
ATOM     24  H5  UNL     1      31.081   5.792  27.192  1.00  0.00     0.161 HD
ENDBRANCH  19  20
ENDBRANCH  18  19
ENDBRANCH  17  18
ENDBRANCH   1  17
BRANCH   1  25
HETATM   25  N8  UNL     1      28.587   9.650  28.882  1.00  0.00    -0.338 N 
HETATM   26  C12 UNL     1      27.283  10.040  28.502  1.00  0.00     0.127 C 
HETATM   27  C13 UNL     1      27.123  11.522  28.306  1.00  0.00     0.021 C 
HETATM   28  C14 UNL     1      28.000  12.369  29.189  1.00  0.00     0.015 C 
HETATM   29  C15 UNL     1      28.348  11.585  30.437  1.00  0.00     0.078 C 
HETATM   30  C20 UNL     1      29.113  10.402  29.978  1.00  0.00     0.224 C 
HETATM   31  O2  UNL     1      30.180  10.128  30.576  1.00  0.00    -0.273 OA
BRANCH  29  32
HETATM   32  C16 UNL     1      29.020  12.406  31.477  1.00  0.00     0.015 C 
BRANCH  32  33
HETATM   33  C17 UNL     1      29.891  13.509  31.006  1.00  0.00     0.020 C 
BRANCH  33  34
HETATM   34  C18 UNL     1      31.142  13.599  31.886  1.00  0.00     0.122 C 
BRANCH  34  35
HETATM   35  N9  UNL     1      31.732  12.321  32.146  1.00  0.00    -0.367 N 
HETATM   36  C19 UNL     1      32.830  11.884  31.646  1.00  0.00     0.196 C 
HETATM   37  N10 UNL     1      33.262  10.584  32.020  1.00  0.00    -0.067 NA
HETATM   38  N11 UNL     1      33.613  12.645  30.748  1.00  0.00    -0.067 NA
ATOM     39  H9  UNL     1      31.234  11.701  32.785  1.00  0.00     0.161 HD
ENDBRANCH  34  35
ENDBRANCH  33  34
ENDBRANCH  32  33
ENDBRANCH  29  32
ENDBRANCH   1  25
TORSDOF 11
ENDMDL
MODEL 5
REMARK VINA RESULT: -7.312581611      1.947      2.556
REMARK  11 active torsions:
REMARK  status: ('A' for Active; 'I' for Inactive)
REMARK       I    between atoms: C1_4  and  N3_6 
REMARK    1  A    between atoms: C5_10  and  N4_11 
REMARK       I    between atoms: N4_11  and  C6_13 
REMARK    2  A    between atoms: C6_13  and  C7_15 
REMARK    3  A    between atoms: C7_15  and  C8_16 
REMARK    4  A    between atoms: C7_15  and  N8_24 
REMARK    5  A    between atoms: C8_16  and  C9_17 
REMARK    6  A    between atoms: C9_17  and  C10_18 
REMARK    7  A    between atoms: C10_18  and  N5_19 
REMARK    8  A    between atoms: C15_28  and  C16_29 
REMARK    9  A    between atoms: C16_29  and  C17_30 
REMARK   10  A    between atoms: C17_30  and  C18_31 
REMARK   11  A    between atoms: C18_31  and  N9_32 
ROOT
HETATM    1  C7  UNL     1      29.314   9.261  28.111  1.00  0.00     0.179 C 
ENDROOT
BRANCH   1   2
HETATM    2  C6  UNL     1      27.982   9.463  28.574  1.00  0.00     0.241 C 
HETATM    3  N4  UNL     1      27.001  10.409  28.246  1.00  0.00    -0.353 N 
ATOM      4  H4  UNL     1      27.243  11.109  27.544  1.00  0.00     0.163 HD
HETATM    5  O1  UNL     1      27.556   8.638  29.469  1.00  0.00    -0.271 OA
BRANCH   3   6
HETATM    6  C5  UNL     1      25.671  10.476  28.821  1.00  0.00     0.102 C 
HETATM    7  C4  UNL     1      25.326  11.916  29.203  1.00  0.00     0.028 C 
HETATM    8  C3  UNL     1      24.043  11.901  30.006  1.00  0.00     0.022 C 
HETATM    9  C2  UNL     1      22.948  11.138  29.314  1.00  0.00     0.125 C 
HETATM   10  N3  UNL     1      23.360  10.680  28.011  1.00  0.00    -0.354 N 
HETATM   11  C1  UNL     1      22.485  10.851  26.912  1.00  0.00     0.184 C 
HETATM   12  C21 UNL     1      24.637  10.056  27.800  1.00  0.00     0.150 C 
HETATM   13  N1  UNL     1      21.284  10.396  27.013  1.00  0.00    -0.374 N 
HETATM   14  N2  UNL     1      22.921  11.512  25.721  1.00  0.00    -0.064 NA
ATOM     15  H12 UNL     1      20.653  10.519  26.220  1.00  0.00     0.158 HD
ATOM     16  H11 UNL     1      20.973   9.925  27.862  1.00  0.00     0.158 HD
ENDBRANCH   3   6
ENDBRANCH   1   2
BRANCH   1  17
HETATM   17  C8  UNL     1      30.164   8.599  29.177  1.00  0.00     0.037 C 
BRANCH  17  18
HETATM   18  C9  UNL     1      30.951   7.425  28.677  1.00  0.00     0.022 C 
BRANCH  18  19
HETATM   19  C10 UNL     1      30.016   6.265  28.319  1.00  0.00     0.122 C 
BRANCH  19  20
HETATM   20  N5  UNL     1      30.123   5.207  29.306  1.00  0.00    -0.367 N 
HETATM   21  C11 UNL     1      31.059   4.320  29.249  1.00  0.00     0.196 C 
HETATM   22  N6  UNL     1      32.057   4.264  28.264  1.00  0.00    -0.067 NA
HETATM   23  N7  UNL     1      31.054   3.331  30.281  1.00  0.00    -0.067 NA
ATOM     24  H5  UNL     1      29.442   5.162  30.064  1.00  0.00     0.161 HD
ENDBRANCH  19  20
ENDBRANCH  18  19
ENDBRANCH  17  18
ENDBRANCH   1  17
BRANCH   1  25
HETATM   25  N8  UNL     1      30.085  10.365  27.639  1.00  0.00    -0.338 N 
HETATM   26  C12 UNL     1      30.422  11.582  28.272  1.00  0.00     0.127 C 
HETATM   27  C13 UNL     1      30.183  12.798  27.420  1.00  0.00     0.021 C 
HETATM   28  C14 UNL     1      30.361  12.574  25.942  1.00  0.00     0.015 C 
HETATM   29  C15 UNL     1      31.305  11.409  25.731  1.00  0.00     0.078 C 
HETATM   30  C20 UNL     1      30.638  10.228  26.327  1.00  0.00     0.224 C 
HETATM   31  O2  UNL     1      30.597   9.175  25.649  1.00  0.00    -0.273 OA
BRANCH  29  32
HETATM   32  C16 UNL     1      31.726  11.247  24.315  1.00  0.00     0.015 C 
BRANCH  32  33
HETATM   33  C17 UNL     1      33.172  11.391  24.021  1.00  0.00     0.020 C 
BRANCH  33  34
HETATM   34  C18 UNL     1      33.720  12.652  24.697  1.00  0.00     0.122 C 
BRANCH  34  35
HETATM   35  N9  UNL     1      35.101  12.884  24.404  1.00  0.00    -0.367 N 
HETATM   36  C19 UNL     1      36.056  12.920  25.262  1.00  0.00     0.196 C 
HETATM   37  N10 UNL     1      37.371  13.165  24.785  1.00  0.00    -0.067 NA
HETATM   38  N11 UNL     1      35.842  12.726  26.645  1.00  0.00    -0.067 NA
ATOM     39  H9  UNL     1      35.350  13.035  23.427  1.00  0.00     0.161 HD
ENDBRANCH  34  35
ENDBRANCH  33  34
ENDBRANCH  32  33
ENDBRANCH  29  32
ENDBRANCH   1  25
TORSDOF 11
ENDMDL
