MODEL 1
REMARK VINA RESULT: -7.626079809      0.000      0.000
REMARK  10 active torsions:
REMARK  status: ('A' for Active; 'I' for Inactive)
REMARK       I    between atoms: N1_2  and  C2_4 
REMARK    1  A    between atoms: N3_6  and  C3_8 
REMARK    2  A    between atoms: C3_8  and  C4_9 
REMARK    3  A    between atoms: C4_9  and  C5_10 
REMARK    4  A    between atoms: C5_10  and  C6_11 
REMARK    5  A    between atoms: C7_12  and  N4_13 
REMARK       I    between atoms: N4_13  and  C8_14 
REMARK    6  A    between atoms: C9_17  and  N7_18 
REMARK       I    between atoms: N7_18  and  C10_20 
REMARK    7  A    between atoms: C10_20  and  C11_22 
REMARK    8  A    between atoms: C11_22  and  C12_23 
REMARK    9  A    between atoms: N9_35  and  C21_36 
REMARK   10  A    between atoms: C21_36  and  C22_37 
ROOT
HETATM    1  C6  UNL     1      30.390  10.077  29.031  1.00  0.00     0.043 C 
HETATM    2  C7  UNL     1      29.008  10.472  28.719  1.00  0.00     0.138 C 
HETATM    3  C9  UNL     1      27.891  10.393  29.722  1.00  0.00     0.243 C 
HETATM    4  C18 UNL     1      28.044  11.134  31.019  1.00  0.00     0.248 C 
HETATM    5  O2  UNL     1      27.292  10.597  31.913  1.00  0.00    -0.271 OA
HETATM    6  N8  UNL     1      28.733  12.219  31.619  1.00  0.00    -0.348 N 
ATOM      7  H8  UNL     1      28.175  12.789  32.253  1.00  0.00     0.163 HD
HETATM    8  C19 UNL     1      30.158  12.655  31.462  1.00  0.00     0.222 C 
HETATM    9  C20 UNL     1      30.740  11.754  30.525  1.00  0.00    -0.068 C 
HETATM   10  N9  UNL     1      31.356  11.059  29.612  1.00  0.00    -0.195 NA
ENDROOT
BRANCH   3  11
HETATM   11  N7  UNL     1      26.660  10.732  29.074  1.00  0.00    -0.342 N 
HETATM   12  C10 UNL     1      25.792  10.068  28.240  1.00  0.00     0.218 C 
HETATM   13  O1  UNL     1      25.832   8.889  27.818  1.00  0.00    -0.274 OA
ATOM     14  H7  UNL     1      26.358  11.685  29.279  1.00  0.00     0.163 HD
BRANCH  12  15
HETATM   15  C11 UNL     1      24.591  10.834  27.722  1.00  0.00     0.107 C 
BRANCH  15  16
HETATM   16  C12 UNL     1      23.298  10.111  27.851  1.00  0.00    -0.006 C 
HETATM   17  C13 UNL     1      22.247  10.928  27.118  1.00  0.00     0.005 C 
HETATM   18  C14 UNL     1      21.922  12.241  27.780  1.00  0.00     0.000 C 
HETATM   19  C15 UNL     1      21.282  11.863  29.121  1.00  0.00     0.000 C 
HETATM   20  C16 UNL     1      22.380  11.191  29.931  1.00  0.00     0.000 C 
HETATM   21  C17 UNL     1      22.893   9.917  29.306  1.00  0.00     0.005 C 
ENDBRANCH  15  16
ENDBRANCH  12  15
ENDBRANCH   3  11
BRANCH   2  22
HETATM   22  N4  UNL     1      28.820  11.433  27.728  1.00  0.00    -0.377 NA
HETATM   23  C8  UNL     1      28.862  12.140  26.797  1.00  0.00     0.275 C 
HETATM   24  N5  UNL     1      29.804  12.167  25.699  1.00  0.00    -0.052 NA
HETATM   25  N6  UNL     1      27.847  13.190  26.646  1.00  0.00    -0.052 NA
ENDBRANCH   2  22
BRANCH   1  26
HETATM   26  C5  UNL     1      31.102   9.304  27.966  1.00  0.00     0.057 C 
BRANCH  26  27
HETATM   27  C4  UNL     1      30.428   8.076  27.422  1.00  0.00     0.025 C 
BRANCH  27  28
HETATM   28  C3  UNL     1      30.940   6.837  28.138  1.00  0.00     0.122 C 
BRANCH  28  29
HETATM   29  N3  UNL     1      32.116   6.368  27.406  1.00  0.00    -0.365 N 
HETATM   30  C2  UNL     1      32.584   5.192  27.727  1.00  0.00     0.183 C 
HETATM   31  N1  UNL     1      33.704   4.641  27.095  1.00  0.00    -0.369 N 
HETATM   32  N2  UNL     1      31.959   4.417  28.744  1.00  0.00    -0.064 NA
HETATM   33  C1  UNL     1      34.985   4.624  27.803  1.00  0.00     0.148 C 
ATOM     34  H1  UNL     1      33.629   4.256  26.154  1.00  0.00     0.161 HD
ATOM     35  H3  UNL     1      32.552   6.934  26.679  1.00  0.00     0.162 HD
ENDBRANCH  28  29
ENDBRANCH  27  28
ENDBRANCH  26  27
ENDBRANCH   1  26
BRANCH  10  36
HETATM   36  C21 UNL     1      32.141  11.695  28.639  1.00  0.00     0.093 C 
BRANCH  36  37
HETATM   37  C22 UNL     1      33.429  12.234  29.204  1.00  0.00     0.113 C 
HETATM   38  N10 UNL     1      34.599  12.084  28.433  1.00  0.00    -0.114 NA
ENDBRANCH  36  37
ENDBRANCH  10  36
TORSDOF 10
ENDMDL
MODEL 2
REMARK VINA RESULT: -7.508126945      2.761      7.469
REMARK  10 active torsions:
REMARK  status: ('A' for Active; 'I' for Inactive)
REMARK       I    between atoms: N1_2  and  C2_4 
REMARK    1  A    between atoms: N3_6  and  C3_8 
REMARK    2  A    between atoms: C3_8  and  C4_9 
REMARK    3  A    between atoms: C4_9  and  C5_10 
REMARK    4  A    between atoms: C5_10  and  C6_11 
REMARK    5  A    between atoms: C7_12  and  N4_13 
REMARK       I    between atoms: N4_13  and  C8_14 
REMARK    6  A    between atoms: C9_17  and  N7_18 
REMARK       I    between atoms: N7_18  and  C10_20 
REMARK    7  A    between atoms: C10_20  and  C11_22 
REMARK    8  A    between atoms: C11_22  and  C12_23 
REMARK    9  A    between atoms: N9_35  and  C21_36 
REMARK   10  A    between atoms: C21_36  and  C22_37 
ROOT
HETATM    1  C6  UNL     1      29.628   9.766  28.110  1.00  0.00     0.043 C 
HETATM    2  C7  UNL     1      30.625  10.688  28.674  1.00  0.00     0.138 C 
HETATM    3  C9  UNL     1      31.416  11.649  27.831  1.00  0.00     0.243 C 
HETATM    4  C18 UNL     1      30.669  12.630  26.976  1.00  0.00     0.248 C 
HETATM    5  O2  UNL     1      31.418  13.011  26.003  1.00  0.00    -0.271 OA
HETATM    6  N8  UNL     1      29.418  13.288  26.852  1.00  0.00    -0.348 N 
ATOM      7  H8  UNL     1      29.470  14.268  26.576  1.00  0.00     0.163 HD
HETATM    8  C19 UNL     1      28.032  12.760  27.065  1.00  0.00     0.222 C 
HETATM    9  C20 UNL     1      28.189  11.404  27.468  1.00  0.00    -0.068 C 
HETATM   10  N9  UNL     1      28.205  10.188  27.935  1.00  0.00    -0.195 NA
ENDROOT
BRANCH   3  11
HETATM   11  N7  UNL     1      32.378  12.312  28.660  1.00  0.00    -0.342 N 
HETATM   12  C10 UNL     1      33.749  12.421  28.653  1.00  0.00     0.218 C 
HETATM   13  O1  UNL     1      34.584  11.963  27.840  1.00  0.00    -0.274 OA
ATOM     14  H7  UNL     1      31.947  12.819  29.434  1.00  0.00     0.163 HD
BRANCH  12  15
HETATM   15  C11 UNL     1      34.397  13.201  29.780  1.00  0.00     0.107 C 
BRANCH  15  16
HETATM   16  C12 UNL     1      33.896  14.593  29.932  1.00  0.00    -0.006 C 
HETATM   17  C13 UNL     1      34.287  15.354  28.676  1.00  0.00     0.005 C 
HETATM   18  C14 UNL     1      35.770  15.584  28.538  1.00  0.00     0.000 C 
HETATM   19  C15 UNL     1      36.141  16.505  29.706  1.00  0.00     0.000 C 
HETATM   20  C16 UNL     1      35.911  15.689  30.969  1.00  0.00     0.000 C 
HETATM   21  C17 UNL     1      34.472  15.278  31.163  1.00  0.00     0.005 C 
ENDBRANCH  15  16
ENDBRANCH  12  15
ENDBRANCH   3  11
BRANCH   2  22
HETATM   22  N4  UNL     1      30.453  11.095  29.996  1.00  0.00    -0.377 NA
HETATM   23  C8  UNL     1      30.165  11.238  31.120  1.00  0.00     0.275 C 
HETATM   24  N5  UNL     1      29.310  10.433  31.966  1.00  0.00    -0.052 NA
HETATM   25  N6  UNL     1      30.701  12.389  31.858  1.00  0.00    -0.052 NA
ENDBRANCH   2  22
BRANCH   1  26
HETATM   26  C5  UNL     1      29.632   8.379  28.673  1.00  0.00     0.057 C 
BRANCH  26  27
HETATM   27  C4  UNL     1      30.906   7.588  28.576  1.00  0.00     0.025 C 
BRANCH  27  28
HETATM   28  C3  UNL     1      30.665   6.297  27.812  1.00  0.00     0.122 C 
BRANCH  28  29
HETATM   29  N3  UNL     1      31.927   5.932  27.169  1.00  0.00    -0.365 N 
HETATM   30  C2  UNL     1      32.576   4.916  27.672  1.00  0.00     0.183 C 
HETATM   31  N1  UNL     1      33.793   4.476  27.141  1.00  0.00    -0.369 N 
HETATM   32  N2  UNL     1      32.058   4.209  28.794  1.00  0.00    -0.064 NA
HETATM   33  C1  UNL     1      35.035   4.788  27.851  1.00  0.00     0.148 C 
ATOM     34  H1  UNL     1      33.815   3.945  26.270  1.00  0.00     0.161 HD
ATOM     35  H3  UNL     1      32.285   6.447  26.365  1.00  0.00     0.162 HD
ENDBRANCH  28  29
ENDBRANCH  27  28
ENDBRANCH  26  27
ENDBRANCH   1  26
BRANCH  10  36
HETATM   36  C21 UNL     1      27.391   9.829  29.020  1.00  0.00     0.093 C 
BRANCH  36  37
HETATM   37  C22 UNL     1      25.927  10.034  28.730  1.00  0.00     0.113 C 
HETATM   38  N10 UNL     1      25.291   9.110  27.877  1.00  0.00    -0.114 NA
ENDBRANCH  36  37
ENDBRANCH  10  36
TORSDOF 10
ENDMDL
MODEL 3
REMARK VINA RESULT: -7.381050803      2.998      7.550
REMARK  10 active torsions:
REMARK  status: ('A' for Active; 'I' for Inactive)
REMARK       I    between atoms: N1_2  and  C2_4 
REMARK    1  A    between atoms: N3_6  and  C3_8 
REMARK    2  A    between atoms: C3_8  and  C4_9 
REMARK    3  A    between atoms: C4_9  and  C5_10 
REMARK    4  A    between atoms: C5_10  and  C6_11 
REMARK    5  A    between atoms: C7_12  and  N4_13 
REMARK       I    between atoms: N4_13  and  C8_14 
REMARK    6  A    between atoms: C9_17  and  N7_18 
REMARK       I    between atoms: N7_18  and  C10_20 
REMARK    7  A    between atoms: C10_20  and  C11_22 
REMARK    8  A    between atoms: C11_22  and  C12_23 
REMARK    9  A    between atoms: N9_35  and  C21_36 
REMARK   10  A    between atoms: C21_36  and  C22_37 
ROOT
HETATM    1  C6  UNL     1      24.331  12.537  29.458  1.00  0.00     0.043 C 
HETATM    2  C7  UNL     1      25.353  11.579  29.012  1.00  0.00     0.138 C 
HETATM    3  C9  UNL     1      25.036  10.148  28.675  1.00  0.00     0.243 C 
HETATM    4  C18 UNL     1      24.003   9.874  27.621  1.00  0.00     0.248 C 
HETATM    5  O2  UNL     1      23.511   8.699  27.794  1.00  0.00    -0.271 OA
HETATM    6  N8  UNL     1      23.363  10.458  26.497  1.00  0.00    -0.348 N 
ATOM      7  H8  UNL     1      23.209   9.827  25.711  1.00  0.00     0.163 HD
HETATM    8  C19 UNL     1      22.878  11.860  26.290  1.00  0.00     0.222 C 
HETATM    9  C20 UNL     1      23.213  12.568  27.479  1.00  0.00    -0.068 C 
HETATM   10  N9  UNL     1      23.550  13.343  28.470  1.00  0.00    -0.195 NA
ENDROOT
BRANCH   3  11
HETATM   11  N7  UNL     1      26.258   9.456  28.393  1.00  0.00    -0.342 N 
HETATM   12  C10 UNL     1      27.328   9.038  29.149  1.00  0.00     0.218 C 
HETATM   13  O1  UNL     1      27.521   9.130  30.383  1.00  0.00    -0.274 OA
ATOM     14  H7  UNL     1      26.356   9.217  27.406  1.00  0.00     0.163 HD
BRANCH  12  15
HETATM   15  C11 UNL     1      28.477   8.363  28.427  1.00  0.00     0.107 C 
BRANCH  15  16
HETATM   16  C12 UNL     1      29.462   7.701  29.322  1.00  0.00    -0.006 C 
HETATM   17  C13 UNL     1      30.839   7.909  28.713  1.00  0.00     0.005 C 
HETATM   18  C14 UNL     1      31.057   7.160  27.424  1.00  0.00     0.000 C 
HETATM   19  C15 UNL     1      31.002   5.677  27.811  1.00  0.00     0.000 C 
HETATM   20  C16 UNL     1      29.573   5.419  28.266  1.00  0.00     0.000 C 
HETATM   21  C17 UNL     1      29.179   6.214  29.486  1.00  0.00     0.005 C 
ENDBRANCH  15  16
ENDBRANCH  12  15
ENDBRANCH   3  11
BRANCH   2  22
HETATM   22  N4  UNL     1      26.471  12.087  28.354  1.00  0.00    -0.377 NA
HETATM   23  C8  UNL     1      27.357  12.718  27.925  1.00  0.00     0.275 C 
HETATM   24  N5  UNL     1      27.727  14.092  28.190  1.00  0.00    -0.052 NA
HETATM   25  N6  UNL     1      28.276  12.103  26.959  1.00  0.00    -0.052 NA
ENDBRANCH   2  22
BRANCH   1  26
HETATM   26  C5  UNL     1      24.736  13.445  30.577  1.00  0.00     0.057 C 
BRANCH  26  27
HETATM   27  C4  UNL     1      25.374  12.825  31.787  1.00  0.00     0.025 C 
BRANCH  27  28
HETATM   28  C3  UNL     1      26.834  13.234  31.878  1.00  0.00     0.122 C 
BRANCH  28  29
HETATM   29  N3  UNL     1      27.632  12.105  31.400  1.00  0.00    -0.365 N 
HETATM   30  C2  UNL     1      28.931  12.239  31.436  1.00  0.00     0.183 C 
HETATM   31  N1  UNL     1      29.793  11.226  31.005  1.00  0.00    -0.369 N 
HETATM   32  N2  UNL     1      29.521  13.438  31.925  1.00  0.00    -0.064 NA
HETATM   33  C1  UNL     1      30.466  11.365  29.713  1.00  0.00     0.148 C 
ATOM     34  H1  UNL     1      29.951  10.401  31.584  1.00  0.00     0.161 HD
ATOM     35  H3  UNL     1      27.194  11.251  31.054  1.00  0.00     0.162 HD
ENDBRANCH  28  29
ENDBRANCH  27  28
ENDBRANCH  26  27
ENDBRANCH   1  26
BRANCH  10  36
HETATM   36  C21 UNL     1      24.111  14.606  28.229  1.00  0.00     0.093 C 
BRANCH  36  37
HETATM   37  C22 UNL     1      23.071  15.693  28.166  1.00  0.00     0.113 C 
HETATM   38  N10 UNL     1      22.071  15.704  29.160  1.00  0.00    -0.114 NA
ENDBRANCH  36  37
ENDBRANCH  10  36
TORSDOF 10
ENDMDL
MODEL 4
REMARK VINA RESULT: -7.347717462      2.861      7.015
REMARK  10 active torsions:
REMARK  status: ('A' for Active; 'I' for Inactive)
REMARK       I    between atoms: N1_2  and  C2_4 
REMARK    1  A    between atoms: N3_6  and  C3_8 
REMARK    2  A    between atoms: C3_8  and  C4_9 
REMARK    3  A    between atoms: C4_9  and  C5_10 
REMARK    4  A    between atoms: C5_10  and  C6_11 
REMARK    5  A    between atoms: C7_12  and  N4_13 
REMARK       I    between atoms: N4_13  and  C8_14 
REMARK    6  A    between atoms: C9_17  and  N7_18 
REMARK       I    between atoms: N7_18  and  C10_20 
REMARK    7  A    between atoms: C10_20  and  C11_22 
REMARK    8  A    between atoms: C11_22  and  C12_23 
REMARK    9  A    between atoms: N9_35  and  C21_36 
REMARK   10  A    between atoms: C21_36  and  C22_37 
ROOT
HETATM    1  C6  UNL     1      29.243   9.418  28.384  1.00  0.00     0.043 C 
HETATM    2  C7  UNL     1      30.217  10.517  28.461  1.00  0.00     0.138 C 
HETATM    3  C9  UNL     1      30.420  11.505  27.345  1.00  0.00     0.243 C 
HETATM    4  C18 UNL     1      29.237  12.292  26.864  1.00  0.00     0.248 C 
HETATM    5  O2  UNL     1      29.444  12.690  25.660  1.00  0.00    -0.271 OA
HETATM    6  N8  UNL     1      27.955  12.752  27.264  1.00  0.00    -0.348 N 
ATOM      7  H8  UNL     1      27.726  13.702  26.973  1.00  0.00     0.163 HD
HETATM    8  C19 UNL     1      26.888  12.053  28.049  1.00  0.00     0.222 C 
HETATM    9  C20 UNL     1      27.418  10.772  28.375  1.00  0.00    -0.068 C 
HETATM   10  N9  UNL     1      27.825   9.616  28.815  1.00  0.00    -0.195 NA
ENDROOT
BRANCH   3  11
HETATM   11  N7  UNL     1      31.513  12.367  27.682  1.00  0.00    -0.342 N 
HETATM   12  C10 UNL     1      32.880  12.295  27.544  1.00  0.00     0.218 C 
HETATM   13  O1  UNL     1      33.585  11.403  27.017  1.00  0.00    -0.274 OA
ATOM     14  H7  UNL     1      31.208  13.233  28.126  1.00  0.00     0.163 HD
BRANCH  12  15
HETATM   15  C11 UNL     1      33.703  13.440  28.098  1.00  0.00     0.107 C 
BRANCH  15  16
HETATM   16  C12 UNL     1      34.546  13.080  29.269  1.00  0.00    -0.006 C 
HETATM   17  C13 UNL     1      33.769  13.458  30.519  1.00  0.00     0.005 C 
HETATM   18  C14 UNL     1      33.607  14.943  30.714  1.00  0.00     0.000 C 
HETATM   19  C15 UNL     1      35.028  15.473  30.941  1.00  0.00     0.000 C 
HETATM   20  C16 UNL     1      35.769  15.251  29.631  1.00  0.00     0.000 C 
HETATM   21  C17 UNL     1      35.890  13.796  29.249  1.00  0.00     0.005 C 
ENDBRANCH  15  16
ENDBRANCH  12  15
ENDBRANCH   3  11
BRANCH   2  22
HETATM   22  N4  UNL     1      30.538  11.009  29.725  1.00  0.00    -0.377 NA
HETATM   23  C8  UNL     1      30.964  11.233  30.791  1.00  0.00     0.275 C 
HETATM   24  N5  UNL     1      31.973  10.526  31.550  1.00  0.00    -0.052 NA
HETATM   25  N6  UNL     1      30.445  12.380  31.545  1.00  0.00    -0.052 NA
ENDBRANCH   2  22
BRANCH   1  26
HETATM   26  C5  UNL     1      29.708   8.100  28.920  1.00  0.00     0.057 C 
BRANCH  26  27
HETATM   27  C4  UNL     1      31.018   7.563  28.418  1.00  0.00     0.025 C 
BRANCH  27  28
HETATM   28  C3  UNL     1      30.803   6.241  27.699  1.00  0.00     0.122 C 
BRANCH  28  29
HETATM   29  N3  UNL     1      32.076   5.871  27.081  1.00  0.00    -0.365 N 
HETATM   30  C2  UNL     1      32.737   4.888  27.630  1.00  0.00     0.183 C 
HETATM   31  N1  UNL     1      33.965   4.447  27.126  1.00  0.00    -0.369 N 
HETATM   32  N2  UNL     1      32.222   4.219  28.775  1.00  0.00    -0.064 NA
HETATM   33  C1  UNL     1      35.196   4.808  27.832  1.00  0.00     0.148 C 
ATOM     34  H1  UNL     1      34.003   3.882  26.278  1.00  0.00     0.161 HD
ATOM     35  H3  UNL     1      32.431   6.359  26.260  1.00  0.00     0.162 HD
ENDBRANCH  28  29
ENDBRANCH  27  28
ENDBRANCH  26  27
ENDBRANCH   1  26
BRANCH  10  36
HETATM   36  C21 UNL     1      27.601   9.241  30.148  1.00  0.00     0.093 C 
BRANCH  36  37
HETATM   37  C22 UNL     1      27.345  10.425  31.041  1.00  0.00     0.113 C 
HETATM   38  N10 UNL     1      27.723  10.320  32.395  1.00  0.00    -0.114 NA
ENDBRANCH  36  37
ENDBRANCH  10  36
TORSDOF 10
ENDMDL
MODEL 5
REMARK VINA RESULT: -7.240476620      3.221      7.947
REMARK  10 active torsions:
REMARK  status: ('A' for Active; 'I' for Inactive)
REMARK       I    between atoms: N1_2  and  C2_4 
REMARK    1  A    between atoms: N3_6  and  C3_8 
REMARK    2  A    between atoms: C3_8  and  C4_9 
REMARK    3  A    between atoms: C4_9  and  C5_10 
REMARK    4  A    between atoms: C5_10  and  C6_11 
REMARK    5  A    between atoms: C7_12  and  N4_13 
REMARK       I    between atoms: N4_13  and  C8_14 
REMARK    6  A    between atoms: C9_17  and  N7_18 
REMARK       I    between atoms: N7_18  and  C10_20 
REMARK    7  A    between atoms: C10_20  and  C11_22 
REMARK    8  A    between atoms: C11_22  and  C12_23 
REMARK    9  A    between atoms: N9_35  and  C21_36 
REMARK   10  A    between atoms: C21_36  and  C22_37 
ROOT
HETATM    1  C6  UNL     1      30.339  10.284  28.506  1.00  0.00     0.043 C 
HETATM    2  C7  UNL     1      31.464  11.150  28.891  1.00  0.00     0.138 C 
HETATM    3  C9  UNL     1      31.966  12.269  28.022  1.00  0.00     0.243 C 
HETATM    4  C18 UNL     1      30.998  13.339  27.606  1.00  0.00     0.248 C 
HETATM    5  O2  UNL     1      31.416  13.905  26.531  1.00  0.00    -0.271 OA
HETATM    6  N8  UNL     1      29.770  13.948  27.975  1.00  0.00    -0.348 N 
ATOM      7  H8  UNL     1      29.739  14.961  27.863  1.00  0.00     0.163 HD
HETATM    8  C19 UNL     1      28.513  13.329  28.504  1.00  0.00     0.222 C 
HETATM    9  C20 UNL     1      28.779  11.934  28.609  1.00  0.00    -0.068 C 
HETATM   10  N9  UNL     1      28.931  10.661  28.840  1.00  0.00    -0.195 NA
ENDROOT
BRANCH   3  11
HETATM   11  N7  UNL     1      33.136  12.836  28.622  1.00  0.00    -0.342 N 
HETATM   12  C10 UNL     1      34.488  12.731  28.392  1.00  0.00     0.218 C 
HETATM   13  O1  UNL     1      35.102  12.090  27.508  1.00  0.00    -0.274 OA
ATOM     14  H7  UNL     1      32.917  13.460  29.399  1.00  0.00     0.163 HD
BRANCH  12  15
HETATM   15  C11 UNL     1      35.419  13.483  29.322  1.00  0.00     0.107 C 
BRANCH  15  16
HETATM   16  C12 UNL     1      35.545  14.934  29.024  1.00  0.00    -0.006 C 
HETATM   17  C13 UNL     1      37.023  15.229  28.827  1.00  0.00     0.005 C 
HETATM   18  C14 UNL     1      37.843  15.110  30.084  1.00  0.00     0.000 C 
HETATM   19  C15 UNL     1      37.325  16.221  31.005  1.00  0.00     0.000 C 
HETATM   20  C16 UNL     1      35.891  15.844  31.346  1.00  0.00     0.000 C 
HETATM   21  C17 UNL     1      34.981  15.799  30.143  1.00  0.00     0.005 C 
ENDBRANCH  15  16
ENDBRANCH  12  15
ENDBRANCH   3  11
BRANCH   2  22
HETATM   22  N4  UNL     1      31.703  11.331  30.251  1.00  0.00    -0.377 NA
HETATM   23  C8  UNL     1      32.081  11.320  31.358  1.00  0.00     0.275 C 
HETATM   24  N5  UNL     1      33.157  10.561  31.960  1.00  0.00    -0.052 NA
HETATM   25  N6  UNL     1      31.415  12.168  32.354  1.00  0.00    -0.052 NA
ENDBRANCH   2  22
BRANCH   1  26
HETATM   26  C5  UNL     1      30.509   8.827  28.802  1.00  0.00     0.057 C 
BRANCH  26  27
HETATM   27  C4  UNL     1      30.448   7.866  27.649  1.00  0.00     0.025 C 
BRANCH  27  28
HETATM   28  C3  UNL     1      30.862   6.476  28.101  1.00  0.00     0.122 C 
BRANCH  28  29
HETATM   29  N3  UNL     1      32.089   6.134  27.381  1.00  0.00    -0.365 N 
HETATM   30  C2  UNL     1      32.679   5.017  27.714  1.00  0.00     0.183 C 
HETATM   31  N1  UNL     1      33.857   4.587  27.094  1.00  0.00    -0.369 N 
HETATM   32  N2  UNL     1      32.134   4.185  28.732  1.00  0.00    -0.064 NA
HETATM   33  C1  UNL     1      35.127   4.714  27.811  1.00  0.00     0.148 C 
ATOM     34  H1  UNL     1      33.831   4.190  26.155  1.00  0.00     0.161 HD
ATOM     35  H3  UNL     1      32.466   6.739  26.653  1.00  0.00     0.162 HD
ENDBRANCH  28  29
ENDBRANCH  27  28
ENDBRANCH  26  27
ENDBRANCH   1  26
BRANCH  10  36
HETATM   36  C21 UNL     1      28.484  10.096  30.043  1.00  0.00     0.093 C 
BRANCH  36  37
HETATM   37  C22 UNL     1      27.061  10.473  30.359  1.00  0.00     0.113 C 
HETATM   38  N10 UNL     1      26.036   9.843  29.625  1.00  0.00    -0.114 NA
ENDBRANCH  36  37
ENDBRANCH  10  36
TORSDOF 10
ENDMDL
