MODEL 1
REMARK VINA RESULT: -7.453568440      0.000      0.000
REMARK  12 active torsions:
REMARK  status: ('A' for Active; 'I' for Inactive)
REMARK    1  A    between atoms: C2_2  and  C3_3 
REMARK    2  A    between atoms: C3_3  and  C5_5 
REMARK    3  A    between atoms: C3_3  and  C7_7 
REMARK    4  A    between atoms: C8_10  and  O1_11 
REMARK    5  A    between atoms: C9_15  and  C10_16 
REMARK    6  A    between atoms: C10_16  and  C11_17 
REMARK    7  A    between atoms: C11_17  and  C12_18 
REMARK    8  A    between atoms: C12_18  and  N3_19 
REMARK    9  A    between atoms: C15_28  and  C16_29 
REMARK   10  A    between atoms: C16_29  and  C17_30 
REMARK   11  A    between atoms: C17_30  and  C18_31 
REMARK   12  A    between atoms: C18_31  and  N7_32 
ROOT
HETATM    1  C7  UNL     1      31.381  10.546  28.791  1.00  0.00     0.101 C 
HETATM    2  N1  UNL     1      31.384  10.296  30.223  1.00  0.00    -0.311 N 
ATOM      3  H1  UNL     1      31.849   9.425  30.480  1.00  0.00     0.170 HD
HETATM    4  C8  UNL     1      30.886  10.997  31.313  1.00  0.00     0.218 C 
HETATM    5  N2  UNL     1      29.781  11.863  31.480  1.00  0.00    -0.343 N 
ATOM      6  H2  UNL     1      29.983  12.768  31.904  1.00  0.00     0.164 HD
HETATM    7  C9  UNL     1      28.400  11.628  31.125  1.00  0.00     0.177 C 
HETATM    8  C14 UNL     1      27.921  10.291  31.511  1.00  0.00     0.241 C 
HETATM    9  O2  UNL     1      27.581  10.106  32.737  1.00  0.00    -0.271 OA
HETATM   10  N6  UNL     1      27.788   9.167  30.667  1.00  0.00    -0.346 N 
ATOM     11  H6  UNL     1      26.882   8.698  30.678  1.00  0.00     0.163 HD
HETATM   12  C15 UNL     1      28.779   8.610  29.797  1.00  0.00     0.177 C 
HETATM   13  C20 UNL     1      29.102   9.403  28.592  1.00  0.00     0.247 C 
HETATM   14  O3  UNL     1      28.105   9.814  27.908  1.00  0.00    -0.271 OA
HETATM   15  N10 UNL     1      30.384   9.776  28.078  1.00  0.00    -0.309 N 
HETATM   16  C21 UNL     1      30.657   9.286  26.703  1.00  0.00     0.160 C 
ENDROOT
BRANCH   7  17
HETATM   17  C10 UNL     1      27.435  12.673  31.576  1.00  0.00     0.036 C 
BRANCH  17  18
HETATM   18  C11 UNL     1      26.056  12.725  31.113  1.00  0.00     0.022 C 
BRANCH  18  19
HETATM   19  C12 UNL     1      25.771  12.617  29.647  1.00  0.00     0.122 C 
BRANCH  19  20
HETATM   20  N3  UNL     1      24.458  12.053  29.391  1.00  0.00    -0.367 N 
HETATM   21  C13 UNL     1      24.138  10.855  29.230  1.00  0.00     0.196 C 
HETATM   22  N4  UNL     1      22.770  10.525  28.990  1.00  0.00    -0.067 NA
HETATM   23  N5  UNL     1      25.060   9.778  29.248  1.00  0.00    -0.067 NA
ATOM     24  H3  UNL     1      23.692  12.724  29.336  1.00  0.00     0.161 HD
ENDBRANCH  19  20
ENDBRANCH  18  19
ENDBRANCH  17  18
ENDBRANCH   7  17
BRANCH   4  25
HETATM   25  O1  UNL     1      31.561  10.842  32.418  1.00  0.00    -0.332 OA
ATOM     26  H1  UNL     1      32.458  11.153  32.385  1.00  0.00     0.220 HD
ENDBRANCH   4  25
BRANCH  12  27
HETATM   27  C16 UNL     1      28.305   7.208  29.392  1.00  0.00     0.036 C 
BRANCH  27  28
HETATM   28  C17 UNL     1      29.311   6.135  29.521  1.00  0.00     0.022 C 
BRANCH  28  29
HETATM   29  C18 UNL     1      29.481   5.362  28.206  1.00  0.00     0.122 C 
BRANCH  29  30
HETATM   30  N7  UNL     1      30.698   4.620  28.139  1.00  0.00    -0.367 N 
HETATM   31  C19 UNL     1      31.889   5.060  28.088  1.00  0.00     0.196 C 
HETATM   32  N8  UNL     1      32.948   4.093  28.023  1.00  0.00    -0.067 NA
HETATM   33  N9  UNL     1      32.233   6.431  28.093  1.00  0.00    -0.067 NA
ATOM     34  H7  UNL     1      30.600   3.605  28.130  1.00  0.00     0.161 HD
ENDBRANCH  29  30
ENDBRANCH  28  29
ENDBRANCH  27  28
ENDBRANCH  12  27
BRANCH   1  35
HETATM   35  C3  UNL     1      31.806  11.870  28.321  1.00  0.00     0.032 C 
HETATM   36  C4  UNL     1      32.719  11.824  27.056  1.00  0.00     0.028 C 
BRANCH  35  37
HETATM   37  C2  UNL     1      30.783  12.872  27.971  1.00  0.00    -0.020 C 
HETATM   38  C1  UNL     1      30.459  13.937  28.696  1.00  0.00     0.008 C 
ENDBRANCH  35  37
BRANCH  35  39
HETATM   39  C5  UNL     1      32.759  12.574  29.298  1.00  0.00     0.016 C 
HETATM   40  C6  UNL     1      34.194  12.514  28.996  1.00  0.00     0.006 C 
ENDBRANCH  35  39
ENDBRANCH   1  35
TORSDOF 12
ENDMDL
MODEL 2
REMARK VINA RESULT: -7.302594271      0.537      1.277
REMARK  12 active torsions:
REMARK  status: ('A' for Active; 'I' for Inactive)
REMARK    1  A    between atoms: C2_2  and  C3_3 
REMARK    2  A    between atoms: C3_3  and  C5_5 
REMARK    3  A    between atoms: C3_3  and  C7_7 
REMARK    4  A    between atoms: C8_10  and  O1_11 
REMARK    5  A    between atoms: C9_15  and  C10_16 
REMARK    6  A    between atoms: C10_16  and  C11_17 
REMARK    7  A    between atoms: C11_17  and  C12_18 
REMARK    8  A    between atoms: C12_18  and  N3_19 
REMARK    9  A    between atoms: C15_28  and  C16_29 
REMARK   10  A    between atoms: C16_29  and  C17_30 
REMARK   11  A    between atoms: C17_30  and  C18_31 
REMARK   12  A    between atoms: C18_31  and  N7_32 
ROOT
HETATM    1  C7  UNL     1      31.337  10.421  28.751  1.00  0.00     0.101 C 
HETATM    2  N1  UNL     1      31.346  10.242  30.194  1.00  0.00    -0.311 N 
ATOM      3  H1  UNL     1      31.818   9.389  30.493  1.00  0.00     0.170 HD
HETATM    4  C8  UNL     1      30.845  10.993  31.249  1.00  0.00     0.218 C 
HETATM    5  N2  UNL     1      29.734  11.858  31.376  1.00  0.00    -0.343 N 
ATOM      6  H2  UNL     1      29.930  12.784  31.754  1.00  0.00     0.164 HD
HETATM    7  C9  UNL     1      28.354  11.595  31.037  1.00  0.00     0.177 C 
HETATM    8  C14 UNL     1      27.886  10.275  31.489  1.00  0.00     0.241 C 
HETATM    9  O2  UNL     1      27.550  10.149  32.724  1.00  0.00    -0.271 OA
HETATM   10  N6  UNL     1      27.760   9.110  30.702  1.00  0.00    -0.346 N 
ATOM     11  H6  UNL     1      26.857   8.636  30.739  1.00  0.00     0.163 HD
HETATM   12  C15 UNL     1      28.752   8.518  29.859  1.00  0.00     0.177 C 
HETATM   13  C20 UNL     1      29.067   9.253  28.615  1.00  0.00     0.247 C 
HETATM   14  O3  UNL     1      28.066   9.622  27.914  1.00  0.00    -0.271 OA
HETATM   15  N10 UNL     1      30.345   9.610  28.080  1.00  0.00    -0.309 N 
HETATM   16  C21 UNL     1      30.618   9.054  26.730  1.00  0.00     0.160 C 
ENDROOT
BRANCH   7  17
HETATM   17  C10 UNL     1      27.382  12.654  31.439  1.00  0.00     0.036 C 
BRANCH  17  18
HETATM   18  C11 UNL     1      26.356  13.163  30.540  1.00  0.00     0.022 C 
BRANCH  18  19
HETATM   19  C12 UNL     1      24.972  12.595  30.610  1.00  0.00     0.122 C 
BRANCH  19  20
HETATM   20  N3  UNL     1      24.482  12.204  29.300  1.00  0.00    -0.367 N 
HETATM   21  C13 UNL     1      24.494  11.075  28.764  1.00  0.00     0.196 C 
HETATM   22  N4  UNL     1      23.948  10.921  27.453  1.00  0.00    -0.067 NA
HETATM   23  N5  UNL     1      25.039   9.915  29.368  1.00  0.00    -0.067 NA
ATOM     24  H3  UNL     1      24.072  12.953  28.742  1.00  0.00     0.161 HD
ENDBRANCH  19  20
ENDBRANCH  18  19
ENDBRANCH  17  18
ENDBRANCH   7  17
BRANCH   4  25
HETATM   25  O1  UNL     1      31.524  10.897  32.359  1.00  0.00    -0.332 OA
ATOM     26  H1  UNL     1      31.022  11.065  33.148  1.00  0.00     0.220 HD
ENDBRANCH   4  25
BRANCH  12  27
HETATM   27  C16 UNL     1      28.288   7.094  29.525  1.00  0.00     0.036 C 
BRANCH  27  28
HETATM   28  C17 UNL     1      29.341   6.059  29.554  1.00  0.00     0.022 C 
BRANCH  28  29
HETATM   29  C18 UNL     1      29.562   5.442  28.167  1.00  0.00     0.122 C 
BRANCH  29  30
HETATM   30  N7  UNL     1      30.726   4.619  28.092  1.00  0.00    -0.367 N 
HETATM   31  C19 UNL     1      31.945   4.977  28.062  1.00  0.00     0.196 C 
HETATM   32  N8  UNL     1      32.936   3.940  27.983  1.00  0.00    -0.067 NA
HETATM   33  N9  UNL     1      32.382   6.320  28.104  1.00  0.00    -0.067 NA
ATOM     34  H7  UNL     1      30.559   3.614  28.057  1.00  0.00     0.161 HD
ENDBRANCH  29  30
ENDBRANCH  28  29
ENDBRANCH  27  28
ENDBRANCH  12  27
BRANCH   1  35
HETATM   35  C3  UNL     1      31.752  11.723  28.215  1.00  0.00     0.032 C 
HETATM   36  C4  UNL     1      32.540  12.600  29.237  1.00  0.00     0.028 C 
BRANCH  35  37
HETATM   37  C2  UNL     1      32.589  11.769  27.003  1.00  0.00    -0.020 C 
HETATM   38  C1  UNL     1      33.637  12.564  26.813  1.00  0.00     0.008 C 
ENDBRANCH  35  37
BRANCH  35  39
HETATM   39  C5  UNL     1      30.567  12.661  27.936  1.00  0.00     0.016 C 
HETATM   40  C6  UNL     1      30.548  13.946  28.643  1.00  0.00     0.006 C 
ENDBRANCH  35  39
ENDBRANCH   1  35
TORSDOF 12
ENDMDL
MODEL 3
REMARK VINA RESULT: -7.187920203      0.907      1.350
REMARK  12 active torsions:
REMARK  status: ('A' for Active; 'I' for Inactive)
REMARK    1  A    between atoms: C2_2  and  C3_3 
REMARK    2  A    between atoms: C3_3  and  C5_5 
REMARK    3  A    between atoms: C3_3  and  C7_7 
REMARK    4  A    between atoms: C8_10  and  O1_11 
REMARK    5  A    between atoms: C9_15  and  C10_16 
REMARK    6  A    between atoms: C10_16  and  C11_17 
REMARK    7  A    between atoms: C11_17  and  C12_18 
REMARK    8  A    between atoms: C12_18  and  N3_19 
REMARK    9  A    between atoms: C15_28  and  C16_29 
REMARK   10  A    between atoms: C16_29  and  C17_30 
REMARK   11  A    between atoms: C17_30  and  C18_31 
REMARK   12  A    between atoms: C18_31  and  N7_32 
ROOT
HETATM    1  C7  UNL     1      31.685  10.985  28.971  1.00  0.00     0.101 C 
HETATM    2  N1  UNL     1      31.609  10.716  30.398  1.00  0.00    -0.311 N 
ATOM      3  H1  UNL     1      32.170   9.915  30.689  1.00  0.00     0.170 HD
HETATM    4  C8  UNL     1      30.931  11.323  31.446  1.00  0.00     0.218 C 
HETATM    5  N2  UNL     1      29.704  12.022  31.526  1.00  0.00    -0.343 N 
ATOM      6  H2  UNL     1      29.742  12.940  31.969  1.00  0.00     0.164 HD
HETATM    7  C9  UNL     1      28.404  11.599  31.059  1.00  0.00     0.177 C 
HETATM    8  C14 UNL     1      28.089  10.203  31.399  1.00  0.00     0.241 C 
HETATM    9  O2  UNL     1      27.682   9.953  32.593  1.00  0.00    -0.271 OA
HETATM   10  N6  UNL     1      28.186   9.084  30.542  1.00  0.00    -0.346 N 
ATOM     11  H6  UNL     1      27.357   8.493  30.477  1.00  0.00     0.163 HD
HETATM   12  C15 UNL     1      29.312   8.686  29.755  1.00  0.00     0.177 C 
HETATM   13  C20 UNL     1      29.615   9.536  28.583  1.00  0.00     0.247 C 
HETATM   14  O3  UNL     1      28.628   9.812  27.821  1.00  0.00    -0.271 OA
HETATM   15  N10 UNL     1      30.868  10.094  28.177  1.00  0.00    -0.309 N 
HETATM   16  C21 UNL     1      31.317   9.669  26.826  1.00  0.00     0.160 C 
ENDROOT
BRANCH   7  17
HETATM   17  C10 UNL     1      27.267  12.491  31.434  1.00  0.00     0.036 C 
BRANCH  17  18
HETATM   18  C11 UNL     1      26.319  13.011  30.460  1.00  0.00     0.022 C 
BRANCH  18  19
HETATM   19  C12 UNL     1      25.121  12.192  30.092  1.00  0.00     0.122 C 
BRANCH  19  20
HETATM   20  N3  UNL     1      25.453  11.143  29.146  1.00  0.00    -0.367 N 
HETATM   21  C13 UNL     1      24.784  10.137  28.824  1.00  0.00     0.196 C 
HETATM   22  N4  UNL     1      25.313   9.228  27.857  1.00  0.00    -0.067 NA
HETATM   23  N5  UNL     1      23.519   9.816  29.376  1.00  0.00    -0.067 NA
ATOM     24  H3  UNL     1      26.355  11.239  28.680  1.00  0.00     0.161 HD
ENDBRANCH  19  20
ENDBRANCH  18  19
ENDBRANCH  17  18
ENDBRANCH   7  17
BRANCH   4  25
HETATM   25  O1  UNL     1      31.530  11.247  32.603  1.00  0.00    -0.332 OA
ATOM     26  H1  UNL     1      31.596  10.369  32.960  1.00  0.00     0.220 HD
ENDBRANCH   4  25
BRANCH  12  27
HETATM   27  C16 UNL     1      29.076   7.238  29.306  1.00  0.00     0.036 C 
BRANCH  27  28
HETATM   28  C17 UNL     1      30.285   6.395  29.216  1.00  0.00     0.022 C 
BRANCH  28  29
HETATM   29  C18 UNL     1      30.688   6.144  27.757  1.00  0.00     0.122 C 
BRANCH  29  30
HETATM   30  N7  UNL     1      32.070   5.824  27.599  1.00  0.00    -0.367 N 
HETATM   31  C19 UNL     1      32.714   4.844  28.087  1.00  0.00     0.196 C 
HETATM   32  N8  UNL     1      34.113   4.751  27.774  1.00  0.00    -0.067 NA
HETATM   33  N9  UNL     1      32.144   3.847  28.911  1.00  0.00    -0.067 NA
ATOM     34  H7  UNL     1      32.611   6.465  27.019  1.00  0.00     0.161 HD
ENDBRANCH  29  30
ENDBRANCH  28  29
ENDBRANCH  27  28
ENDBRANCH  12  27
BRANCH   1  35
HETATM   35  C3  UNL     1      31.955  12.363  28.543  1.00  0.00     0.032 C 
HETATM   36  C4  UNL     1      30.674  13.153  28.129  1.00  0.00     0.028 C 
BRANCH  35  37
HETATM   37  C2  UNL     1      32.642  13.282  29.468  1.00  0.00    -0.020 C 
HETATM   38  C1  UNL     1      32.231  14.501  29.800  1.00  0.00     0.008 C 
ENDBRANCH  35  37
BRANCH  35  39
HETATM   39  C5  UNL     1      32.739  12.438  27.224  1.00  0.00     0.016 C 
HETATM   40  C6  UNL     1      34.203  12.455  27.315  1.00  0.00     0.006 C 
ENDBRANCH  35  39
ENDBRANCH   1  35
TORSDOF 12
ENDMDL
MODEL 4
REMARK VINA RESULT: -7.119063373      1.687      2.163
REMARK  12 active torsions:
REMARK  status: ('A' for Active; 'I' for Inactive)
REMARK    1  A    between atoms: C2_2  and  C3_3 
REMARK    2  A    between atoms: C3_3  and  C5_5 
REMARK    3  A    between atoms: C3_3  and  C7_7 
REMARK    4  A    between atoms: C8_10  and  O1_11 
REMARK    5  A    between atoms: C9_15  and  C10_16 
REMARK    6  A    between atoms: C10_16  and  C11_17 
REMARK    7  A    between atoms: C11_17  and  C12_18 
REMARK    8  A    between atoms: C12_18  and  N3_19 
REMARK    9  A    between atoms: C15_28  and  C16_29 
REMARK   10  A    between atoms: C16_29  and  C17_30 
REMARK   11  A    between atoms: C17_30  and  C18_31 
REMARK   12  A    between atoms: C18_31  and  N7_32 
ROOT
HETATM    1  C7  UNL     1      31.412  10.593  28.801  1.00  0.00     0.101 C 
HETATM    2  N1  UNL     1      31.411  10.333  30.232  1.00  0.00    -0.311 N 
ATOM      3  H1  UNL     1      31.878   9.462  30.485  1.00  0.00     0.170 HD
HETATM    4  C8  UNL     1      30.906  11.025  31.325  1.00  0.00     0.218 C 
HETATM    5  N2  UNL     1      29.797  11.886  31.494  1.00  0.00    -0.343 N 
ATOM      6  H2  UNL     1      29.995  12.788  31.925  1.00  0.00     0.164 HD
HETATM    7  C9  UNL     1      28.418  11.648  31.132  1.00  0.00     0.177 C 
HETATM    8  C14 UNL     1      27.942  10.307  31.506  1.00  0.00     0.241 C 
HETATM    9  O2  UNL     1      27.598  10.112  32.730  1.00  0.00    -0.271 OA
HETATM   10  N6  UNL     1      27.817   9.188  30.654  1.00  0.00    -0.346 N 
ATOM     11  H6  UNL     1      26.912   8.716  30.659  1.00  0.00     0.163 HD
HETATM   12  C15 UNL     1      28.813   8.640  29.785  1.00  0.00     0.177 C 
HETATM   13  C20 UNL     1      29.138   9.443  28.586  1.00  0.00     0.247 C 
HETATM   14  O3  UNL     1      28.142   9.855  27.901  1.00  0.00    -0.271 OA
HETATM   15  N10 UNL     1      30.420   9.825  28.080  1.00  0.00    -0.309 N 
HETATM   16  C21 UNL     1      30.700   9.345  26.702  1.00  0.00     0.160 C 
ENDROOT
BRANCH   7  17
HETATM   17  C10 UNL     1      27.448  12.686  31.587  1.00  0.00     0.036 C 
BRANCH  17  18
HETATM   18  C11 UNL     1      26.184  12.934  30.909  1.00  0.00     0.022 C 
BRANCH  18  19
HETATM   19  C12 UNL     1      24.947  13.162  31.723  1.00  0.00     0.122 C 
BRANCH  19  20
HETATM   20  N3  UNL     1      25.249  13.304  33.136  1.00  0.00    -0.367 N 
HETATM   21  C13 UNL     1      24.623  13.941  34.011  1.00  0.00     0.196 C 
HETATM   22  N4  UNL     1      25.107  13.940  35.354  1.00  0.00    -0.067 NA
HETATM   23  N5  UNL     1      23.451  14.697  33.755  1.00  0.00    -0.067 NA
ATOM     24  H3  UNL     1      26.086  12.819  33.459  1.00  0.00     0.161 HD
ENDBRANCH  19  20
ENDBRANCH  18  19
ENDBRANCH  17  18
ENDBRANCH   7  17
BRANCH   4  25
HETATM   25  O1  UNL     1      31.577  10.864  32.431  1.00  0.00    -0.332 OA
ATOM     26  H1  UNL     1      31.304  10.123  32.959  1.00  0.00     0.220 HD
ENDBRANCH   4  25
BRANCH  12  27
HETATM   27  C16 UNL     1      28.346   7.239  29.368  1.00  0.00     0.036 C 
BRANCH  27  28
HETATM   28  C17 UNL     1      29.349   6.166  29.513  1.00  0.00     0.022 C 
BRANCH  28  29
HETATM   29  C18 UNL     1      29.474   5.335  28.230  1.00  0.00     0.122 C 
BRANCH  29  30
HETATM   30  N7  UNL     1      30.702   4.612  28.140  1.00  0.00    -0.367 N 
HETATM   31  C19 UNL     1      31.884   5.072  28.070  1.00  0.00     0.196 C 
HETATM   32  N8  UNL     1      32.958   4.121  27.985  1.00  0.00    -0.067 NA
HETATM   33  N9  UNL     1      32.206   6.448  28.072  1.00  0.00    -0.067 NA
ATOM     34  H7  UNL     1      30.620   3.596  28.131  1.00  0.00     0.161 HD
ENDBRANCH  29  30
ENDBRANCH  28  29
ENDBRANCH  27  28
ENDBRANCH  12  27
BRANCH   1  35
HETATM   35  C3  UNL     1      31.834  11.921  28.342  1.00  0.00     0.032 C 
HETATM   36  C4  UNL     1      32.725  11.889  27.062  1.00  0.00     0.028 C 
BRANCH  35  37
HETATM   37  C2  UNL     1      30.809  12.932  28.023  1.00  0.00    -0.020 C 
HETATM   38  C1  UNL     1      30.545  14.022  28.735  1.00  0.00     0.008 C 
ENDBRANCH  35  37
BRANCH  35  39
HETATM   39  C5  UNL     1      32.806  12.610  29.312  1.00  0.00     0.016 C 
HETATM   40  C6  UNL     1      34.241  12.431  29.063  1.00  0.00     0.006 C 
ENDBRANCH  35  39
ENDBRANCH   1  35
TORSDOF 12
ENDMDL
MODEL 5
REMARK VINA RESULT: -7.039265546      1.651      3.162
REMARK  12 active torsions:
REMARK  status: ('A' for Active; 'I' for Inactive)
REMARK    1  A    between atoms: C2_2  and  C3_3 
REMARK    2  A    between atoms: C3_3  and  C5_5 
REMARK    3  A    between atoms: C3_3  and  C7_7 
REMARK    4  A    between atoms: C8_10  and  O1_11 
REMARK    5  A    between atoms: C9_15  and  C10_16 
REMARK    6  A    between atoms: C10_16  and  C11_17 
REMARK    7  A    between atoms: C11_17  and  C12_18 
REMARK    8  A    between atoms: C12_18  and  N3_19 
REMARK    9  A    between atoms: C15_28  and  C16_29 
REMARK   10  A    between atoms: C16_29  and  C17_30 
REMARK   11  A    between atoms: C17_30  and  C18_31 
REMARK   12  A    between atoms: C18_31  and  N7_32 
ROOT
HETATM    1  C7  UNL     1      31.361  10.578  28.764  1.00  0.00     0.101 C 
HETATM    2  N1  UNL     1      31.383  10.324  30.196  1.00  0.00    -0.311 N 
ATOM      3  H1  UNL     1      31.862   9.458  30.446  1.00  0.00     0.170 HD
HETATM    4  C8  UNL     1      30.887  11.015  31.293  1.00  0.00     0.218 C 
HETATM    5  N2  UNL     1      29.772  11.866  31.474  1.00  0.00    -0.343 N 
ATOM      6  H2  UNL     1      29.967  12.772  31.899  1.00  0.00     0.164 HD
HETATM    7  C9  UNL     1      28.391  11.613  31.133  1.00  0.00     0.177 C 
HETATM    8  C14 UNL     1      27.933  10.270  31.519  1.00  0.00     0.241 C 
HETATM    9  O2  UNL     1      27.609  10.076  32.749  1.00  0.00    -0.271 OA
HETATM   10  N6  UNL     1      27.807   9.146  30.673  1.00  0.00    -0.346 N 
ATOM     11  H6  UNL     1      26.907   8.666  30.692  1.00  0.00     0.163 HD
HETATM   12  C15 UNL     1      28.795   8.605  29.792  1.00  0.00     0.177 C 
HETATM   13  C20 UNL     1      29.096   9.406  28.586  1.00  0.00     0.247 C 
HETATM   14  O3  UNL     1      28.087   9.805  27.914  1.00  0.00    -0.271 OA
HETATM   15  N10 UNL     1      30.367   9.798  28.060  1.00  0.00    -0.309 N 
HETATM   16  C21 UNL     1      30.632   9.315  26.680  1.00  0.00     0.160 C 
ENDROOT
BRANCH   7  17
HETATM   17  C10 UNL     1      27.417  12.644  31.598  1.00  0.00     0.036 C 
BRANCH  17  18
HETATM   18  C11 UNL     1      27.683  14.073  31.517  1.00  0.00     0.022 C 
BRANCH  18  19
HETATM   19  C12 UNL     1      28.179  14.797  32.731  1.00  0.00     0.122 C 
BRANCH  19  20
HETATM   20  N3  UNL     1      29.402  15.532  32.460  1.00  0.00    -0.367 N 
HETATM   21  C13 UNL     1      30.584  15.195  32.683  1.00  0.00     0.196 C 
HETATM   22  N4  UNL     1      31.642  16.086  32.328  1.00  0.00    -0.067 NA
HETATM   23  N5  UNL     1      30.959  13.973  33.295  1.00  0.00    -0.067 NA
ATOM     24  H3  UNL     1      29.279  16.448  32.029  1.00  0.00     0.161 HD
ENDBRANCH  19  20
ENDBRANCH  18  19
ENDBRANCH  17  18
ENDBRANCH   7  17
BRANCH   4  25
HETATM   25  O1  UNL     1      31.575  10.865  32.391  1.00  0.00    -0.332 OA
ATOM     26  H1  UNL     1      32.468  11.187  32.348  1.00  0.00     0.220 HD
ENDBRANCH   4  25
BRANCH  12  27
HETATM   27  C16 UNL     1      28.336   7.198  29.387  1.00  0.00     0.036 C 
BRANCH  27  28
HETATM   28  C17 UNL     1      29.348   6.133  29.531  1.00  0.00     0.022 C 
BRANCH  28  29
HETATM   29  C18 UNL     1      29.479   5.304  28.247  1.00  0.00     0.122 C 
BRANCH  29  30
HETATM   30  N7  UNL     1      30.717   4.598  28.152  1.00  0.00    -0.367 N 
HETATM   31  C19 UNL     1      31.893   5.074  28.086  1.00  0.00     0.196 C 
HETATM   32  N8  UNL     1      32.979   4.138  27.994  1.00  0.00    -0.067 NA
HETATM   33  N9  UNL     1      32.197   6.454  28.100  1.00  0.00    -0.067 NA
ATOM     34  H7  UNL     1      30.648   3.581  28.135  1.00  0.00     0.161 HD
ENDBRANCH  29  30
ENDBRANCH  28  29
ENDBRANCH  27  28
ENDBRANCH  12  27
BRANCH   1  35
HETATM   35  C3  UNL     1      31.764  11.909  28.294  1.00  0.00     0.032 C 
HETATM   36  C4  UNL     1      32.360  11.911  26.852  1.00  0.00     0.028 C 
BRANCH  35  37
HETATM   37  C2  UNL     1      30.764  12.991  28.256  1.00  0.00    -0.020 C 
HETATM   38  C1  UNL     1      29.661  13.004  27.517  1.00  0.00     0.008 C 
ENDBRANCH  35  37
BRANCH  35  39
HETATM   39  C5  UNL     1      32.963  12.479  29.067  1.00  0.00     0.016 C 
HETATM   40  C6  UNL     1      32.794  13.798  29.689  1.00  0.00     0.006 C 
ENDBRANCH  35  39
ENDBRANCH   1  35
TORSDOF 12
ENDMDL
