MODEL 1
REMARK VINA RESULT: -7.236264710      0.000      0.000
REMARK  11 active torsions:
REMARK  status: ('A' for Active; 'I' for Inactive)
REMARK    1  A    between atoms: C2_2  and  C4_4 
REMARK    2  A    between atoms: C4_4  and  C5_5 
REMARK    3  A    between atoms: C5_5  and  N1_6 
REMARK    4  A    between atoms: C9_13  and  C10_14 
REMARK    5  A    between atoms: C10_14  and  C11_15 
REMARK    6  A    between atoms: C11_15  and  C12_16 
REMARK    7  A    between atoms: C12_16  and  N3_17 
REMARK    8  A    between atoms: C15_26  and  C16_27 
REMARK    9  A    between atoms: C16_27  and  C17_28 
REMARK   10  A    between atoms: C17_28  and  C18_29 
REMARK   11  A    between atoms: C18_29  and  N7_30 
ROOT
HETATM    1  N1  UNL     1      29.875  11.969  27.445  1.00  0.00    -0.312 N 
HETATM    2  C6  UNL     1      28.539  12.177  27.679  1.00  0.00     0.088 C 
HETATM    3  C7  UNL     1      27.585  13.135  27.200  1.00  0.00     0.167 C 
HETATM    4  N2  UNL     1      26.278  12.760  27.714  1.00  0.00    -0.355 N 
ATOM      5  H2  UNL     1      25.519  13.347  27.367  1.00  0.00     0.162 HD
HETATM    6  C8  UNL     1      25.854  11.756  28.588  1.00  0.00     0.240 C 
HETATM    7  O1  UNL     1      25.361  12.178  29.713  1.00  0.00    -0.271 OA
HETATM    8  C9  UNL     1      25.848  10.297  28.492  1.00  0.00     0.177 C 
HETATM    9  N6  UNL     1      26.527   9.572  29.531  1.00  0.00    -0.343 N 
ATOM     10  H6  UNL     1      25.906   8.940  30.037  1.00  0.00     0.163 HD
HETATM   11  C14 UNL     1      27.824   9.532  30.003  1.00  0.00     0.265 C 
HETATM   12  O2  UNL     1      27.970   9.826  31.259  1.00  0.00    -0.266 OA
HETATM   13  C15 UNL     1      29.125   9.210  29.344  1.00  0.00     0.083 C 
HETATM   14  N10 UNL     1      30.088  10.278  29.391  1.00  0.00    -0.302 N 
HETATM   15  C20 UNL     1      30.683  10.507  30.760  1.00  0.00     0.161 C 
HETATM   16  C21 UNL     1      30.586  11.126  28.396  1.00  0.00     0.328 C 
HETATM   17  O3  UNL     1      31.873  11.199  28.276  1.00  0.00    -0.246 OA
ENDROOT
BRANCH   8  18
HETATM   18  C10 UNL     1      24.352   9.884  28.499  1.00  0.00     0.036 C 
BRANCH  18  19
HETATM   19  C11 UNL     1      23.703   9.979  27.191  1.00  0.00     0.022 C 
BRANCH  19  20
HETATM   20  C12 UNL     1      22.529  10.927  27.300  1.00  0.00     0.122 C 
BRANCH  20  21
HETATM   21  N3  UNL     1      22.075  11.392  26.021  1.00  0.00    -0.367 N 
HETATM   22  C13 UNL     1      22.560  12.458  25.459  1.00  0.00     0.196 C 
HETATM   23  N4  UNL     1      22.037  12.836  24.181  1.00  0.00    -0.067 NA
HETATM   24  N5  UNL     1      23.578  13.237  26.079  1.00  0.00    -0.067 NA
ATOM     25  H3  UNL     1      21.347  10.868  25.536  1.00  0.00     0.161 HD
ENDBRANCH  20  21
ENDBRANCH  19  20
ENDBRANCH  18  19
ENDBRANCH   8  18
BRANCH  13  26
HETATM   26  C16 UNL     1      29.020   8.403  28.111  1.00  0.00     0.065 C 
BRANCH  26  27
HETATM   27  C17 UNL     1      30.276   7.816  27.578  1.00  0.00     0.026 C 
BRANCH  27  28
HETATM   28  C18 UNL     1      30.901   6.796  28.508  1.00  0.00     0.122 C 
BRANCH  28  29
HETATM   29  N7  UNL     1      32.101   6.295  27.883  1.00  0.00    -0.367 N 
HETATM   30  C19 UNL     1      32.492   5.075  28.086  1.00  0.00     0.196 C 
HETATM   31  N8  UNL     1      31.726   4.233  28.933  1.00  0.00    -0.067 NA
HETATM   32  N9  UNL     1      33.665   4.559  27.484  1.00  0.00    -0.067 NA
ATOM     33  H7  UNL     1      32.647   6.907  27.275  1.00  0.00     0.161 HD
ENDBRANCH  28  29
ENDBRANCH  27  28
ENDBRANCH  26  27
ENDBRANCH  13  26
BRANCH   1  34
HETATM   34  C5  UNL     1      30.678  12.407  26.334  1.00  0.00     0.133 C 
BRANCH  34  35
HETATM   35  C4  UNL     1      30.299  11.840  25.020  1.00  0.00     0.024 C 
BRANCH  35  36
HETATM   36  C2  UNL     1      30.972  10.627  24.527  1.00  0.00    -0.021 C 
HETATM   37  C1  UNL     1      32.444  10.586  24.889  1.00  0.00     0.009 C 
HETATM   38  C3  UNL     1      30.889  10.648  22.996  1.00  0.00     0.009 C 
ENDBRANCH  35  36
ENDBRANCH  34  35
ENDBRANCH   1  34
TORSDOF 11
ENDMDL
MODEL 2
REMARK VINA RESULT: -7.175199842      1.207      1.557
REMARK  11 active torsions:
REMARK  status: ('A' for Active; 'I' for Inactive)
REMARK    1  A    between atoms: C2_2  and  C4_4 
REMARK    2  A    between atoms: C4_4  and  C5_5 
REMARK    3  A    between atoms: C5_5  and  N1_6 
REMARK    4  A    between atoms: C9_13  and  C10_14 
REMARK    5  A    between atoms: C10_14  and  C11_15 
REMARK    6  A    between atoms: C11_15  and  C12_16 
REMARK    7  A    between atoms: C12_16  and  N3_17 
REMARK    8  A    between atoms: C15_26  and  C16_27 
REMARK    9  A    between atoms: C16_27  and  C17_28 
REMARK   10  A    between atoms: C17_28  and  C18_29 
REMARK   11  A    between atoms: C18_29  and  N7_30 
ROOT
HETATM    1  N1  UNL     1      29.794  12.065  27.566  1.00  0.00    -0.312 N 
HETATM    2  C6  UNL     1      28.438  12.218  27.700  1.00  0.00     0.088 C 
HETATM    3  C7  UNL     1      27.488  13.162  27.184  1.00  0.00     0.167 C 
HETATM    4  N2  UNL     1      26.160  12.720  27.575  1.00  0.00    -0.355 N 
ATOM      5  H2  UNL     1      25.410  13.295  27.192  1.00  0.00     0.162 HD
HETATM    6  C8  UNL     1      25.706  11.666  28.371  1.00  0.00     0.240 C 
HETATM    7  O1  UNL     1      25.110  12.022  29.469  1.00  0.00    -0.271 OA
HETATM    8  C9  UNL     1      25.763  10.213  28.217  1.00  0.00     0.177 C 
HETATM    9  N6  UNL     1      26.384   9.468  29.277  1.00  0.00    -0.343 N 
ATOM     10  H6  UNL     1      25.749   8.794  29.706  1.00  0.00     0.163 HD
HETATM   11  C14 UNL     1      27.641   9.452  29.851  1.00  0.00     0.265 C 
HETATM   12  O2  UNL     1      27.675   9.697  31.126  1.00  0.00    -0.266 OA
HETATM   13  C15 UNL     1      29.000   9.204  29.287  1.00  0.00     0.083 C 
HETATM   14  N10 UNL     1      29.916  10.301  29.454  1.00  0.00    -0.302 N 
HETATM   15  C20 UNL     1      30.391  10.492  30.875  1.00  0.00     0.161 C 
HETATM   16  C21 UNL     1      30.459  11.208  28.537  1.00  0.00     0.328 C 
HETATM   17  O3  UNL     1      31.747  11.330  28.524  1.00  0.00    -0.246 OA
ENDROOT
BRANCH   8  18
HETATM   18  C10 UNL     1      24.287   9.749  28.086  1.00  0.00     0.036 C 
BRANCH  18  19
HETATM   19  C11 UNL     1      23.596  10.289  26.916  1.00  0.00     0.022 C 
BRANCH  19  20
HETATM   20  C12 UNL     1      22.238  10.799  27.347  1.00  0.00     0.122 C 
BRANCH  20  21
HETATM   21  N3  UNL     1      22.112  10.894  28.772  1.00  0.00    -0.367 N 
HETATM   22  C13 UNL     1      21.670  11.966  29.358  1.00  0.00     0.196 C 
HETATM   23  N4  UNL     1      21.584  11.957  30.788  1.00  0.00    -0.067 NA
HETATM   24  N5  UNL     1      21.282  13.120  28.621  1.00  0.00    -0.067 NA
ATOM     25  H3  UNL     1      22.377  10.094  29.345  1.00  0.00     0.161 HD
ENDBRANCH  20  21
ENDBRANCH  19  20
ENDBRANCH  18  19
ENDBRANCH   8  18
BRANCH  13  26
HETATM   26  C16 UNL     1      29.024   8.447  28.019  1.00  0.00     0.065 C 
BRANCH  26  27
HETATM   27  C17 UNL     1      30.337   7.910  27.576  1.00  0.00     0.026 C 
BRANCH  27  28
HETATM   28  C18 UNL     1      30.902   6.863  28.514  1.00  0.00     0.122 C 
BRANCH  28  29
HETATM   29  N7  UNL     1      32.096   6.321  27.914  1.00  0.00    -0.367 N 
HETATM   30  C19 UNL     1      32.437   5.086  28.119  1.00  0.00     0.196 C 
HETATM   31  N8  UNL     1      31.621   4.269  28.945  1.00  0.00    -0.067 NA
HETATM   32  N9  UNL     1      33.603   4.529  27.542  1.00  0.00    -0.067 NA
ATOM     33  H7  UNL     1      32.678   6.914  27.322  1.00  0.00     0.161 HD
ENDBRANCH  28  29
ENDBRANCH  27  28
ENDBRANCH  26  27
ENDBRANCH  13  26
BRANCH   1  34
HETATM   34  C5  UNL     1      30.666  12.579  26.543  1.00  0.00     0.133 C 
BRANCH  34  35
HETATM   35  C4  UNL     1      30.417  12.052  25.182  1.00  0.00     0.024 C 
BRANCH  35  36
HETATM   36  C2  UNL     1      30.897  10.708  24.820  1.00  0.00    -0.021 C 
HETATM   37  C1  UNL     1      32.341  10.474  25.219  1.00  0.00     0.009 C 
HETATM   38  C3  UNL     1      30.832  10.595  23.292  1.00  0.00     0.009 C 
ENDBRANCH  35  36
ENDBRANCH  34  35
ENDBRANCH   1  34
TORSDOF 11
ENDMDL
MODEL 3
REMARK VINA RESULT: -6.780351422      3.005      7.519
REMARK  11 active torsions:
REMARK  status: ('A' for Active; 'I' for Inactive)
REMARK    1  A    between atoms: C2_2  and  C4_4 
REMARK    2  A    between atoms: C4_4  and  C5_5 
REMARK    3  A    between atoms: C5_5  and  N1_6 
REMARK    4  A    between atoms: C9_13  and  C10_14 
REMARK    5  A    between atoms: C10_14  and  C11_15 
REMARK    6  A    between atoms: C11_15  and  C12_16 
REMARK    7  A    between atoms: C12_16  and  N3_17 
REMARK    8  A    between atoms: C15_26  and  C16_27 
REMARK    9  A    between atoms: C16_27  and  C17_28 
REMARK   10  A    between atoms: C17_28  and  C18_29 
REMARK   11  A    between atoms: C18_29  and  N7_30 
ROOT
HETATM    1  N1  UNL     1      32.302  13.818  28.906  1.00  0.00    -0.312 N 
HETATM    2  C6  UNL     1      32.285  12.624  28.231  1.00  0.00     0.088 C 
HETATM    3  C7  UNL     1      33.307  11.739  27.751  1.00  0.00     0.167 C 
HETATM    4  N2  UNL     1      32.658  10.551  27.222  1.00  0.00    -0.355 N 
ATOM      5  H2  UNL     1      33.313   9.829  26.919  1.00  0.00     0.162 HD
HETATM    6  C8  UNL     1      31.317  10.200  27.045  1.00  0.00     0.240 C 
HETATM    7  O1  UNL     1      30.944  10.059  25.809  1.00  0.00    -0.271 OA
HETATM    8  C9  UNL     1      30.228   9.950  27.987  1.00  0.00     0.177 C 
HETATM    9  N6  UNL     1      29.036  10.739  27.829  1.00  0.00    -0.343 N 
ATOM     10  H6  UNL     1      28.209  10.168  27.652  1.00  0.00     0.163 HD
HETATM   11  C14 UNL     1      28.750  12.090  27.862  1.00  0.00     0.265 C 
HETATM   12  O2  UNL     1      28.213  12.573  26.784  1.00  0.00    -0.266 OA
HETATM   13  C15 UNL     1      28.939  13.132  28.916  1.00  0.00     0.083 C 
HETATM   14  N10 UNL     1      29.779  14.229  28.513  1.00  0.00    -0.302 N 
HETATM   15  C20 UNL     1      29.134  15.160  27.514  1.00  0.00     0.161 C 
HETATM   16  C21 UNL     1      31.074  14.598  28.894  1.00  0.00     0.328 C 
HETATM   17  O3  UNL     1      31.241  15.815  29.302  1.00  0.00    -0.246 OA
ENDROOT
BRANCH   8  18
HETATM   18  C10 UNL     1      29.856   8.454  27.808  1.00  0.00     0.036 C 
BRANCH  18  19
HETATM   19  C11 UNL     1      30.836   7.527  28.371  1.00  0.00     0.022 C 
BRANCH  19  20
HETATM   20  C12 UNL     1      31.100   6.429  27.364  1.00  0.00     0.122 C 
BRANCH  20  21
HETATM   21  N3  UNL     1      32.469   5.998  27.363  1.00  0.00    -0.367 N 
HETATM   22  C13 UNL     1      32.863   4.944  28.011  1.00  0.00     0.196 C 
HETATM   23  N4  UNL     1      34.252   4.601  27.945  1.00  0.00    -0.067 NA
HETATM   24  N5  UNL     1      31.960   4.143  28.766  1.00  0.00    -0.067 NA
ATOM     25  H3  UNL     1      33.155   6.538  26.836  1.00  0.00     0.161 HD
ENDBRANCH  20  21
ENDBRANCH  19  20
ENDBRANCH  18  19
ENDBRANCH   8  18
BRANCH  13  26
HETATM   26  C16 UNL     1      29.059  12.616  30.294  1.00  0.00     0.065 C 
BRANCH  26  27
HETATM   27  C17 UNL     1      27.944  12.915  31.228  1.00  0.00     0.026 C 
BRANCH  27  28
HETATM   28  C18 UNL     1      27.082  11.708  31.538  1.00  0.00     0.122 C 
BRANCH  28  29
HETATM   29  N7  UNL     1      26.318  11.388  30.356  1.00  0.00    -0.367 N 
HETATM   30  C19 UNL     1      26.444  10.231  29.783  1.00  0.00     0.196 C 
HETATM   31  N8  UNL     1      27.343   9.279  30.329  1.00  0.00    -0.067 NA
HETATM   32  N9  UNL     1      25.706   9.891  28.624  1.00  0.00    -0.067 NA
ATOM     33  H7  UNL     1      25.674  12.077  29.969  1.00  0.00     0.161 HD
ENDBRANCH  28  29
ENDBRANCH  27  28
ENDBRANCH  26  27
ENDBRANCH  13  26
BRANCH   1  34
HETATM   34  C5  UNL     1      33.354  14.390  29.704  1.00  0.00     0.133 C 
BRANCH  34  35
HETATM   35  C4  UNL     1      33.687  13.643  30.937  1.00  0.00     0.024 C 
BRANCH  35  36
HETATM   36  C2  UNL     1      32.653  12.829  31.599  1.00  0.00    -0.021 C 
HETATM   37  C1  UNL     1      32.226  13.401  32.938  1.00  0.00     0.009 C 
HETATM   38  C3  UNL     1      33.264  11.450  31.877  1.00  0.00     0.009 C 
ENDBRANCH  35  36
ENDBRANCH  34  35
ENDBRANCH   1  34
TORSDOF 11
ENDMDL
MODEL 4
REMARK VINA RESULT: -6.744413699      1.729      2.191
REMARK  11 active torsions:
REMARK  status: ('A' for Active; 'I' for Inactive)
REMARK    1  A    between atoms: C2_2  and  C4_4 
REMARK    2  A    between atoms: C4_4  and  C5_5 
REMARK    3  A    between atoms: C5_5  and  N1_6 
REMARK    4  A    between atoms: C9_13  and  C10_14 
REMARK    5  A    between atoms: C10_14  and  C11_15 
REMARK    6  A    between atoms: C11_15  and  C12_16 
REMARK    7  A    between atoms: C12_16  and  N3_17 
REMARK    8  A    between atoms: C15_26  and  C16_27 
REMARK    9  A    between atoms: C16_27  and  C17_28 
REMARK   10  A    between atoms: C17_28  and  C18_29 
REMARK   11  A    between atoms: C18_29  and  N7_30 
ROOT
HETATM    1  N1  UNL     1      29.740  11.232  27.175  1.00  0.00    -0.312 N 
HETATM    2  C6  UNL     1      28.773  12.112  27.589  1.00  0.00     0.088 C 
HETATM    3  C7  UNL     1      28.062  13.181  26.949  1.00  0.00     0.167 C 
HETATM    4  N2  UNL     1      27.054  13.667  27.877  1.00  0.00    -0.355 N 
ATOM      5  H2  UNL     1      26.448  14.386  27.481  1.00  0.00     0.162 HD
HETATM    6  C8  UNL     1      26.750  13.347  29.202  1.00  0.00     0.240 C 
HETATM    7  O1  UNL     1      26.945  14.305  30.058  1.00  0.00    -0.271 OA
HETATM    8  C9  UNL     1      26.244  12.131  29.835  1.00  0.00     0.177 C 
HETATM    9  N6  UNL     1      27.034  11.572  30.898  1.00  0.00    -0.343 N 
ATOM     10  H6  UNL     1      26.523  11.523  31.781  1.00  0.00     0.163 HD
HETATM   11  C14 UNL     1      28.323  11.086  31.004  1.00  0.00     0.265 C 
HETATM   12  O2  UNL     1      29.074  11.682  31.879  1.00  0.00    -0.266 OA
HETATM   13  C15 UNL     1      29.043   9.986  30.296  1.00  0.00     0.083 C 
HETATM   14  N10 UNL     1      30.217  10.415  29.582  1.00  0.00    -0.302 N 
HETATM   15  C20 UNL     1      31.377  10.785  30.476  1.00  0.00     0.161 C 
HETATM   16  C21 UNL     1      30.482  10.533  28.214  1.00  0.00     0.328 C 
HETATM   17  O3  UNL     1      31.545   9.943  27.769  1.00  0.00    -0.246 OA
ENDROOT
BRANCH   8  18
HETATM   18  C10 UNL     1      24.848  12.505  30.402  1.00  0.00     0.036 C 
BRANCH  18  19
HETATM   19  C11 UNL     1      23.767  12.418  29.421  1.00  0.00     0.022 C 
BRANCH  19  20
HETATM   20  C12 UNL     1      23.124  11.052  29.527  1.00  0.00     0.122 C 
BRANCH  20  21
HETATM   21  N3  UNL     1      22.570  10.605  28.282  1.00  0.00    -0.367 N 
HETATM   22  C13 UNL     1      23.173   9.736  27.527  1.00  0.00     0.196 C 
HETATM   23  N4  UNL     1      22.534   9.358  26.303  1.00  0.00    -0.067 NA
HETATM   24  N5  UNL     1      24.428   9.168  27.889  1.00  0.00    -0.067 NA
ATOM     25  H3  UNL     1      21.673  10.982  27.978  1.00  0.00     0.161 HD
ENDBRANCH  20  21
ENDBRANCH  19  20
ENDBRANCH  18  19
ENDBRANCH   8  18
BRANCH  13  26
HETATM   26  C16 UNL     1      28.175   8.962  29.681  1.00  0.00     0.065 C 
BRANCH  26  27
HETATM   27  C17 UNL     1      28.721   7.584  29.579  1.00  0.00     0.026 C 
BRANCH  27  28
HETATM   28  C18 UNL     1      29.138   7.208  28.172  1.00  0.00     0.122 C 
BRANCH  28  29
HETATM   29  N7  UNL     1      30.557   6.951  28.179  1.00  0.00    -0.367 N 
HETATM   30  C19 UNL     1      31.010   5.743  28.039  1.00  0.00     0.196 C 
HETATM   31  N8  UNL     1      30.093   4.672  27.879  1.00  0.00    -0.067 NA
HETATM   32  N9  UNL     1      32.398   5.463  28.041  1.00  0.00    -0.067 NA
ATOM     33  H7  UNL     1      31.211   7.725  28.294  1.00  0.00     0.161 HD
ENDBRANCH  28  29
ENDBRANCH  27  28
ENDBRANCH  26  27
ENDBRANCH  13  26
BRANCH   1  34
HETATM   34  C5  UNL     1      30.086  10.833  25.836  1.00  0.00     0.133 C 
BRANCH  34  35
HETATM   35  C4  UNL     1      30.630  11.910  24.979  1.00  0.00     0.024 C 
BRANCH  35  36
HETATM   36  C2  UNL     1      31.443  11.565  23.801  1.00  0.00    -0.021 C 
HETATM   37  C1  UNL     1      30.647  10.842  22.731  1.00  0.00     0.009 C 
HETATM   38  C3  UNL     1      32.541  10.602  24.268  1.00  0.00     0.009 C 
ENDBRANCH  35  36
ENDBRANCH  34  35
ENDBRANCH   1  34
TORSDOF 11
ENDMDL
MODEL 5
REMARK VINA RESULT: -6.663559937      1.991      2.758
REMARK  11 active torsions:
REMARK  status: ('A' for Active; 'I' for Inactive)
REMARK    1  A    between atoms: C2_2  and  C4_4 
REMARK    2  A    between atoms: C4_4  and  C5_5 
REMARK    3  A    between atoms: C5_5  and  N1_6 
REMARK    4  A    between atoms: C9_13  and  C10_14 
REMARK    5  A    between atoms: C10_14  and  C11_15 
REMARK    6  A    between atoms: C11_15  and  C12_16 
REMARK    7  A    between atoms: C12_16  and  N3_17 
REMARK    8  A    between atoms: C15_26  and  C16_27 
REMARK    9  A    between atoms: C16_27  and  C17_28 
REMARK   10  A    between atoms: C17_28  and  C18_29 
REMARK   11  A    between atoms: C18_29  and  N7_30 
ROOT
HETATM    1  N1  UNL     1      31.108  12.982  27.598  1.00  0.00    -0.312 N 
HETATM    2  C6  UNL     1      30.050  13.511  28.292  1.00  0.00     0.088 C 
HETATM    3  C7  UNL     1      29.154  14.606  28.054  1.00  0.00     0.167 C 
HETATM    4  N2  UNL     1      28.144  14.593  29.099  1.00  0.00    -0.355 N 
ATOM      5  H2  UNL     1      27.418  15.298  28.973  1.00  0.00     0.162 HD
HETATM    6  C8  UNL     1      27.969  13.808  30.241  1.00  0.00     0.240 C 
HETATM    7  O1  UNL     1      28.073  14.445  31.368  1.00  0.00    -0.271 OA
HETATM    8  C9  UNL     1      27.684  12.387  30.431  1.00  0.00     0.177 C 
HETATM    9  N6  UNL     1      28.608  11.638  31.238  1.00  0.00    -0.343 N 
ATOM     10  H6  UNL     1      28.164  11.219  32.055  1.00  0.00     0.163 HD
HETATM   11  C14 UNL     1      29.958  11.353  31.163  1.00  0.00     0.265 C 
HETATM   12  O2  UNL     1      30.666  11.735  32.183  1.00  0.00    -0.266 OA
HETATM   13  C15 UNL     1      30.786  10.677  30.121  1.00  0.00     0.083 C 
HETATM   14  N10 UNL     1      31.841  11.497  29.585  1.00  0.00    -0.302 N 
HETATM   15  C20 UNL     1      32.986  11.726  30.543  1.00  0.00     0.161 C 
HETATM   16  C21 UNL     1      32.004  12.103  28.335  1.00  0.00     0.328 C 
HETATM   17  O3  UNL     1      33.113  11.868  27.709  1.00  0.00    -0.246 OA
ENDROOT
BRANCH   8  18
HETATM   18  C10 UNL     1      26.284  12.328  31.100  1.00  0.00     0.036 C 
BRANCH  18  19
HETATM   19  C11 UNL     1      25.174  12.270  30.151  1.00  0.00     0.022 C 
BRANCH  19  20
HETATM   20  C12 UNL     1      25.463  11.190  29.131  1.00  0.00     0.122 C 
BRANCH  20  21
HETATM   21  N3  UNL     1      24.416  11.054  28.160  1.00  0.00    -0.367 N 
HETATM   22  C13 UNL     1      24.197   9.940  27.529  1.00  0.00     0.196 C 
HETATM   23  N4  UNL     1      23.127   9.910  26.578  1.00  0.00    -0.067 NA
HETATM   24  N5  UNL     1      24.984   8.776  27.762  1.00  0.00    -0.067 NA
ATOM     25  H3  UNL     1      23.824  11.859  27.957  1.00  0.00     0.161 HD
ENDBRANCH  20  21
ENDBRANCH  19  20
ENDBRANCH  18  19
ENDBRANCH   8  18
BRANCH  13  26
HETATM   26  C16 UNL     1      30.041   9.793  29.203  1.00  0.00     0.065 C 
BRANCH  26  27
HETATM   27  C17 UNL     1      29.826   8.389  29.642  1.00  0.00     0.026 C 
BRANCH  27  28
HETATM   28  C18 UNL     1      29.807   7.400  28.495  1.00  0.00     0.122 C 
BRANCH  28  29
HETATM   29  N7  UNL     1      31.046   6.660  28.521  1.00  0.00    -0.367 N 
HETATM   30  C19 UNL     1      31.060   5.387  28.271  1.00  0.00     0.196 C 
HETATM   31  N8  UNL     1      29.841   4.725  27.972  1.00  0.00    -0.067 NA
HETATM   32  N9  UNL     1      32.261   4.639  28.290  1.00  0.00    -0.067 NA
ATOM     33  H7  UNL     1      31.918   7.143  28.737  1.00  0.00     0.161 HD
ENDBRANCH  28  29
ENDBRANCH  27  28
ENDBRANCH  26  27
ENDBRANCH  13  26
BRANCH   1  34
HETATM   34  C5  UNL     1      31.428  13.109  26.201  1.00  0.00     0.133 C 
BRANCH  34  35
HETATM   35  C4  UNL     1      30.639  12.246  25.293  1.00  0.00     0.024 C 
BRANCH  35  36
HETATM   36  C2  UNL     1      31.262  11.053  24.696  1.00  0.00    -0.021 C 
HETATM   37  C1  UNL     1      30.738  10.751  23.305  1.00  0.00     0.009 C 
HETATM   38  C3  UNL     1      30.896   9.855  25.581  1.00  0.00     0.009 C 
ENDBRANCH  35  36
ENDBRANCH  34  35
ENDBRANCH   1  34
TORSDOF 11
ENDMDL
