MODEL 1
REMARK VINA RESULT: -6.872096956      0.000      0.000
REMARK  12 active torsions:
REMARK  status: ('A' for Active; 'I' for Inactive)
REMARK    1  A    between atoms: C2_2  and  N1_3 
REMARK    2  A    between atoms: C3_4  and  O1_5 
REMARK    3  A    between atoms: C4_7  and  C5_8 
REMARK    4  A    between atoms: C5_8  and  C6_9 
REMARK    5  A    between atoms: C6_9  and  C7_10 
REMARK    6  A    between atoms: C7_10  and  N2_11 
REMARK    7  A    between atoms: C10_20  and  C11_21 
REMARK    8  A    between atoms: C11_21  and  C12_22 
REMARK    9  A    between atoms: C16_29  and  C17_30 
REMARK   10  A    between atoms: C17_30  and  C18_31 
REMARK   11  A    between atoms: C18_31  and  C19_32 
REMARK   12  A    between atoms: C19_32  and  N7_33 
ROOT
HETATM    1  N1  UNL     1      28.729  10.350  29.908  1.00  0.00    -0.340 N 
HETATM    2  C3  UNL     1      28.878  11.409  30.821  1.00  0.00     0.163 C 
HETATM    3  C4  UNL     1      28.649  12.832  30.750  1.00  0.00     0.063 C 
HETATM    4  N5  UNL     1      29.517  13.694  30.034  1.00  0.00    -0.325 N 
ATOM      5  H5  UNL     1      29.189  14.660  30.053  1.00  0.00     0.169 HD
HETATM    6  C9  UNL     1      30.681  13.568  29.324  1.00  0.00     0.244 C 
HETATM    7  O2  UNL     1      30.769  14.195  28.214  1.00  0.00    -0.271 OA
HETATM    8  C10 UNL     1      31.919  12.770  29.673  1.00  0.00     0.177 C 
HETATM    9  N6  UNL     1      32.642  12.532  28.460  1.00  0.00    -0.346 N 
ATOM     10  H6  UNL     1      33.331  13.243  28.215  1.00  0.00     0.163 HD
HETATM   11  C15 UNL     1      32.537  11.464  27.563  1.00  0.00     0.240 C 
HETATM   12  O3  UNL     1      33.617  11.150  26.949  1.00  0.00    -0.271 OA
HETATM   13  C16 UNL     1      31.287  10.681  27.273  1.00  0.00     0.171 C 
HETATM   14  N10 UNL     1      30.642  10.480  28.480  1.00  0.00    -0.389 N 
ATOM     15  H10 UNL     1      31.185  10.487  29.344  1.00  0.00     0.156 HD
HETATM   16  C21 UNL     1      29.238  10.265  28.542  1.00  0.00     0.177 C 
HETATM   17  C22 UNL     1      28.439  11.002  27.526  1.00  0.00     0.055 C 
ENDROOT
BRANCH   3  18
HETATM   18  C5  UNL     1      27.220  13.281  30.493  1.00  0.00     0.063 C 
BRANCH  18  19
HETATM   19  C6  UNL     1      26.161  12.401  31.040  1.00  0.00     0.026 C 
BRANCH  19  20
HETATM   20  C7  UNL     1      25.038  12.105  30.072  1.00  0.00     0.122 C 
BRANCH  20  21
HETATM   21  N2  UNL     1      25.457  11.184  29.061  1.00  0.00    -0.367 N 
HETATM   22  C8  UNL     1      24.741  10.152  28.796  1.00  0.00     0.196 C 
HETATM   23  N3  UNL     1      25.194   9.270  27.791  1.00  0.00    -0.067 NA
HETATM   24  N4  UNL     1      23.527   9.859  29.461  1.00  0.00    -0.067 NA
ATOM     25  H2  UNL     1      26.325  11.347  28.550  1.00  0.00     0.161 HD
ENDBRANCH  20  21
ENDBRANCH  19  20
ENDBRANCH  18  19
ENDBRANCH   3  18
BRANCH   2  26
HETATM   26  O1  UNL     1      29.323  10.996  31.987  1.00  0.00    -0.345 OA
ATOM     27  H1  UNL     1      29.813  11.671  32.442  1.00  0.00     0.219 HD
ENDBRANCH   2  26
BRANCH   1  28
HETATM   28  C2  UNL     1      27.996   9.148  30.340  1.00  0.00     0.122 C 
HETATM   29  C1  UNL     1      28.447   7.901  29.651  1.00  0.00     0.026 C 
ENDBRANCH   1  28
BRANCH   8  30
HETATM   30  C11 UNL     1      32.731  13.667  30.579  1.00  0.00     0.038 C 
BRANCH  30  31
HETATM   31  C12 UNL     1      33.032  13.166  31.930  1.00  0.00    -0.020 C 
HETATM   32  C13 UNL     1      32.982  11.621  31.824  1.00  0.00     0.009 C 
HETATM   33  C14 UNL     1      32.024  13.481  33.006  1.00  0.00     0.009 C 
ENDBRANCH  30  31
ENDBRANCH   8  30
BRANCH  13  34
HETATM   34  C17 UNL     1      31.655   9.350  26.664  1.00  0.00     0.036 C 
BRANCH  34  35
HETATM   35  C18 UNL     1      31.885   8.247  27.647  1.00  0.00     0.022 C 
BRANCH  35  36
HETATM   36  C19 UNL     1      31.169   7.009  27.095  1.00  0.00     0.122 C 
BRANCH  36  37
HETATM   37  N7  UNL     1      32.068   5.903  27.097  1.00  0.00    -0.367 N 
HETATM   38  C20 UNL     1      31.964   4.898  27.919  1.00  0.00     0.196 C 
HETATM   39  N8  UNL     1      30.898   4.923  28.851  1.00  0.00    -0.067 NA
HETATM   40  N9  UNL     1      32.865   3.812  27.906  1.00  0.00    -0.067 NA
ATOM     41  H7  UNL     1      32.831   5.899  26.420  1.00  0.00     0.161 HD
ENDBRANCH  36  37
ENDBRANCH  35  36
ENDBRANCH  34  35
ENDBRANCH  13  34
TORSDOF 12
ENDMDL
MODEL 2
REMARK VINA RESULT: -6.869348632      1.666      6.528
REMARK  12 active torsions:
REMARK  status: ('A' for Active; 'I' for Inactive)
REMARK    1  A    between atoms: C2_2  and  N1_3 
REMARK    2  A    between atoms: C3_4  and  O1_5 
REMARK    3  A    between atoms: C4_7  and  C5_8 
REMARK    4  A    between atoms: C5_8  and  C6_9 
REMARK    5  A    between atoms: C6_9  and  C7_10 
REMARK    6  A    between atoms: C7_10  and  N2_11 
REMARK    7  A    between atoms: C10_20  and  C11_21 
REMARK    8  A    between atoms: C11_21  and  C12_22 
REMARK    9  A    between atoms: C16_29  and  C17_30 
REMARK   10  A    between atoms: C17_30  and  C18_31 
REMARK   11  A    between atoms: C18_31  and  C19_32 
REMARK   12  A    between atoms: C19_32  and  N7_33 
ROOT
HETATM    1  N1  UNL     1      30.108  10.831  27.394  1.00  0.00    -0.340 N 
HETATM    2  C3  UNL     1      31.062  10.341  28.305  1.00  0.00     0.163 C 
HETATM    3  C4  UNL     1      31.016   9.384  29.384  1.00  0.00     0.063 C 
HETATM    4  N5  UNL     1      30.393   9.683  30.622  1.00  0.00    -0.325 N 
ATOM      5  H5  UNL     1      30.415   8.885  31.258  1.00  0.00     0.169 HD
HETATM    6  C9  UNL     1      29.770  10.763  31.187  1.00  0.00     0.244 C 
HETATM    7  O2  UNL     1      28.690  10.553  31.835  1.00  0.00    -0.271 OA
HETATM    8  C10 UNL     1      30.190  12.218  31.157  1.00  0.00     0.177 C 
HETATM    9  N6  UNL     1      29.029  13.012  31.425  1.00  0.00    -0.346 N 
ATOM     10  H6  UNL     1      28.858  13.219  32.409  1.00  0.00     0.163 HD
HETATM   11  C15 UNL     1      28.096  13.544  30.530  1.00  0.00     0.240 C 
HETATM   12  O3  UNL     1      27.557  14.651  30.885  1.00  0.00    -0.271 OA
HETATM   13  C16 UNL     1      27.687  12.930  29.219  1.00  0.00     0.171 C 
HETATM   14  N10 UNL     1      28.836  12.438  28.624  1.00  0.00    -0.389 N 
ATOM     15  H10 UNL     1      29.738  12.849  28.864  1.00  0.00     0.156 HD
HETATM   16  C21 UNL     1      28.783  11.371  27.686  1.00  0.00     0.177 C 
HETATM   17  C22 UNL     1      27.732  10.351  27.944  1.00  0.00     0.055 C 
ENDROOT
BRANCH   3  18
HETATM   18  C5  UNL     1      30.663   7.953  29.012  1.00  0.00     0.063 C 
BRANCH  18  19
HETATM   19  C6  UNL     1      30.879   7.586  27.594  1.00  0.00     0.026 C 
BRANCH  19  20
HETATM   20  C7  UNL     1      31.013   6.099  27.350  1.00  0.00     0.122 C 
BRANCH  20  21
HETATM   21  N2  UNL     1      32.386   5.719  27.219  1.00  0.00    -0.367 N 
HETATM   22  C8  UNL     1      32.870   4.796  27.967  1.00  0.00     0.196 C 
HETATM   23  N3  UNL     1      34.230   4.454  27.804  1.00  0.00    -0.067 NA
HETATM   24  N4  UNL     1      32.110   4.110  28.943  1.00  0.00    -0.067 NA
ATOM     25  H2  UNL     1      32.980   6.182  26.530  1.00  0.00     0.161 HD
ENDBRANCH  20  21
ENDBRANCH  19  20
ENDBRANCH  18  19
ENDBRANCH   3  18
BRANCH   2  26
HETATM   26  O1  UNL     1      32.245  10.881  28.119  1.00  0.00    -0.345 OA
ATOM     27  H1  UNL     1      32.689  10.517  27.362  1.00  0.00     0.219 HD
ENDBRANCH   2  26
BRANCH   1  28
HETATM   28  C2  UNL     1      30.448  10.843  25.961  1.00  0.00     0.122 C 
HETATM   29  C1  UNL     1      30.369  12.203  25.346  1.00  0.00     0.026 C 
ENDBRANCH   1  28
BRANCH   8  30
HETATM   30  C11 UNL     1      31.181  12.372  32.288  1.00  0.00     0.038 C 
BRANCH  30  31
HETATM   31  C12 UNL     1      32.597  12.545  31.924  1.00  0.00    -0.020 C 
HETATM   32  C13 UNL     1      32.591  13.180  30.511  1.00  0.00     0.009 C 
HETATM   33  C14 UNL     1      33.405  11.285  31.744  1.00  0.00     0.009 C 
ENDBRANCH  30  31
ENDBRANCH   8  30
BRANCH  13  34
HETATM   34  C17 UNL     1      27.070  13.987  28.337  1.00  0.00     0.036 C 
BRANCH  34  35
HETATM   35  C18 UNL     1      25.908  13.526  27.515  1.00  0.00     0.022 C 
BRANCH  35  36
HETATM   36  C19 UNL     1      25.085  12.588  28.406  1.00  0.00     0.122 C 
BRANCH  36  37
HETATM   37  N7  UNL     1      24.401  11.641  27.588  1.00  0.00    -0.367 N 
HETATM   38  C20 UNL     1      24.090  10.441  27.990  1.00  0.00     0.196 C 
HETATM   39  N8  UNL     1      24.458  10.078  29.309  1.00  0.00    -0.067 NA
HETATM   40  N9  UNL     1      23.413   9.518  27.166  1.00  0.00    -0.067 NA
ATOM     41  H7  UNL     1      24.142  11.917  26.641  1.00  0.00     0.161 HD
ENDBRANCH  36  37
ENDBRANCH  35  36
ENDBRANCH  34  35
ENDBRANCH  13  34
TORSDOF 12
ENDMDL
MODEL 3
REMARK VINA RESULT: -6.773205500      2.325      6.840
REMARK  12 active torsions:
REMARK  status: ('A' for Active; 'I' for Inactive)
REMARK    1  A    between atoms: C2_2  and  N1_3 
REMARK    2  A    between atoms: C3_4  and  O1_5 
REMARK    3  A    between atoms: C4_7  and  C5_8 
REMARK    4  A    between atoms: C5_8  and  C6_9 
REMARK    5  A    between atoms: C6_9  and  C7_10 
REMARK    6  A    between atoms: C7_10  and  N2_11 
REMARK    7  A    between atoms: C10_20  and  C11_21 
REMARK    8  A    between atoms: C11_21  and  C12_22 
REMARK    9  A    between atoms: C16_29  and  C17_30 
REMARK   10  A    between atoms: C17_30  and  C18_31 
REMARK   11  A    between atoms: C18_31  and  C19_32 
REMARK   12  A    between atoms: C19_32  and  N7_33 
ROOT
HETATM    1  N1  UNL     1      28.949  11.005  29.753  1.00  0.00    -0.340 N 
HETATM    2  C3  UNL     1      28.453  10.384  28.592  1.00  0.00     0.163 C 
HETATM    3  C4  UNL     1      28.820   9.197  27.858  1.00  0.00     0.063 C 
HETATM    4  N5  UNL     1      29.986   9.147  27.053  1.00  0.00    -0.325 N 
ATOM      5  H5  UNL     1      30.117   8.225  26.637  1.00  0.00     0.169 HD
HETATM    6  C9  UNL     1      30.982  10.014  26.689  1.00  0.00     0.244 C 
HETATM    7  O2  UNL     1      32.182   9.577  26.700  1.00  0.00    -0.271 OA
HETATM    8  C10 UNL     1      30.864  11.461  26.258  1.00  0.00     0.177 C 
HETATM    9  N6  UNL     1      32.138  12.081  26.461  1.00  0.00    -0.346 N 
ATOM     10  H6  UNL     1      32.778  12.036  25.668  1.00  0.00     0.163 HD
HETATM   11  C15 UNL     1      32.631  12.741  27.591  1.00  0.00     0.240 C 
HETATM   12  O3  UNL     1      33.461  13.689  27.360  1.00  0.00    -0.271 OA
HETATM   13  C16 UNL     1      32.270  12.427  29.018  1.00  0.00     0.171 C 
HETATM   14  N10 UNL     1      30.910  12.176  29.048  1.00  0.00    -0.389 N 
ATOM     15  H10 UNL     1      30.310  12.583  28.330  1.00  0.00     0.156 HD
HETATM   16  C21 UNL     1      30.331  11.361  30.060  1.00  0.00     0.177 C 
HETATM   17  C22 UNL     1      31.181  10.235  30.530  1.00  0.00     0.055 C 
ENDROOT
BRANCH   3  18
HETATM   18  C5  UNL     1      28.699   7.874  28.596  1.00  0.00     0.063 C 
BRANCH  18  19
HETATM   19  C6  UNL     1      29.972   7.167  28.862  1.00  0.00     0.026 C 
BRANCH  19  20
HETATM   20  C7  UNL     1      30.126   5.862  28.113  1.00  0.00     0.122 C 
BRANCH  20  21
HETATM   21  N2  UNL     1      31.473   5.680  27.665  1.00  0.00    -0.367 N 
HETATM   22  C8  UNL     1      32.208   4.772  28.196  1.00  0.00     0.196 C 
HETATM   23  N3  UNL     1      33.531   4.628  27.723  1.00  0.00    -0.067 NA
HETATM   24  N4  UNL     1      31.759   3.914  29.227  1.00  0.00    -0.067 NA
ATOM     25  H2  UNL     1      31.848   6.271  26.923  1.00  0.00     0.161 HD
ENDBRANCH  20  21
ENDBRANCH  19  20
ENDBRANCH  18  19
ENDBRANCH   3  18
BRANCH   2  26
HETATM   26  O1  UNL     1      27.436  11.038  28.079  1.00  0.00    -0.345 OA
ATOM     27  H1  UNL     1      27.067  10.590  27.327  1.00  0.00     0.219 HD
ENDBRANCH   2  26
BRANCH   1  28
HETATM   28  C2  UNL     1      27.994  11.382  30.809  1.00  0.00     0.122 C 
HETATM   29  C1  UNL     1      27.786  10.307  31.828  1.00  0.00     0.026 C 
ENDBRANCH   1  28
BRANCH   8  30
HETATM   30  C11 UNL     1      30.553  11.414  24.780  1.00  0.00     0.038 C 
BRANCH  30  31
HETATM   31  C12 UNL     1      31.620  11.827  23.853  1.00  0.00    -0.020 C 
HETATM   32  C13 UNL     1      30.903  12.540  22.679  1.00  0.00     0.009 C 
HETATM   33  C14 UNL     1      32.393  10.721  23.179  1.00  0.00     0.009 C 
ENDBRANCH  30  31
ENDBRANCH   8  30
BRANCH  13  34
HETATM   34  C17 UNL     1      32.589  13.615  29.891  1.00  0.00     0.036 C 
BRANCH  34  35
HETATM   35  C18 UNL     1      33.625  13.369  30.941  1.00  0.00     0.022 C 
BRANCH  35  36
HETATM   36  C19 UNL     1      32.875  12.942  32.208  1.00  0.00     0.122 C 
BRANCH  36  37
HETATM   37  N7  UNL     1      32.648  14.085  33.029  1.00  0.00    -0.367 N 
HETATM   38  C20 UNL     1      31.460  14.550  33.298  1.00  0.00     0.196 C 
HETATM   39  N8  UNL     1      30.351  13.871  32.736  1.00  0.00    -0.067 NA
HETATM   40  N9  UNL     1      31.256  15.683  34.113  1.00  0.00    -0.067 NA
ATOM     41  H7  UNL     1      33.456  14.564  33.427  1.00  0.00     0.161 HD
ENDBRANCH  36  37
ENDBRANCH  35  36
ENDBRANCH  34  35
ENDBRANCH  13  34
TORSDOF 12
ENDMDL
MODEL 4
REMARK VINA RESULT: -6.760563586      2.556      5.363
REMARK  12 active torsions:
REMARK  status: ('A' for Active; 'I' for Inactive)
REMARK    1  A    between atoms: C2_2  and  N1_3 
REMARK    2  A    between atoms: C3_4  and  O1_5 
REMARK    3  A    between atoms: C4_7  and  C5_8 
REMARK    4  A    between atoms: C5_8  and  C6_9 
REMARK    5  A    between atoms: C6_9  and  C7_10 
REMARK    6  A    between atoms: C7_10  and  N2_11 
REMARK    7  A    between atoms: C10_20  and  C11_21 
REMARK    8  A    between atoms: C11_21  and  C12_22 
REMARK    9  A    between atoms: C16_29  and  C17_30 
REMARK   10  A    between atoms: C17_30  and  C18_31 
REMARK   11  A    between atoms: C18_31  and  C19_32 
REMARK   12  A    between atoms: C19_32  and  N7_33 
ROOT
HETATM    1  N1  UNL     1      30.593  12.671  29.803  1.00  0.00    -0.340 N 
HETATM    2  C3  UNL     1      29.428  13.440  29.979  1.00  0.00     0.163 C 
HETATM    3  C4  UNL     1      28.571  13.714  31.106  1.00  0.00     0.063 C 
HETATM    4  N5  UNL     1      27.674  12.743  31.617  1.00  0.00    -0.325 N 
ATOM      5  H5  UNL     1      27.173  13.086  32.437  1.00  0.00     0.169 HD
HETATM    6  C9  UNL     1      27.304  11.464  31.297  1.00  0.00     0.244 C 
HETATM    7  O2  UNL     1      27.183  10.625  32.252  1.00  0.00    -0.271 OA
HETATM    8  C10 UNL     1      27.006  10.880  29.932  1.00  0.00     0.177 C 
HETATM    9  N6  UNL     1      27.157   9.460  30.022  1.00  0.00    -0.346 N 
ATOM     10  H6  UNL     1      26.315   8.945  30.279  1.00  0.00     0.163 HD
HETATM   11  C15 UNL     1      28.296   8.676  29.809  1.00  0.00     0.240 C 
HETATM   12  O3  UNL     1      28.079   7.498  29.354  1.00  0.00    -0.271 OA
HETATM   13  C16 UNL     1      29.715   9.100  30.069  1.00  0.00     0.171 C 
HETATM   14  N10 UNL     1      29.833  10.410  29.641  1.00  0.00    -0.389 N 
ATOM     15  H10 UNL     1      29.202  10.760  28.920  1.00  0.00     0.156 HD
HETATM   16  C21 UNL     1      30.817  11.280  30.188  1.00  0.00     0.177 C 
HETATM   17  C22 UNL     1      31.122  11.067  31.628  1.00  0.00     0.055 C 
ENDROOT
BRANCH   3  18
HETATM   18  C5  UNL     1      29.203  14.439  32.283  1.00  0.00     0.063 C 
BRANCH  18  19
HETATM   19  C6  UNL     1      28.780  15.845  32.476  1.00  0.00     0.026 C 
BRANCH  19  20
HETATM   20  C7  UNL     1      27.293  16.023  32.687  1.00  0.00     0.122 C 
BRANCH  20  21
HETATM   21  N2  UNL     1      26.937  15.806  34.056  1.00  0.00    -0.367 N 
HETATM   22  C8  UNL     1      26.105  14.878  34.362  1.00  0.00     0.196 C 
HETATM   23  N3  UNL     1      25.781  14.700  35.725  1.00  0.00    -0.067 NA
HETATM   24  N4  UNL     1      25.499  14.031  33.405  1.00  0.00    -0.067 NA
ATOM     25  H2  UNL     1      27.344  16.388  34.788  1.00  0.00     0.161 HD
ENDBRANCH  20  21
ENDBRANCH  19  20
ENDBRANCH  18  19
ENDBRANCH   3  18
BRANCH   2  26
HETATM   26  O1  UNL     1      29.054  14.029  28.865  1.00  0.00    -0.345 OA
ATOM     27  H1  UNL     1      29.315  14.942  28.839  1.00  0.00     0.219 HD
ENDBRANCH   2  26
BRANCH   1  28
HETATM   28  C2  UNL     1      31.750  13.293  29.137  1.00  0.00     0.122 C 
HETATM   29  C1  UNL     1      32.577  12.320  28.358  1.00  0.00     0.026 C 
ENDBRANCH   1  28
BRANCH   8  30
HETATM   30  C11 UNL     1      25.559  11.219  29.659  1.00  0.00     0.038 C 
BRANCH  30  31
HETATM   31  C12 UNL     1      24.927  10.585  28.489  1.00  0.00    -0.020 C 
HETATM   32  C13 UNL     1      24.505  11.750  27.559  1.00  0.00     0.009 C 
HETATM   33  C14 UNL     1      23.638   9.844  28.737  1.00  0.00     0.009 C 
ENDBRANCH  30  31
ENDBRANCH   8  30
BRANCH  13  34
HETATM   34  C17 UNL     1      30.656   8.220  29.283  1.00  0.00     0.036 C 
BRANCH  34  35
HETATM   35  C18 UNL     1      30.966   8.701  27.902  1.00  0.00     0.022 C 
BRANCH  35  36
HETATM   36  C19 UNL     1      31.031   7.457  27.008  1.00  0.00     0.122 C 
BRANCH  36  37
HETATM   37  N7  UNL     1      31.963   6.528  27.559  1.00  0.00    -0.367 N 
HETATM   38  C20 UNL     1      31.635   5.325  27.937  1.00  0.00     0.196 C 
HETATM   39  N8  UNL     1      30.281   4.938  27.783  1.00  0.00    -0.067 NA
HETATM   40  N9  UNL     1      32.571   4.420  28.481  1.00  0.00    -0.067 NA
ATOM     41  H7  UNL     1      32.934   6.821  27.663  1.00  0.00     0.161 HD
ENDBRANCH  36  37
ENDBRANCH  35  36
ENDBRANCH  34  35
ENDBRANCH  13  34
TORSDOF 12
ENDMDL
MODEL 5
REMARK VINA RESULT: -6.728716516      3.078      5.529
REMARK  12 active torsions:
REMARK  status: ('A' for Active; 'I' for Inactive)
REMARK    1  A    between atoms: C2_2  and  N1_3 
REMARK    2  A    between atoms: C3_4  and  O1_5 
REMARK    3  A    between atoms: C4_7  and  C5_8 
REMARK    4  A    between atoms: C5_8  and  C6_9 
REMARK    5  A    between atoms: C6_9  and  C7_10 
REMARK    6  A    between atoms: C7_10  and  N2_11 
REMARK    7  A    between atoms: C10_20  and  C11_21 
REMARK    8  A    between atoms: C11_21  and  C12_22 
REMARK    9  A    between atoms: C16_29  and  C17_30 
REMARK   10  A    between atoms: C17_30  and  C18_31 
REMARK   11  A    between atoms: C18_31  and  C19_32 
REMARK   12  A    between atoms: C19_32  and  N7_33 
ROOT
HETATM    1  N1  UNL     1      32.460  12.197  30.372  1.00  0.00    -0.340 N 
HETATM    2  C3  UNL     1      32.911  13.152  29.443  1.00  0.00     0.163 C 
HETATM    3  C4  UNL     1      32.262  14.187  28.676  1.00  0.00     0.063 C 
HETATM    4  N5  UNL     1      31.448  13.888  27.554  1.00  0.00    -0.325 N 
ATOM      5  H5  UNL     1      31.035  14.729  27.152  1.00  0.00     0.169 HD
HETATM    6  C9  UNL     1      31.073  12.762  26.870  1.00  0.00     0.244 C 
HETATM    7  O2  UNL     1      29.846  12.657  26.529  1.00  0.00    -0.271 OA
HETATM    8  C10 UNL     1      31.927  11.587  26.443  1.00  0.00     0.177 C 
HETATM    9  N6  UNL     1      31.055  10.472  26.222  1.00  0.00    -0.346 N 
ATOM     10  H6  UNL     1      30.692  10.382  25.273  1.00  0.00     0.163 HD
HETATM   11  C15 UNL     1      30.631   9.489  27.121  1.00  0.00     0.240 C 
HETATM   12  O3  UNL     1      30.398   8.337  26.612  1.00  0.00    -0.271 OA
HETATM   13  C16 UNL     1      30.431   9.679  28.600  1.00  0.00     0.171 C 
HETATM   14  N10 UNL     1      31.479  10.459  29.056  1.00  0.00    -0.389 N 
ATOM     15  H10 UNL     1      32.360  10.461  28.543  1.00  0.00     0.156 HD
HETATM   16  C21 UNL     1      31.352  11.258  30.226  1.00  0.00     0.177 C 
HETATM   17  C22 UNL     1      30.001  11.838  30.453  1.00  0.00     0.055 C 
ENDROOT
BRANCH   3  18
HETATM   18  C5  UNL     1      31.588  15.299  29.464  1.00  0.00     0.063 C 
BRANCH  18  19
HETATM   19  C6  UNL     1      32.415  15.934  30.515  1.00  0.00     0.026 C 
BRANCH  19  20
HETATM   20  C7  UNL     1      31.643  16.352  31.746  1.00  0.00     0.122 C 
BRANCH  20  21
HETATM   21  N2  UNL     1      32.028  15.577  32.885  1.00  0.00    -0.367 N 
HETATM   22  C8  UNL     1      31.211  14.722  33.385  1.00  0.00     0.196 C 
HETATM   23  N3  UNL     1      31.633  13.980  34.509  1.00  0.00    -0.067 NA
HETATM   24  N4  UNL     1      29.916  14.492  32.866  1.00  0.00    -0.067 NA
ATOM     25  H2  UNL     1      32.951  15.703  33.299  1.00  0.00     0.161 HD
ENDBRANCH  20  21
ENDBRANCH  19  20
ENDBRANCH  18  19
ENDBRANCH   3  18
BRANCH   2  26
HETATM   26  O1  UNL     1      34.208  13.071  29.243  1.00  0.00    -0.345 OA
ATOM     27  H1  UNL     1      34.422  12.492  28.520  1.00  0.00     0.219 HD
ENDBRANCH   2  26
BRANCH   1  28
HETATM   28  C2  UNL     1      33.171  12.076  31.656  1.00  0.00     0.122 C 
HETATM   29  C1  UNL     1      33.338  10.660  32.107  1.00  0.00     0.026 C 
ENDBRANCH   1  28
BRANCH   8  30
HETATM   30  C11 UNL     1      32.557  12.004  25.135  1.00  0.00     0.038 C 
BRANCH  30  31
HETATM   31  C12 UNL     1      32.031  11.387  23.906  1.00  0.00    -0.020 C 
HETATM   32  C13 UNL     1      33.273  11.031  23.051  1.00  0.00     0.009 C 
HETATM   33  C14 UNL     1      31.218  12.276  22.999  1.00  0.00     0.009 C 
ENDBRANCH  30  31
ENDBRANCH   8  30
BRANCH  13  34
HETATM   34  C17 UNL     1      30.457   8.337  29.289  1.00  0.00     0.036 C 
BRANCH  34  35
HETATM   35  C18 UNL     1      29.113   7.766  29.611  1.00  0.00     0.022 C 
BRANCH  35  36
HETATM   36  C19 UNL     1      29.204   6.257  29.352  1.00  0.00     0.122 C 
BRANCH  36  37
HETATM   37  N7  UNL     1      30.372   5.980  28.583  1.00  0.00    -0.367 N 
HETATM   38  C20 UNL     1      31.096   4.908  28.741  1.00  0.00     0.196 C 
HETATM   39  N8  UNL     1      30.686   3.984  29.733  1.00  0.00    -0.067 NA
HETATM   40  N9  UNL     1      32.249   4.652  27.970  1.00  0.00    -0.067 NA
ATOM     41  H7  UNL     1      30.654   6.654  27.872  1.00  0.00     0.161 HD
ENDBRANCH  36  37
ENDBRANCH  35  36
ENDBRANCH  34  35
ENDBRANCH  13  34
TORSDOF 12
ENDMDL
