MODEL 1
REMARK VINA RESULT: -7.239186633      0.000      0.000
REMARK  11 active torsions:
REMARK  status: ('A' for Active; 'I' for Inactive)
REMARK    1  A    between atoms: C2_2  and  N1_3 
REMARK    2  A    between atoms: C3_4  and  C4_5 
REMARK    3  A    between atoms: C4_5  and  C5_6 
REMARK    4  A    between atoms: C5_6  and  C6_7 
REMARK    5  A    between atoms: C6_7  and  N2_8 
REMARK    6  A    between atoms: C9_17  and  C10_18 
REMARK    7  A    between atoms: C10_18  and  C11_19 
REMARK    8  A    between atoms: C11_19  and  C12_20 
REMARK    9  A    between atoms: C12_20  and  N6_21 
REMARK       I    between atoms: N6_21  and  C13_23 
REMARK   10  A    between atoms: N10_38  and  C20_39 
REMARK   11  A    between atoms: C20_39  and  C21_40 
ROOT
HETATM    1  N1  UNL     1      30.161  11.489  29.273  1.00  0.00    -0.286 N 
HETATM    2  C3  UNL     1      29.525  10.424  29.863  1.00  0.00     0.096 C 
HETATM    3  C8  UNL     1      28.807  10.573  31.127  1.00  0.00     0.266 C 
HETATM    4  O1  UNL     1      29.497  10.492  32.207  1.00  0.00    -0.266 OA
HETATM    5  N5  UNL     1      27.414  10.799  31.267  1.00  0.00    -0.343 N 
ATOM      6  H5  UNL     1      26.941  10.319  32.032  1.00  0.00     0.163 HD
HETATM    7  C9  UNL     1      26.607  11.646  30.424  1.00  0.00     0.177 C 
HETATM    8  C14 UNL     1      26.054  12.760  31.219  1.00  0.00     0.240 C 
HETATM    9  O2  UNL     1      26.062  12.697  32.465  1.00  0.00    -0.271 OA
HETATM   10  N9  UNL     1      25.508  13.920  30.606  1.00  0.00    -0.359 N 
ATOM     11  H9  UNL     1      24.629  14.307  30.949  1.00  0.00     0.162 HD
HETATM   12  C15 UNL     1      26.196  14.563  29.484  1.00  0.00     0.122 C 
HETATM   13  C16 UNL     1      27.388  15.327  30.008  1.00  0.00     0.020 C 
HETATM   14  C17 UNL     1      28.691  14.923  29.320  1.00  0.00     0.011 C 
HETATM   15  C18 UNL     1      29.585  14.337  30.393  1.00  0.00     0.105 C 
HETATM   16  C19 UNL     1      30.824  13.736  29.869  1.00  0.00     0.238 C 
HETATM   17  O3  UNL     1      31.732  14.576  29.499  1.00  0.00    -0.272 OA
HETATM   18  N10 UNL     1      31.075  12.340  29.748  1.00  0.00    -0.254 N 
ENDROOT
BRANCH   7  19
HETATM   19  C10 UNL     1      25.700  10.970  29.481  1.00  0.00     0.036 C 
BRANCH  19  20
HETATM   20  C11 UNL     1      25.631  11.351  28.071  1.00  0.00     0.022 C 
BRANCH  20  21
HETATM   21  C12 UNL     1      24.292  11.794  27.548  1.00  0.00     0.122 C 
BRANCH  21  22
HETATM   22  N6  UNL     1      23.239  10.909  28.076  1.00  0.00    -0.365 N 
HETATM   23  C13 UNL     1      22.808   9.746  27.397  1.00  0.00     0.181 C 
HETATM   24  N7  UNL     1      21.925   9.777  26.465  1.00  0.00    -0.374 N 
HETATM   25  N8  UNL     1      23.409   8.509  27.804  1.00  0.00    -0.064 NA
ATOM     26  H72 UNL     1      21.497  10.657  26.175  1.00  0.00     0.158 HD
ATOM     27  H71 UNL     1      21.614   8.939  25.975  1.00  0.00     0.158 HD
ATOM     28  H6  UNL     1      22.804  11.145  28.967  1.00  0.00     0.162 HD
ENDBRANCH  21  22
ENDBRANCH  20  21
ENDBRANCH  19  20
ENDBRANCH   7  19
BRANCH   2  29
HETATM   29  C4  UNL     1      30.269   9.092  29.858  1.00  0.00     0.066 C 
BRANCH  29  30
HETATM   30  C5  UNL     1      29.379   7.941  29.438  1.00  0.00     0.026 C 
BRANCH  30  31
HETATM   31  C6  UNL     1      29.944   7.329  28.175  1.00  0.00     0.122 C 
BRANCH  31  32
HETATM   32  N2  UNL     1      31.151   6.570  28.439  1.00  0.00    -0.367 N 
HETATM   33  C7  UNL     1      31.094   5.298  28.325  1.00  0.00     0.196 C 
HETATM   34  N3  UNL     1      29.879   4.616  27.946  1.00  0.00    -0.067 NA
HETATM   35  N4  UNL     1      32.250   4.507  28.573  1.00  0.00    -0.067 NA
ATOM     36  H2  UNL     1      32.018   7.036  28.707  1.00  0.00     0.161 HD
ENDBRANCH  31  32
ENDBRANCH  30  31
ENDBRANCH  29  30
ENDBRANCH   2  29
BRANCH   1  37
HETATM   37  C2  UNL     1      30.326  11.272  27.822  1.00  0.00     0.145 C 
HETATM   38  C1  UNL     1      29.118  11.736  27.091  1.00  0.00     0.028 C 
ENDBRANCH   1  37
BRANCH  18  39
HETATM   39  C20 UNL     1      32.427  11.920  30.067  1.00  0.00     0.196 C 
BRANCH  39  40
HETATM   40  C21 UNL     1      32.810  11.925  31.470  1.00  0.00     0.074 C 
HETATM   41  N11 UNL     1      32.474  10.978  32.249  1.00  0.00    -0.410 N 
ATOM     42 2H11 UNL     1      31.926  10.207  31.866  1.00  0.00     0.155 HD
ATOM     43 1H11 UNL     1      32.743  10.981  33.233  1.00  0.00     0.155 HD
ENDBRANCH  39  40
ENDBRANCH  18  39
TORSDOF 11
ENDMDL
MODEL 2
REMARK VINA RESULT: -6.996727260      1.453      1.754
REMARK  11 active torsions:
REMARK  status: ('A' for Active; 'I' for Inactive)
REMARK    1  A    between atoms: C2_2  and  N1_3 
REMARK    2  A    between atoms: C3_4  and  C4_5 
REMARK    3  A    between atoms: C4_5  and  C5_6 
REMARK    4  A    between atoms: C5_6  and  C6_7 
REMARK    5  A    between atoms: C6_7  and  N2_8 
REMARK    6  A    between atoms: C9_17  and  C10_18 
REMARK    7  A    between atoms: C10_18  and  C11_19 
REMARK    8  A    between atoms: C11_19  and  C12_20 
REMARK    9  A    between atoms: C12_20  and  N6_21 
REMARK       I    between atoms: N6_21  and  C13_23 
REMARK   10  A    between atoms: N10_38  and  C20_39 
REMARK   11  A    between atoms: C20_39  and  C21_40 
ROOT
HETATM    1  N1  UNL     1      30.727  11.907  28.377  1.00  0.00    -0.286 N 
HETATM    2  C3  UNL     1      30.468  10.559  28.452  1.00  0.00     0.096 C 
HETATM    3  C8  UNL     1      30.227   9.902  29.734  1.00  0.00     0.266 C 
HETATM    4  O1  UNL     1      31.256   9.530  30.405  1.00  0.00    -0.266 OA
HETATM    5  N5  UNL     1      28.956   9.638  30.303  1.00  0.00    -0.343 N 
ATOM      6  H5  UNL     1      28.841   8.749  30.790  1.00  0.00     0.163 HD
HETATM    7  C9  UNL     1      27.811  10.513  30.256  1.00  0.00     0.177 C 
HETATM    8  C14 UNL     1      27.445  10.931  31.624  1.00  0.00     0.240 C 
HETATM    9  O2  UNL     1      27.897  10.307  32.606  1.00  0.00    -0.271 OA
HETATM   10  N9  UNL     1      26.586  12.037  31.866  1.00  0.00    -0.359 N 
ATOM     11  H9  UNL     1      25.845  11.959  32.562  1.00  0.00     0.162 HD
HETATM   12  C15 UNL     1      26.756  13.287  31.123  1.00  0.00     0.122 C 
HETATM   13  C16 UNL     1      27.958  14.024  31.664  1.00  0.00     0.020 C 
HETATM   14  C17 UNL     1      28.974  14.365  30.576  1.00  0.00     0.011 C 
HETATM   15  C18 UNL     1      30.250  13.629  30.927  1.00  0.00     0.105 C 
HETATM   16  C19 UNL     1      31.288  13.711  29.884  1.00  0.00     0.238 C 
HETATM   17  O3  UNL     1      31.903  14.843  29.804  1.00  0.00    -0.272 OA
HETATM   18  N10 UNL     1      31.642  12.661  28.991  1.00  0.00    -0.254 N 
ENDROOT
BRANCH   7  19
HETATM   19  C10 UNL     1      26.716  10.123  29.351  1.00  0.00     0.036 C 
BRANCH  19  20
HETATM   20  C11 UNL     1      26.167  11.050  28.363  1.00  0.00     0.022 C 
BRANCH  20  21
HETATM   21  C12 UNL     1      24.756  11.524  28.580  1.00  0.00     0.122 C 
BRANCH  21  22
HETATM   22  N6  UNL     1      23.947  10.425  29.134  1.00  0.00    -0.365 N 
HETATM   23  C13 UNL     1      22.982   9.727  28.370  1.00  0.00     0.181 C 
HETATM   24  N7  UNL     1      21.783  10.158  28.212  1.00  0.00    -0.374 N 
HETATM   25  N8  UNL     1      23.410   8.496  27.773  1.00  0.00    -0.064 NA
ATOM     26  H72 UNL     1      21.478  11.034  28.637  1.00  0.00     0.158 HD
ATOM     27  H71 UNL     1      21.087   9.655  27.662  1.00  0.00     0.158 HD
ATOM     28  H6  UNL     1      24.088  10.156  30.108  1.00  0.00     0.162 HD
ENDBRANCH  21  22
ENDBRANCH  20  21
ENDBRANCH  19  20
ENDBRANCH   7  19
BRANCH   2  29
HETATM   29  C4  UNL     1      31.313   9.648  27.567  1.00  0.00     0.066 C 
BRANCH  29  30
HETATM   30  C5  UNL     1      30.553   8.417  27.121  1.00  0.00     0.026 C 
BRANCH  30  31
HETATM   31  C6  UNL     1      31.382   7.193  27.441  1.00  0.00     0.122 C 
BRANCH  31  32
HETATM   32  N2  UNL     1      30.736   6.351  28.429  1.00  0.00    -0.367 N 
HETATM   33  C7  UNL     1      31.206   5.175  28.609  1.00  0.00     0.196 C 
HETATM   34  N3  UNL     1      32.341   4.679  27.867  1.00  0.00    -0.067 NA
HETATM   35  N4  UNL     1      30.609   4.308  29.567  1.00  0.00    -0.067 NA
ATOM     36  H2  UNL     1      29.934   6.685  28.963  1.00  0.00     0.161 HD
ENDBRANCH  31  32
ENDBRANCH  30  31
ENDBRANCH  29  30
ENDBRANCH   2  29
BRANCH   1  37
HETATM   37  C2  UNL     1      30.396  12.437  27.039  1.00  0.00     0.145 C 
HETATM   38  C1  UNL     1      28.957  12.800  26.970  1.00  0.00     0.028 C 
ENDBRANCH   1  37
BRANCH  18  39
HETATM   39  C20 UNL     1      33.060  12.539  28.703  1.00  0.00     0.196 C 
BRANCH  39  40
HETATM   40  C21 UNL     1      33.937  12.216  29.817  1.00  0.00     0.074 C 
HETATM   41  N11 UNL     1      33.581  11.395  30.721  1.00  0.00    -0.410 N 
ATOM     42 2H11 UNL     1      32.659  10.965  30.648  1.00  0.00     0.155 HD
ATOM     43 1H11 UNL     1      34.197  11.169  31.502  1.00  0.00     0.155 HD
ENDBRANCH  39  40
ENDBRANCH  18  39
TORSDOF 11
ENDMDL
MODEL 3
REMARK VINA RESULT: -6.769913501      2.184      3.171
REMARK  11 active torsions:
REMARK  status: ('A' for Active; 'I' for Inactive)
REMARK    1  A    between atoms: C2_2  and  N1_3 
REMARK    2  A    between atoms: C3_4  and  C4_5 
REMARK    3  A    between atoms: C4_5  and  C5_6 
REMARK    4  A    between atoms: C5_6  and  C6_7 
REMARK    5  A    between atoms: C6_7  and  N2_8 
REMARK    6  A    between atoms: C9_17  and  C10_18 
REMARK    7  A    between atoms: C10_18  and  C11_19 
REMARK    8  A    between atoms: C11_19  and  C12_20 
REMARK    9  A    between atoms: C12_20  and  N6_21 
REMARK       I    between atoms: N6_21  and  C13_23 
REMARK   10  A    between atoms: N10_38  and  C20_39 
REMARK   11  A    between atoms: C20_39  and  C21_40 
ROOT
HETATM    1  N1  UNL     1      29.666  11.688  27.638  1.00  0.00    -0.286 N 
HETATM    2  C3  UNL     1      29.367  10.800  28.643  1.00  0.00     0.096 C 
HETATM    3  C8  UNL     1      30.183  10.719  29.852  1.00  0.00     0.266 C 
HETATM    4  O1  UNL     1      31.236   9.985  29.801  1.00  0.00    -0.266 OA
HETATM    5  N5  UNL     1      29.915  11.377  31.079  1.00  0.00    -0.343 N 
ATOM      6  H5  UNL     1      30.107  10.859  31.936  1.00  0.00     0.163 HD
HETATM    7  C9  UNL     1      29.394  12.714  31.223  1.00  0.00     0.177 C 
HETATM    8  C14 UNL     1      30.388  13.566  31.907  1.00  0.00     0.240 C 
HETATM    9  O2  UNL     1      31.339  13.041  32.520  1.00  0.00    -0.271 OA
HETATM   10  N9  UNL     1      30.298  14.984  31.890  1.00  0.00    -0.359 N 
ATOM     11  H9  UNL     1      30.453  15.511  32.749  1.00  0.00     0.162 HD
HETATM   12  C15 UNL     1      29.984  15.695  30.648  1.00  0.00     0.122 C 
HETATM   13  C16 UNL     1      31.204  15.700  29.759  1.00  0.00     0.020 C 
HETATM   14  C17 UNL     1      30.919  15.130  28.371  1.00  0.00     0.011 C 
HETATM   15  C18 UNL     1      31.784  13.896  28.223  1.00  0.00     0.105 C 
HETATM   16  C19 UNL     1      31.506  13.121  27.000  1.00  0.00     0.238 C 
HETATM   17  O3  UNL     1      31.960  13.633  25.905  1.00  0.00    -0.272 OA
HETATM   18  N10 UNL     1      30.794  11.889  26.950  1.00  0.00    -0.254 N 
ENDROOT
BRANCH   7  19
HETATM   19  C10 UNL     1      27.989  12.836  31.649  1.00  0.00     0.036 C 
BRANCH  19  20
HETATM   20  C11 UNL     1      26.884  12.715  30.700  1.00  0.00     0.022 C 
BRANCH  20  21
HETATM   21  C12 UNL     1      26.324  11.336  30.474  1.00  0.00     0.122 C 
BRANCH  21  22
HETATM   22  N6  UNL     1      25.315  11.384  29.402  1.00  0.00    -0.365 N 
HETATM   23  C13 UNL     1      24.726  10.219  28.857  1.00  0.00     0.181 C 
HETATM   24  N7  UNL     1      25.282   9.537  27.922  1.00  0.00    -0.374 N 
HETATM   25  N8  UNL     1      23.458   9.830  29.403  1.00  0.00    -0.064 NA
ATOM     26  H72 UNL     1      26.183   9.814  27.534  1.00  0.00     0.158 HD
ATOM     27  H71 UNL     1      24.857   8.697  27.529  1.00  0.00     0.158 HD
ATOM     28  H6  UNL     1      25.030  12.293  29.039  1.00  0.00     0.162 HD
ENDBRANCH  21  22
ENDBRANCH  20  21
ENDBRANCH  19  20
ENDBRANCH   7  19
BRANCH   2  29
HETATM   29  C4  UNL     1      28.953   9.396  28.217  1.00  0.00     0.066 C 
BRANCH  29  30
HETATM   30  C5  UNL     1      28.348   8.605  29.358  1.00  0.00     0.026 C 
BRANCH  30  31
HETATM   31  C6  UNL     1      28.868   7.186  29.293  1.00  0.00     0.122 C 
BRANCH  31  32
HETATM   32  N2  UNL     1      30.297   7.148  29.050  1.00  0.00    -0.367 N 
HETATM   33  C7  UNL     1      30.782   6.093  28.515  1.00  0.00     0.196 C 
HETATM   34  N3  UNL     1      29.958   4.964  28.156  1.00  0.00    -0.067 NA
HETATM   35  N4  UNL     1      32.179   6.004  28.255  1.00  0.00    -0.067 NA
ATOM     36  H2  UNL     1      30.894   7.937  29.297  1.00  0.00     0.161 HD
ENDBRANCH  31  32
ENDBRANCH  30  31
ENDBRANCH  29  30
ENDBRANCH   2  29
BRANCH   1  37
HETATM   37  C2  UNL     1      28.473  11.989  26.822  1.00  0.00     0.145 C 
HETATM   38  C1  UNL     1      27.844  13.257  27.277  1.00  0.00     0.028 C 
ENDBRANCH   1  37
BRANCH  18  39
HETATM   39  C20 UNL     1      31.311  10.908  26.014  1.00  0.00     0.196 C 
BRANCH  39  40
HETATM   40  C21 UNL     1      32.485  10.155  26.423  1.00  0.00     0.074 C 
HETATM   41  N11 UNL     1      32.379   9.078  27.090  1.00  0.00    -0.410 N 
ATOM     42 2H11 UNL     1      31.445   8.750  27.334  1.00  0.00     0.155 HD
ATOM     43 1H11 UNL     1      33.204   8.549  27.376  1.00  0.00     0.155 HD
ENDBRANCH  39  40
ENDBRANCH  18  39
TORSDOF 11
ENDMDL
MODEL 4
REMARK VINA RESULT: -6.716060309      3.293      5.133
REMARK  11 active torsions:
REMARK  status: ('A' for Active; 'I' for Inactive)
REMARK    1  A    between atoms: C2_2  and  N1_3 
REMARK    2  A    between atoms: C3_4  and  C4_5 
REMARK    3  A    between atoms: C4_5  and  C5_6 
REMARK    4  A    between atoms: C5_6  and  C6_7 
REMARK    5  A    between atoms: C6_7  and  N2_8 
REMARK    6  A    between atoms: C9_17  and  C10_18 
REMARK    7  A    between atoms: C10_18  and  C11_19 
REMARK    8  A    between atoms: C11_19  and  C12_20 
REMARK    9  A    between atoms: C12_20  and  N6_21 
REMARK       I    between atoms: N6_21  and  C13_23 
REMARK   10  A    between atoms: N10_38  and  C20_39 
REMARK   11  A    between atoms: C20_39  and  C21_40 
ROOT
HETATM    1  N1  UNL     1      30.332  12.120  26.678  1.00  0.00    -0.286 N 
HETATM    2  C3  UNL     1      31.001  11.121  27.343  1.00  0.00     0.096 C 
HETATM    3  C8  UNL     1      32.382  11.297  27.787  1.00  0.00     0.266 C 
HETATM    4  O1  UNL     1      33.308  11.062  26.929  1.00  0.00    -0.266 OA
HETATM    5  N5  UNL     1      32.790  11.704  29.082  1.00  0.00    -0.343 N 
ATOM      6  H5  UNL     1      33.618  11.252  29.471  1.00  0.00     0.163 HD
HETATM    7  C9  UNL     1      32.141  12.699  29.899  1.00  0.00     0.177 C 
HETATM    8  C14 UNL     1      33.058  13.833  30.128  1.00  0.00     0.240 C 
HETATM    9  O2  UNL     1      34.278  13.701  29.901  1.00  0.00    -0.271 OA
HETATM   10  N9  UNL     1      32.593  15.089  30.604  1.00  0.00    -0.359 N 
ATOM     11  H9  UNL     1      33.108  15.574  31.338  1.00  0.00     0.162 HD
HETATM   12  C15 UNL     1      31.380  15.693  30.048  1.00  0.00     0.122 C 
HETATM   13  C16 UNL     1      31.689  16.255  28.682  1.00  0.00     0.020 C 
HETATM   14  C17 UNL     1      30.756  15.715  27.600  1.00  0.00     0.011 C 
HETATM   15  C18 UNL     1      31.622  14.954  26.619  1.00  0.00     0.105 C 
HETATM   16  C19 UNL     1      30.855  14.218  25.598  1.00  0.00     0.238 C 
HETATM   17  O3  UNL     1      30.343  14.944  24.661  1.00  0.00    -0.272 OA
HETATM   18  N10 UNL     1      30.649  12.810  25.579  1.00  0.00    -0.254 N 
ENDROOT
BRANCH   7  19
HETATM   19  C10 UNL     1      31.368  12.208  31.052  1.00  0.00     0.036 C 
BRANCH  19  20
HETATM   20  C11 UNL     1      31.079  10.787  31.237  1.00  0.00     0.022 C 
BRANCH  20  21
HETATM   21  C12 UNL     1      29.645  10.408  31.489  1.00  0.00     0.122 C 
BRANCH  21  22
HETATM   22  N6  UNL     1      28.985  10.099  30.209  1.00  0.00    -0.365 N 
HETATM   23  C13 UNL     1      27.896   9.202  30.108  1.00  0.00     0.181 C 
HETATM   24  N7  UNL     1      28.055   7.931  30.014  1.00  0.00    -0.374 N 
HETATM   25  N8  UNL     1      26.587   9.785  30.115  1.00  0.00    -0.064 NA
ATOM     26  H72 UNL     1      28.987   7.516  30.009  1.00  0.00     0.158 HD
ATOM     27  H71 UNL     1      27.271   7.284  29.941  1.00  0.00     0.158 HD
ATOM     28  H6  UNL     1      29.328  10.550  29.361  1.00  0.00     0.162 HD
ENDBRANCH  21  22
ENDBRANCH  20  21
ENDBRANCH  19  20
ENDBRANCH   7  19
BRANCH   2  29
HETATM   29  C4  UNL     1      30.817   9.703  26.815  1.00  0.00     0.066 C 
BRANCH  29  30
HETATM   30  C5  UNL     1      31.031   8.658  27.890  1.00  0.00     0.026 C 
BRANCH  30  31
HETATM   31  C6  UNL     1      30.790   7.290  27.291  1.00  0.00     0.122 C 
BRANCH  31  32
HETATM   32  N2  UNL     1      31.883   6.380  27.575  1.00  0.00    -0.367 N 
HETATM   33  C7  UNL     1      31.590   5.172  27.874  1.00  0.00     0.196 C 
HETATM   34  N3  UNL     1      30.225   4.704  27.934  1.00  0.00    -0.067 NA
HETATM   35  N4  UNL     1      32.624   4.238  28.162  1.00  0.00    -0.067 NA
ATOM     36  H2  UNL     1      32.853   6.693  27.537  1.00  0.00     0.161 HD
ENDBRANCH  31  32
ENDBRANCH  30  31
ENDBRANCH  29  30
ENDBRANCH   2  29
BRANCH   1  37
HETATM   37  C2  UNL     1      28.870  11.963  26.817  1.00  0.00     0.145 C 
HETATM   38  C1  UNL     1      28.374  12.750  27.976  1.00  0.00     0.028 C 
ENDBRANCH   1  37
BRANCH  18  39
HETATM   39  C20 UNL     1      30.692  12.191  24.267  1.00  0.00     0.196 C 
BRANCH  39  40
HETATM   40  C21 UNL     1      32.005  11.959  23.687  1.00  0.00     0.074 C 
HETATM   41  N11 UNL     1      32.684  10.925  23.982  1.00  0.00    -0.410 N 
ATOM     42 2H11 UNL     1      32.285  10.256  24.641  1.00  0.00     0.155 HD
ATOM     43 1H11 UNL     1      33.605  10.762  23.574  1.00  0.00     0.155 HD
ENDBRANCH  39  40
ENDBRANCH  18  39
TORSDOF 11
ENDMDL
MODEL 5
REMARK VINA RESULT: -6.705847061      2.600      5.549
REMARK  11 active torsions:
REMARK  status: ('A' for Active; 'I' for Inactive)
REMARK    1  A    between atoms: C2_2  and  N1_3 
REMARK    2  A    between atoms: C3_4  and  C4_5 
REMARK    3  A    between atoms: C4_5  and  C5_6 
REMARK    4  A    between atoms: C5_6  and  C6_7 
REMARK    5  A    between atoms: C6_7  and  N2_8 
REMARK    6  A    between atoms: C9_17  and  C10_18 
REMARK    7  A    between atoms: C10_18  and  C11_19 
REMARK    8  A    between atoms: C11_19  and  C12_20 
REMARK    9  A    between atoms: C12_20  and  N6_21 
REMARK       I    between atoms: N6_21  and  C13_23 
REMARK   10  A    between atoms: N10_38  and  C20_39 
REMARK   11  A    between atoms: C20_39  and  C21_40 
ROOT
HETATM    1  N1  UNL     1      30.743  13.450  30.055  1.00  0.00    -0.286 N 
HETATM    2  C3  UNL     1      31.716  12.494  29.886  1.00  0.00     0.096 C 
HETATM    3  C8  UNL     1      31.601  11.176  30.505  1.00  0.00     0.266 C 
HETATM    4  O1  UNL     1      31.993  11.063  31.722  1.00  0.00    -0.266 OA
HETATM    5  N5  UNL     1      31.094  10.009  29.879  1.00  0.00    -0.343 N 
ATOM      6  H5  UNL     1      31.565   9.129  30.088  1.00  0.00     0.163 HD
HETATM    7  C9  UNL     1      29.973   9.954  28.974  1.00  0.00     0.177 C 
HETATM    8  C14 UNL     1      28.895   9.136  29.563  1.00  0.00     0.240 C 
HETATM    9  O2  UNL     1      29.142   8.383  30.527  1.00  0.00    -0.271 OA
HETATM   10  N9  UNL     1      27.565   9.177  29.064  1.00  0.00    -0.359 N 
ATOM     11  H9  UNL     1      27.047   8.309  28.931  1.00  0.00     0.162 HD
HETATM   12  C15 UNL     1      26.932  10.457  28.739  1.00  0.00     0.122 C 
HETATM   13  C16 UNL     1      26.538  11.153  30.020  1.00  0.00     0.020 C 
HETATM   14  C17 UNL     1      27.115  12.564  30.121  1.00  0.00     0.011 C 
HETATM   15  C18 UNL     1      28.037  12.572  31.322  1.00  0.00     0.105 C 
HETATM   16  C19 UNL     1      28.814  13.816  31.464  1.00  0.00     0.238 C 
HETATM   17  O3  UNL     1      28.152  14.834  31.903  1.00  0.00    -0.272 OA
HETATM   18  N10 UNL     1      30.197  13.963  31.161  1.00  0.00    -0.254 N 
ENDROOT
BRANCH   7  19
HETATM   19  C10 UNL     1      30.282   9.745  27.549  1.00  0.00     0.036 C 
BRANCH  19  20
HETATM   20  C11 UNL     1      30.362   8.407  26.966  1.00  0.00     0.022 C 
BRANCH  20  21
HETATM   21  C12 UNL     1      31.519   7.545  27.391  1.00  0.00     0.122 C 
BRANCH  21  22
HETATM   22  N6  UNL     1      31.106   6.683  28.512  1.00  0.00    -0.365 N 
HETATM   23  C13 UNL     1      30.869   5.297  28.363  1.00  0.00     0.181 C 
HETATM   24  N7  UNL     1      29.745   4.829  27.954  1.00  0.00    -0.374 N 
HETATM   25  N8  UNL     1      31.956   4.424  28.695  1.00  0.00    -0.064 NA
ATOM     26  H72 UNL     1      28.971   5.450  27.718  1.00  0.00     0.158 HD
ATOM     27  H71 UNL     1      29.573   3.830  27.846  1.00  0.00     0.158 HD
ATOM     28  H6  UNL     1      30.987   7.104  29.434  1.00  0.00     0.162 HD
ENDBRANCH  21  22
ENDBRANCH  20  21
ENDBRANCH  19  20
ENDBRANCH   7  19
BRANCH   2  29
HETATM   29  C4  UNL     1      33.164  12.967  29.969  1.00  0.00     0.066 C 
BRANCH  29  30
HETATM   30  C5  UNL     1      34.062  12.239  28.991  1.00  0.00     0.026 C 
BRANCH  30  31
HETATM   31  C6  UNL     1      33.660  12.625  27.585  1.00  0.00     0.122 C 
BRANCH  31  32
HETATM   32  N2  UNL     1      33.302  11.465  26.792  1.00  0.00    -0.367 N 
HETATM   33  C7  UNL     1      32.840  11.666  25.617  1.00  0.00     0.196 C 
HETATM   34  N3  UNL     1      32.670  12.993  25.074  1.00  0.00    -0.067 NA
HETATM   35  N4  UNL     1      32.473  10.562  24.796  1.00  0.00    -0.067 NA
ATOM     36  H2  UNL     1      33.416  10.520  27.159  1.00  0.00     0.161 HD
ENDBRANCH  31  32
ENDBRANCH  30  31
ENDBRANCH  29  30
ENDBRANCH   2  29
BRANCH   1  37
HETATM   37  C2  UNL     1      30.773  14.438  28.957  1.00  0.00     0.145 C 
HETATM   38  C1  UNL     1      30.111  13.884  27.747  1.00  0.00     0.028 C 
ENDBRANCH   1  37
BRANCH  18  39
HETATM   39  C20 UNL     1      30.950  14.803  32.073  1.00  0.00     0.196 C 
BRANCH  39  40
HETATM   40  C21 UNL     1      31.323  14.224  33.354  1.00  0.00     0.074 C 
HETATM   41  N11 UNL     1      32.355  13.490  33.471  1.00  0.00    -0.410 N 
ATOM     42 2H11 UNL     1      32.920  13.313  32.640  1.00  0.00     0.155 HD
ATOM     43 1H11 UNL     1      32.616  13.084  34.369  1.00  0.00     0.155 HD
ENDBRANCH  39  40
ENDBRANCH  18  39
TORSDOF 11
ENDMDL
