MODEL 1
REMARK VINA RESULT: -6.478481123      0.000      0.000
REMARK  3 active torsions:
REMARK  status: ('A' for Active; 'I' for Inactive)
REMARK    1  A    between atoms: C2_2  and  C3_3 
REMARK    2  A    between atoms: C3_3  and  N1_4 
REMARK    3  A    between atoms: N3_10  and  O1_11 
ROOT
HETATM    1  N1  UNL     1      31.691  24.476  87.429  1.00  0.00     0.099 N 
HETATM    2  C4  UNL     1      32.540  25.364  88.140  1.00  0.00     0.315 C 
HETATM    3  C5  UNL     1      31.924  26.043  89.289  1.00  0.00     0.016 A 
HETATM    4  C6  UNL     1      32.434  27.011  90.130  1.00  0.00     0.120 A 
HETATM    5  N2  UNL     1      31.488  27.321  91.036  1.00  0.00    -0.285 N 
ATOM      6  H2  UNL     1      31.571  28.004  91.789  1.00  0.00     0.188 HD
HETATM    7  N3  UNL     1      30.428  26.571  90.770  1.00  0.00    -0.165 N 
HETATM    8  C7  UNL     1      30.653  25.784  89.718  1.00  0.00     0.100 A 
HETATM    9  C8  UNL     1      29.837  24.784  89.019  1.00  0.00     0.122 C 
HETATM   10  C9  UNL     1      28.746  25.405  88.188  1.00  0.00     0.162 C 
HETATM   11  N4  UNL     1      27.682  24.445  88.238  1.00  0.00    -0.362 N 
ATOM     12  H4  UNL     1      26.897  24.404  87.589  1.00  0.00     0.162 HD
HETATM   13  C10 UNL     1      27.867  23.649  89.218  1.00  0.00     0.185 C 
HETATM   14  N5  UNL     1      27.030  22.545  89.617  1.00  0.00    -0.064 NA
HETATM   15  N6  UNL     1      29.052  23.966  89.922  1.00  0.00    -0.346 N 
ATOM     16  H6  UNL     1      29.303  23.679  90.869  1.00  0.00     0.163 HD
HETATM   17  C11 UNL     1      30.675  23.840  88.201  1.00  0.00     0.312 C 
ENDROOT
BRANCH   7  18
HETATM   18  O1  UNL     1      29.251  26.599  91.482  1.00  0.00    -0.268 OA
ATOM     19  H1  UNL     1      28.742  25.832  91.714  1.00  0.00     0.247 HD
ENDBRANCH   7  18
BRANCH   1  20
HETATM   20  C3  UNL     1      32.542  23.413  86.874  1.00  0.00     0.299 C 
BRANCH  20  21
HETATM   21  C2  UNL     1      32.057  22.903  85.593  1.00  0.00    -0.007 C 
HETATM   22  C1  UNL     1      32.882  22.361  84.733  1.00  0.00     0.008 C 
ENDBRANCH  20  21
ENDBRANCH   1  20
TORSDOF 3
ENDMDL
MODEL 2
REMARK VINA RESULT: -6.248482053      1.948      3.216
REMARK  3 active torsions:
REMARK  status: ('A' for Active; 'I' for Inactive)
REMARK    1  A    between atoms: C2_2  and  C3_3 
REMARK    2  A    between atoms: C3_3  and  N1_4 
REMARK    3  A    between atoms: N3_10  and  O1_11 
ROOT
HETATM    1  N1  UNL     1      29.775  24.010  88.289  1.00  0.00     0.099 N 
HETATM    2  C4  UNL     1      29.367  25.066  87.431  1.00  0.00     0.315 C 
HETATM    3  C5  UNL     1      29.166  26.367  88.082  1.00  0.00     0.016 A 
HETATM    4  C6  UNL     1      28.702  27.560  87.565  1.00  0.00     0.120 A 
HETATM    5  N2  UNL     1      28.696  28.473  88.555  1.00  0.00    -0.285 N 
ATOM      6  H2  UNL     1      28.404  29.447  88.478  1.00  0.00     0.188 HD
HETATM    7  N3  UNL     1      29.142  27.870  89.648  1.00  0.00    -0.165 N 
HETATM    8  C7  UNL     1      29.437  26.594  89.402  1.00  0.00     0.100 A 
HETATM    9  C8  UNL     1      29.954  25.503  90.238  1.00  0.00     0.122 C 
HETATM   10  C9  UNL     1      28.925  24.971  91.198  1.00  0.00     0.162 C 
HETATM   11  N4  UNL     1      29.692  24.565  92.339  1.00  0.00    -0.362 N 
ATOM     12  H4  UNL     1      29.370  23.929  93.068  1.00  0.00     0.162 HD
HETATM   13  C10 UNL     1      30.840  25.121  92.306  1.00  0.00     0.185 C 
HETATM   14  N5  UNL     1      31.908  24.979  93.263  1.00  0.00    -0.064 NA
HETATM   15  N6  UNL     1      30.981  25.941  91.161  1.00  0.00    -0.346 N 
ATOM     16  H6  UNL     1      31.664  26.686  91.016  1.00  0.00     0.163 HD
HETATM   17  C11 UNL     1      30.557  24.397  89.416  1.00  0.00     0.312 C 
ENDROOT
BRANCH   7  18
HETATM   18  O1  UNL     1      29.282  28.478  90.874  1.00  0.00    -0.268 OA
ATOM     19  H1  UNL     1      30.094  28.841  91.207  1.00  0.00     0.247 HD
ENDBRANCH   7  18
BRANCH   1  20
HETATM   20  C3  UNL     1      30.596  23.092  87.485  1.00  0.00     0.299 C 
BRANCH  20  21
HETATM   21  C2  UNL     1      31.112  23.708  86.264  1.00  0.00    -0.007 C 
HETATM   22  C1  UNL     1      31.889  23.035  85.453  1.00  0.00     0.008 C 
ENDBRANCH  20  21
ENDBRANCH   1  20
TORSDOF 3
ENDMDL
MODEL 3
REMARK VINA RESULT: -6.076073635      1.414      3.841
REMARK  3 active torsions:
REMARK  status: ('A' for Active; 'I' for Inactive)
REMARK    1  A    between atoms: C2_2  and  C3_3 
REMARK    2  A    between atoms: C3_3  and  N1_4 
REMARK    3  A    between atoms: N3_10  and  O1_11 
ROOT
HETATM    1  N1  UNL     1      32.252  24.586  87.988  1.00  0.00     0.099 N 
HETATM    2  C4  UNL     1      31.069  24.165  87.326  1.00  0.00     0.315 C 
HETATM    3  C5  UNL     1      29.813  24.680  87.887  1.00  0.00     0.016 A 
HETATM    4  C6  UNL     1      28.505  24.409  87.542  1.00  0.00     0.120 A 
HETATM    5  N2  UNL     1      27.699  25.127  88.347  1.00  0.00    -0.285 N 
ATOM      6  H2  UNL     1      26.680  25.136  88.331  1.00  0.00     0.188 HD
HETATM    7  N3  UNL     1      28.479  25.821  89.164  1.00  0.00    -0.165 N 
HETATM    8  C7  UNL     1      29.766  25.577  88.917  1.00  0.00     0.100 A 
HETATM    9  C8  UNL     1      31.014  26.069  89.513  1.00  0.00     0.122 C 
HETATM   10  C9  UNL     1      31.273  25.487  90.876  1.00  0.00     0.162 C 
HETATM   11  N4  UNL     1      31.965  26.531  91.574  1.00  0.00    -0.362 N 
ATOM     12  H4  UNL     1      32.522  26.404  92.419  1.00  0.00     0.162 HD
HETATM   13  C10 UNL     1      31.779  27.643  90.978  1.00  0.00     0.185 C 
HETATM   14  N5  UNL     1      32.298  28.934  91.354  1.00  0.00    -0.064 NA
HETATM   15  N6  UNL     1      30.967  27.482  89.831  1.00  0.00    -0.346 N 
ATOM     16  H6  UNL     1      30.454  28.210  89.331  1.00  0.00     0.163 HD
HETATM   17  C11 UNL     1      32.194  25.872  88.601  1.00  0.00     0.312 C 
ENDROOT
BRANCH   7  18
HETATM   18  O1  UNL     1      28.023  26.679  90.138  1.00  0.00    -0.268 OA
ATOM     19  H1  UNL     1      27.228  26.550  90.643  1.00  0.00     0.247 HD
ENDBRANCH   7  18
BRANCH   1  20
HETATM   20  C3  UNL     1      33.320  24.636  86.978  1.00  0.00     0.299 C 
BRANCH  20  21
HETATM   21  C2  UNL     1      33.045  23.794  85.815  1.00  0.00    -0.007 C 
HETATM   22  C1  UNL     1      34.005  23.115  85.240  1.00  0.00     0.008 C 
ENDBRANCH  20  21
ENDBRANCH   1  20
TORSDOF 3
ENDMDL
MODEL 4
REMARK VINA RESULT: -5.749004601      3.282      5.715
REMARK  3 active torsions:
REMARK  status: ('A' for Active; 'I' for Inactive)
REMARK    1  A    between atoms: C2_2  and  C3_3 
REMARK    2  A    between atoms: C3_3  and  N1_4 
REMARK    3  A    between atoms: N3_10  and  O1_11 
ROOT
HETATM    1  N1  UNL     1      33.154  22.150  84.793  1.00  0.00     0.099 N 
HETATM    2  C4  UNL     1      31.766  22.420  84.912  1.00  0.00     0.315 C 
HETATM    3  C5  UNL     1      31.412  23.532  85.805  1.00  0.00     0.016 A 
HETATM    4  C6  UNL     1      30.175  23.998  86.202  1.00  0.00     0.120 A 
HETATM    5  N2  UNL     1      30.365  25.043  87.028  1.00  0.00    -0.285 N 
ATOM      6  H2  UNL     1      29.638  25.595  87.483  1.00  0.00     0.188 HD
HETATM    7  N3  UNL     1      31.673  25.222  87.142  1.00  0.00    -0.165 N 
HETATM    8  C7  UNL     1      32.341  24.326  86.415  1.00  0.00     0.100 A 
HETATM    9  C8  UNL     1      33.771  24.082  86.189  1.00  0.00     0.122 C 
HETATM   10  C9  UNL     1      34.449  23.465  87.381  1.00  0.00     0.162 C 
HETATM   11  N4  UNL     1      35.785  23.985  87.330  1.00  0.00    -0.362 N 
ATOM     12  H4  UNL     1      36.588  23.590  87.817  1.00  0.00     0.162 HD
HETATM   13  C10 UNL     1      35.814  25.019  86.582  1.00  0.00     0.185 C 
HETATM   14  N5  UNL     1      36.959  25.837  86.267  1.00  0.00    -0.064 NA
HETATM   15  N6  UNL     1      34.536  25.305  86.049  1.00  0.00    -0.346 N 
ATOM     16  H6  UNL     1      34.218  26.188  85.649  1.00  0.00     0.163 HD
HETATM   17  C11 UNL     1      34.017  23.275  84.943  1.00  0.00     0.312 C 
ENDROOT
BRANCH   7  18
HETATM   18  O1  UNL     1      32.265  26.201  87.905  1.00  0.00    -0.268 OA
ATOM     19  H1  UNL     1      32.987  26.055  88.506  1.00  0.00     0.247 HD
ENDBRANCH   7  18
BRANCH   1  20
HETATM   20  C3  UNL     1      33.377  21.612  83.442  1.00  0.00     0.299 C 
BRANCH  20  21
HETATM   21  C2  UNL     1      32.173  21.636  82.613  1.00  0.00    -0.007 C 
HETATM   22  C1  UNL     1      32.223  21.290  81.351  1.00  0.00     0.008 C 
ENDBRANCH  20  21
ENDBRANCH   1  20
TORSDOF 3
ENDMDL
MODEL 5
REMARK VINA RESULT: -5.627569687      3.145      5.263
REMARK  3 active torsions:
REMARK  status: ('A' for Active; 'I' for Inactive)
REMARK    1  A    between atoms: C2_2  and  C3_3 
REMARK    2  A    between atoms: C3_3  and  N1_4 
REMARK    3  A    between atoms: N3_10  and  O1_11 
ROOT
HETATM    1  N1  UNL     1      29.303  25.898  92.663  1.00  0.00     0.099 N 
HETATM    2  C4  UNL     1      29.134  27.290  92.437  1.00  0.00     0.315 C 
HETATM    3  C5  UNL     1      28.996  27.690  91.030  1.00  0.00     0.016 A 
HETATM    4  C6  UNL     1      28.899  28.945  90.466  1.00  0.00     0.120 A 
HETATM    5  N2  UNL     1      28.786  28.799  89.132  1.00  0.00    -0.285 N 
ATOM      6  H2  UNL     1      28.698  29.549  88.446  1.00  0.00     0.188 HD
HETATM    7  N3  UNL     1      28.812  27.499  88.876  1.00  0.00    -0.165 N 
HETATM    8  C7  UNL     1      28.937  26.794  90.000  1.00  0.00     0.100 A 
HETATM    9  C8  UNL     1      29.015  25.355  90.279  1.00  0.00     0.122 C 
HETATM   10  C9  UNL     1      30.336  24.758  89.881  1.00  0.00     0.162 C 
HETATM   11  N4  UNL     1      30.008  23.418  89.489  1.00  0.00    -0.362 N 
ATOM     12  H4  UNL     1      30.674  22.649  89.411  1.00  0.00     0.162 HD
HETATM   13  C10 UNL     1      28.757  23.333  89.253  1.00  0.00     0.185 C 
HETATM   14  N5  UNL     1      28.025  22.165  88.834  1.00  0.00    -0.064 NA
HETATM   15  N6  UNL     1      28.110  24.573  89.461  1.00  0.00    -0.346 N 
ATOM     16  H6  UNL     1      27.196  24.859  89.107  1.00  0.00     0.163 HD
HETATM   17  C11 UNL     1      28.681  25.038  91.712  1.00  0.00     0.312 C 
ENDROOT
BRANCH   7  18
HETATM   18  O1  UNL     1      28.720  26.948  87.619  1.00  0.00    -0.268 OA
ATOM     19  H1  UNL     1      28.485  26.045  87.441  1.00  0.00     0.247 HD
ENDBRANCH   7  18
BRANCH   1  20
HETATM   20  C3  UNL     1      28.709  25.596  93.974  1.00  0.00     0.299 C 
BRANCH  20  21
HETATM   21  C2  UNL     1      27.279  25.895  94.035  1.00  0.00    -0.007 C 
HETATM   22  C1  UNL     1      26.462  25.121  94.703  1.00  0.00     0.008 C 
ENDBRANCH  20  21
ENDBRANCH   1  20
TORSDOF 3
ENDMDL
