MODEL 1
REMARK VINA RESULT: -6.469967968      0.000      0.000
REMARK  1 active torsions:
REMARK  status: ('A' for Active; 'I' for Inactive)
REMARK       I    between atoms: N3_13  and  C9_14 
REMARK       I    between atoms: C9_14  and  N4_16 
REMARK    1  A    between atoms: N4_16  and  O2_18 
ROOT
HETATM    1  C1  UNL     1      36.017  24.997  87.004  1.00  0.00     0.028 C 
HETATM    2  C2  UNL     1      34.932  24.448  86.484  1.00  0.00     0.011 A 
HETATM    3  C3  UNL     1      35.065  23.607  85.430  1.00  0.00    -0.003 A 
HETATM    4  C4  UNL     1      36.199  23.279  84.855  1.00  0.00     0.026 C 
HETATM    5  C5  UNL     1      33.934  23.011  84.862  1.00  0.00     0.072 A 
HETATM    6  N1  UNL     1      34.075  22.164  83.832  1.00  0.00    -0.350 N 
ATOM      7  H1  UNL     1      35.013  21.989  83.475  1.00  0.00     0.166 HD
HETATM    8  C6  UNL     1      33.046  21.536  83.247  1.00  0.00     0.180 A 
HETATM    9  N2  UNL     1      31.835  21.789  83.743  1.00  0.00    -0.360 N 
ATOM     10  H2  UNL     1      31.027  21.328  83.324  1.00  0.00     0.166 HD
HETATM   11  C7  UNL     1      31.631  22.653  84.805  1.00  0.00     0.121 A 
HETATM   12  C8  UNL     1      32.686  23.298  85.399  1.00  0.00     0.088 A 
HETATM   13  N3  UNL     1      32.529  24.130  86.444  1.00  0.00    -0.244 N 
HETATM   14  C9  UNL     1      31.262  24.486  86.914  1.00  0.00     0.352 C 
HETATM   15  O1  UNL     1      30.227  24.134  86.249  1.00  0.00    -0.244 OA
HETATM   16  N4  UNL     1      30.883  25.210  88.068  1.00  0.00    -0.216 N 
ATOM     17  H4  UNL     1      31.591  25.559  88.714  1.00  0.00     0.199 HD
HETATM   18  C11 UNL     1      33.669  24.699  86.977  1.00  0.00     0.120 A 
HETATM   19  N5  UNL     1      33.538  25.484  87.935  1.00  0.00    -0.384 N 
ATOM     20  H51 UNL     1      32.604  25.669  88.301  1.00  0.00     0.157 HD
ATOM     21  H52 UNL     1      34.380  25.904  88.329  1.00  0.00     0.157 HD
ENDROOT
BRANCH  16  22
HETATM   22  O2  UNL     1      29.530  25.440  88.312  1.00  0.00    -0.281 OA
HETATM   23  C10 UNL     1      29.171  25.021  89.568  1.00  0.00     0.237 C 
ENDBRANCH  16  22
TORSDOF 1
ENDMDL
MODEL 2
REMARK VINA RESULT: -6.162192835      2.378      6.730
REMARK  1 active torsions:
REMARK  status: ('A' for Active; 'I' for Inactive)
REMARK       I    between atoms: N3_13  and  C9_14 
REMARK       I    between atoms: C9_14  and  N4_16 
REMARK    1  A    between atoms: N4_16  and  O2_18 
ROOT
HETATM    1  C1  UNL     1      27.950  23.053  89.612  1.00  0.00     0.028 C 
HETATM    2  C2  UNL     1      29.001  23.856  89.576  1.00  0.00     0.011 A 
HETATM    3  C3  UNL     1      29.136  24.799  90.539  1.00  0.00    -0.003 A 
HETATM    4  C4  UNL     1      28.300  25.002  91.530  1.00  0.00     0.026 C 
HETATM    5  C5  UNL     1      30.240  25.659  90.527  1.00  0.00     0.072 A 
HETATM    6  N1  UNL     1      30.379  26.577  91.494  1.00  0.00    -0.350 N 
ATOM      7  H1  UNL     1      29.658  26.634  92.212  1.00  0.00     0.166 HD
HETATM    8  C6  UNL     1      31.416  27.422  91.566  1.00  0.00     0.180 A 
HETATM    9  N2  UNL     1      32.339  27.314  90.610  1.00  0.00    -0.360 N 
ATOM     10  H2  UNL     1      33.143  27.940  90.633  1.00  0.00     0.166 HD
HETATM   11  C7  UNL     1      32.247  26.385  89.589  1.00  0.00     0.121 A 
HETATM   12  C8  UNL     1      31.182  25.523  89.516  1.00  0.00     0.088 A 
HETATM   13  N3  UNL     1      31.068  24.596  88.549  1.00  0.00    -0.244 N 
HETATM   14  C9  UNL     1      31.970  24.533  87.482  1.00  0.00     0.352 C 
HETATM   15  O1  UNL     1      32.835  25.463  87.341  1.00  0.00    -0.244 OA
HETATM   16  N4  UNL     1      32.117  23.563  86.464  1.00  0.00    -0.216 N 
ATOM     17  H4  UNL     1      31.507  22.746  86.436  1.00  0.00     0.199 HD
HETATM   18  C11 UNL     1      29.965  23.765  88.595  1.00  0.00     0.120 A 
HETATM   19  N5  UNL     1      29.837  22.912  87.697  1.00  0.00    -0.384 N 
ATOM     20  H51 UNL     1      30.551  22.845  86.971  1.00  0.00     0.157 HD
ATOM     21  H52 UNL     1      29.022  22.298  87.731  1.00  0.00     0.157 HD
ENDROOT
BRANCH  16  22
HETATM   22  O2  UNL     1      33.107  23.738  85.499  1.00  0.00    -0.281 OA
HETATM   23  C10 UNL     1      33.623  22.534  85.090  1.00  0.00     0.237 C 
ENDBRANCH  16  22
TORSDOF 1
ENDMDL
MODEL 3
REMARK VINA RESULT: -5.880373875      5.335      7.551
REMARK  1 active torsions:
REMARK  status: ('A' for Active; 'I' for Inactive)
REMARK       I    between atoms: N3_13  and  C9_14 
REMARK       I    between atoms: C9_14  and  N4_16 
REMARK    1  A    between atoms: N4_16  and  O2_18 
ROOT
HETATM    1  C1  UNL     1      29.001  30.470  91.638  1.00  0.00     0.028 C 
HETATM    2  C2  UNL     1      29.375  29.275  91.215  1.00  0.00     0.011 A 
HETATM    3  C3  UNL     1      28.949  28.846  90.003  1.00  0.00    -0.003 A 
HETATM    4  C4  UNL     1      28.174  29.520  89.185  1.00  0.00     0.026 C 
HETATM    5  C5  UNL     1      29.332  27.586  89.531  1.00  0.00     0.072 A 
HETATM    6  N1  UNL     1      28.923  27.176  88.321  1.00  0.00    -0.350 N 
ATOM      7  H1  UNL     1      28.322  27.796  87.779  1.00  0.00     0.166 HD
HETATM    8  C6  UNL     1      29.264  25.995  87.788  1.00  0.00     0.180 A 
HETATM    9  N2  UNL     1      30.053  25.214  88.526  1.00  0.00    -0.360 N 
ATOM     10  H2  UNL     1      30.334  24.308  88.153  1.00  0.00     0.166 HD
HETATM   11  C7  UNL     1      30.505  25.587  89.781  1.00  0.00     0.121 A 
HETATM   12  C8  UNL     1      30.152  26.795  90.325  1.00  0.00     0.088 A 
HETATM   13  N3  UNL     1      30.586  27.198  91.532  1.00  0.00    -0.244 N 
HETATM   14  C9  UNL     1      31.329  26.356  92.364  1.00  0.00     0.352 C 
HETATM   15  O1  UNL     1      31.476  25.128  92.038  1.00  0.00    -0.244 OA
HETATM   16  N4  UNL     1      31.999  26.627  93.580  1.00  0.00    -0.216 N 
ATOM     17  H4  UNL     1      31.987  27.565  93.978  1.00  0.00     0.199 HD
HETATM   18  C11 UNL     1      30.186  28.449  91.964  1.00  0.00     0.120 A 
HETATM   19  N5  UNL     1      30.568  28.829  93.087  1.00  0.00    -0.384 N 
ATOM     20  H51 UNL     1      31.168  28.218  93.641  1.00  0.00     0.157 HD
ATOM     21  H52 UNL     1      30.272  29.752  93.405  1.00  0.00     0.157 HD
ENDROOT
BRANCH  16  22
HETATM   22  O2  UNL     1      32.675  25.594  94.226  1.00  0.00    -0.281 OA
HETATM   23  C10 UNL     1      33.753  26.068  94.930  1.00  0.00     0.237 C 
ENDBRANCH  16  22
TORSDOF 1
ENDMDL
MODEL 4
REMARK VINA RESULT: -5.770293339      1.745      3.406
REMARK  1 active torsions:
REMARK  status: ('A' for Active; 'I' for Inactive)
REMARK       I    between atoms: N3_13  and  C9_14 
REMARK       I    between atoms: C9_14  and  N4_16 
REMARK    1  A    between atoms: N4_16  and  O2_18 
ROOT
HETATM    1  C1  UNL     1      31.502  22.230  84.339  1.00  0.00     0.028 C 
HETATM    2  C2  UNL     1      32.264  22.954  85.141  1.00  0.00     0.011 A 
HETATM    3  C3  UNL     1      33.610  22.897  84.994  1.00  0.00    -0.003 A 
HETATM    4  C4  UNL     1      34.249  22.168  84.109  1.00  0.00     0.026 C 
HETATM    5  C5  UNL     1      34.438  23.655  85.827  1.00  0.00     0.072 A 
HETATM    6  N1  UNL     1      35.768  23.609  85.663  1.00  0.00    -0.350 N 
ATOM      7  H1  UNL     1      36.144  23.002  84.936  1.00  0.00     0.166 HD
HETATM    8  C6  UNL     1      36.629  24.320  86.404  1.00  0.00     0.180 A 
HETATM    9  N2  UNL     1      36.099  25.104  87.343  1.00  0.00    -0.360 N 
ATOM     10  H2  UNL     1      36.723  25.661  87.926  1.00  0.00     0.166 HD
HETATM   11  C7  UNL     1      34.734  25.191  87.556  1.00  0.00     0.121 A 
HETATM   12  C8  UNL     1      33.856  24.459  86.798  1.00  0.00     0.088 A 
HETATM   13  N3  UNL     1      32.524  24.531  86.965  1.00  0.00    -0.244 N 
HETATM   14  C9  UNL     1      31.953  25.268  88.007  1.00  0.00     0.352 C 
HETATM   15  O1  UNL     1      32.711  25.764  88.909  1.00  0.00    -0.244 OA
HETATM   16  N4  UNL     1      30.601  25.593  88.265  1.00  0.00    -0.216 N 
ATOM     17  H4  UNL     1      29.864  25.278  87.634  1.00  0.00     0.199 HD
HETATM   18  C11 UNL     1      31.738  23.768  86.122  1.00  0.00     0.120 A 
HETATM   19  N5  UNL     1      30.503  23.812  86.274  1.00  0.00    -0.384 N 
ATOM     20  H51 UNL     1      30.113  24.415  87.000  1.00  0.00     0.157 HD
ATOM     21  H52 UNL     1      29.923  23.249  85.652  1.00  0.00     0.157 HD
ENDROOT
BRANCH  16  22
HETATM   22  O2  UNL     1      30.289  26.348  89.394  1.00  0.00    -0.281 OA
HETATM   23  C10 UNL     1      28.951  26.273  89.690  1.00  0.00     0.237 C 
ENDBRANCH  16  22
TORSDOF 1
ENDMDL
MODEL 5
REMARK VINA RESULT: -5.719105083      3.685      7.914
REMARK  1 active torsions:
REMARK  status: ('A' for Active; 'I' for Inactive)
REMARK       I    between atoms: N3_13  and  C9_14 
REMARK       I    between atoms: C9_14  and  N4_16 
REMARK    1  A    between atoms: N4_16  and  O2_18 
ROOT
HETATM    1  C1  UNL     1      28.408  29.270  89.243  1.00  0.00     0.028 C 
HETATM    2  C2  UNL     1      28.745  28.191  89.930  1.00  0.00     0.011 A 
HETATM    3  C3  UNL     1      28.785  28.263  91.283  1.00  0.00    -0.003 A 
HETATM    4  C4  UNL     1      28.518  29.331  91.998  1.00  0.00     0.026 C 
HETATM    5  C5  UNL     1      29.136  27.136  92.033  1.00  0.00     0.072 A 
HETATM    6  N1  UNL     1      29.154  27.208  93.372  1.00  0.00    -0.350 N 
ATOM      7  H1  UNL     1      28.924  28.099  93.811  1.00  0.00     0.166 HD
HETATM    8  C6  UNL     1      29.457  26.170  94.163  1.00  0.00     0.180 A 
HETATM    9  N2  UNL     1      29.749  25.022  93.553  1.00  0.00    -0.360 N 
ATOM     10  H2  UNL     1      29.983  24.209  94.122  1.00  0.00     0.166 HD
HETATM   11  C7  UNL     1      29.745  24.890  92.174  1.00  0.00     0.121 A 
HETATM   12  C8  UNL     1      29.438  25.956  91.367  1.00  0.00     0.088 A 
HETATM   13  N3  UNL     1      29.407  25.861  90.027  1.00  0.00    -0.244 N 
HETATM   14  C9  UNL     1      29.806  24.697  89.363  1.00  0.00     0.352 C 
HETATM   15  O1  UNL     1      30.352  23.754  90.033  1.00  0.00    -0.244 OA
HETATM   16  N4  UNL     1      29.709  24.341  87.998  1.00  0.00    -0.216 N 
ATOM     17  H4  UNL     1      29.290  24.983  87.326  1.00  0.00     0.199 HD
HETATM   18  C11 UNL     1      29.055  26.995  89.320  1.00  0.00     0.120 A 
HETATM   19  N5  UNL     1      29.037  26.927  88.076  1.00  0.00    -0.384 N 
ATOM     20  H51 UNL     1      29.267  26.041  87.624  1.00  0.00     0.157 HD
ATOM     21  H52 UNL     1      28.778  27.764  87.554  1.00  0.00     0.157 HD
ENDROOT
BRANCH  16  22
HETATM   22  O2  UNL     1      30.196  23.103  87.584  1.00  0.00    -0.281 OA
HETATM   23  C10 UNL     1      31.118  23.241  86.577  1.00  0.00     0.237 C 
ENDBRANCH  16  22
TORSDOF 1
ENDMDL
