MODEL 1
REMARK VINA RESULT: -6.471996349      0.000      0.000
REMARK  4 active torsions:
REMARK  status: ('A' for Active; 'I' for Inactive)
REMARK    1  A    between atoms: N1_2  and  N2_3 
REMARK    2  A    between atoms: N1_2  and  C2_6 
REMARK    3  A    between atoms: C2_6  and  C3_7 
REMARK    4  A    between atoms: C5_11  and  N4_12 
ROOT
HETATM    1  C3  UNL     1      32.802  23.351  86.773  1.00  0.00     0.158 C 
HETATM    2  C4  UNL     1      31.454  23.026  86.224  1.00  0.00     0.166 C 
HETATM    3  N3  UNL     1      30.593  24.177  86.324  1.00  0.00    -0.223 N 
ATOM      4  H3  UNL     1      29.670  24.104  85.896  1.00  0.00     0.177 HD
HETATM    5  C5  UNL     1      30.909  25.403  86.964  1.00  0.00     0.691 C 
HETATM    6  N6  UNL     1      32.199  25.663  87.016  1.00  0.00    -0.136 N 
ATOM      7  H6  UNL     1      32.542  26.518  87.453  1.00  0.00     0.201 HD
HETATM    8  N7  UNL     1      33.102  24.726  86.450  1.00  0.00    -0.114 NA
ENDROOT
BRANCH   5   9
HETATM    9  N4  UNL     1      29.955  26.282  87.508  1.00  0.00    -0.170 N 
HETATM   10  C6  UNL     1      29.458  26.319  88.651  1.00  0.00     0.155 C 
HETATM   11  N5  UNL     1      28.503  27.210  89.171  1.00  0.00    -0.370 N 
HETATM   12  S1  UNL     1      29.840  25.198  89.980  1.00  0.00    -0.092 SA
HETATM   13  C7  UNL     1      28.568  27.337  90.588  1.00  0.00     0.132 C 
ATOM     14  H5  UNL     1      27.832  27.715  88.592  1.00  0.00     0.161 HD
HETATM   15  C8  UNL     1      28.658  25.930  91.197  1.00  0.00     0.102 C 
ATOM     16  H4  UNL     1      29.618  27.001  86.868  1.00  0.00     0.186 HD
ENDBRANCH   5   9
BRANCH   1  17
HETATM   17  C2  UNL     1      33.840  22.381  86.292  1.00  0.00     0.106 C 
BRANCH  17  18
HETATM   18  N1  UNL     1      34.288  22.527  84.976  1.00  0.00    -0.316 N 
HETATM   19  C1  UNL     1      35.527  23.135  84.730  1.00  0.00     0.176 C 
BRANCH  18  20
HETATM   20  N2  UNL     1      33.768  21.712  84.016  1.00  0.00    -0.344 N 
ATOM     21  H22 UNL     1      33.774  22.033  83.047  1.00  0.00     0.177 HD
ATOM     22  H21 UNL     1      33.108  20.987  84.301  1.00  0.00     0.177 HD
ENDBRANCH  18  20
ENDBRANCH  17  18
ENDBRANCH   1  17
TORSDOF 4
ENDMDL
MODEL 2
REMARK VINA RESULT: -6.277603761      1.983      6.745
REMARK  4 active torsions:
REMARK  status: ('A' for Active; 'I' for Inactive)
REMARK    1  A    between atoms: N1_2  and  N2_3 
REMARK    2  A    between atoms: N1_2  and  C2_6 
REMARK    3  A    between atoms: C2_6  and  C3_7 
REMARK    4  A    between atoms: C5_11  and  N4_12 
ROOT
HETATM    1  C3  UNL     1      29.581  26.085  89.133  1.00  0.00     0.158 C 
HETATM    2  C4  UNL     1      30.013  24.743  89.620  1.00  0.00     0.166 C 
HETATM    3  N3  UNL     1      30.736  24.054  88.580  1.00  0.00    -0.223 N 
ATOM      4  H3  UNL     1      31.162  23.161  88.827  1.00  0.00     0.177 HD
HETATM    5  C5  UNL     1      30.910  24.504  87.246  1.00  0.00     0.691 C 
HETATM    6  N6  UNL     1      30.842  25.812  87.108  1.00  0.00    -0.136 N 
ATOM      7  H6  UNL     1      30.954  26.246  86.192  1.00  0.00     0.201 HD
HETATM    8  N7  UNL     1      30.609  26.603  88.263  1.00  0.00    -0.114 NA
ENDROOT
BRANCH   5   9
HETATM    9  N4  UNL     1      31.134  23.655  86.147  1.00  0.00    -0.170 N 
HETATM   10  C6  UNL     1      32.203  23.311  85.604  1.00  0.00     0.155 C 
HETATM   11  N5  UNL     1      32.400  22.459  84.503  1.00  0.00    -0.370 N 
HETATM   12  S1  UNL     1      33.829  23.840  86.097  1.00  0.00    -0.092 SA
HETATM   13  C7  UNL     1      33.687  21.851  84.489  1.00  0.00     0.132 C 
ATOM     14  H5  UNL     1      31.692  22.293  83.786  1.00  0.00     0.161 HD
HETATM   15  C8  UNL     1      34.739  22.935  84.768  1.00  0.00     0.102 C 
ATOM     16  H4  UNL     1      30.292  23.259  85.731  1.00  0.00     0.186 HD
ENDBRANCH   5   9
BRANCH   1  17
HETATM   17  C2  UNL     1      29.242  27.000  90.273  1.00  0.00     0.106 C 
BRANCH  17  18
HETATM   18  N1  UNL     1      28.846  28.301  89.951  1.00  0.00    -0.316 N 
HETATM   19  C1  UNL     1      29.200  29.361  90.796  1.00  0.00     0.176 C 
BRANCH  18  20
HETATM   20  N2  UNL     1      28.533  28.586  88.656  1.00  0.00    -0.344 N 
ATOM     21  H22 UNL     1      29.247  28.450  87.940  1.00  0.00     0.177 HD
ATOM     22  H21 UNL     1      27.752  29.217  88.474  1.00  0.00     0.177 HD
ENDBRANCH  18  20
ENDBRANCH  17  18
ENDBRANCH   1  17
TORSDOF 4
ENDMDL
MODEL 3
REMARK VINA RESULT: -6.188534171      2.890      6.571
REMARK  4 active torsions:
REMARK  status: ('A' for Active; 'I' for Inactive)
REMARK    1  A    between atoms: N1_2  and  N2_3 
REMARK    2  A    between atoms: N1_2  and  C2_6 
REMARK    3  A    between atoms: C2_6  and  C3_7 
REMARK    4  A    between atoms: C5_11  and  N4_12 
ROOT
HETATM    1  C3  UNL     1      30.677  25.175  90.135  1.00  0.00     0.158 C 
HETATM    2  C4  UNL     1      30.248  26.001  88.970  1.00  0.00     0.166 C 
HETATM    3  N3  UNL     1      30.130  25.172  87.797  1.00  0.00    -0.223 N 
ATOM      4  H3  UNL     1      29.754  25.610  86.956  1.00  0.00     0.177 HD
HETATM    5  C5  UNL     1      30.490  23.803  87.703  1.00  0.00     0.691 C 
HETATM    6  N6  UNL     1      30.448  23.158  88.851  1.00  0.00    -0.136 N 
ATOM      7  H6  UNL     1      30.686  22.168  88.903  1.00  0.00     0.201 HD
HETATM    8  N7  UNL     1      30.065  23.873  90.016  1.00  0.00    -0.114 NA
ENDROOT
BRANCH   5   9
HETATM    9  N4  UNL     1      30.864  23.162  86.509  1.00  0.00    -0.170 N 
HETATM   10  C6  UNL     1      31.980  23.087  85.955  1.00  0.00     0.155 C 
HETATM   11  N5  UNL     1      32.329  22.439  84.757  1.00  0.00    -0.370 N 
HETATM   12  S1  UNL     1      33.485  23.819  86.560  1.00  0.00    -0.092 SA
HETATM   13  C7  UNL     1      33.703  22.072  84.699  1.00  0.00     0.132 C 
ATOM     14  H5  UNL     1      31.665  22.250  84.006  1.00  0.00     0.161 HD
HETATM   15  C8  UNL     1      34.546  23.274  85.149  1.00  0.00     0.102 C 
ATOM     16  H4  UNL     1      30.107  22.685  86.020  1.00  0.00     0.186 HD
ENDBRANCH   5   9
BRANCH   1  17
HETATM   17  C2  UNL     1      30.380  25.862  91.435  1.00  0.00     0.106 C 
BRANCH  17  18
HETATM   18  N1  UNL     1      31.010  25.363  92.579  1.00  0.00    -0.316 N 
HETATM   19  C1  UNL     1      32.122  26.035  93.104  1.00  0.00     0.176 C 
BRANCH  18  20
HETATM   20  N2  UNL     1      30.307  24.536  93.403  1.00  0.00    -0.344 N 
ATOM     21  H22 UNL     1      30.721  24.270  94.296  1.00  0.00     0.177 HD
ATOM     22  H21 UNL     1      29.576  23.953  92.994  1.00  0.00     0.177 HD
ENDBRANCH  18  20
ENDBRANCH  17  18
ENDBRANCH   1  17
TORSDOF 4
ENDMDL
MODEL 4
REMARK VINA RESULT: -6.188357260      1.306      1.631
REMARK  4 active torsions:
REMARK  status: ('A' for Active; 'I' for Inactive)
REMARK    1  A    between atoms: N1_2  and  N2_3 
REMARK    2  A    between atoms: N1_2  and  C2_6 
REMARK    3  A    between atoms: C2_6  and  C3_7 
REMARK    4  A    between atoms: C5_11  and  N4_12 
ROOT
HETATM    1  C3  UNL     1      32.670  23.361  86.754  1.00  0.00     0.158 C 
HETATM    2  C4  UNL     1      32.980  24.811  86.591  1.00  0.00     0.166 C 
HETATM    3  N3  UNL     1      32.049  25.600  87.358  1.00  0.00    -0.223 N 
ATOM      4  H3  UNL     1      32.218  26.606  87.399  1.00  0.00     0.177 HD
HETATM    5  C5  UNL     1      30.919  25.110  88.061  1.00  0.00     0.691 C 
HETATM    6  N6  UNL     1      31.025  23.851  88.434  1.00  0.00    -0.136 N 
ATOM      7  H6  UNL     1      30.272  23.393  88.947  1.00  0.00     0.201 HD
HETATM    8  N7  UNL     1      32.212  23.145  88.106  1.00  0.00    -0.114 NA
ENDROOT
BRANCH   5   9
HETATM    9  N4  UNL     1      29.771  25.871  88.346  1.00  0.00    -0.170 N 
HETATM   10  C6  UNL     1      29.593  26.764  89.200  1.00  0.00     0.155 C 
HETATM   11  N5  UNL     1      28.433  27.512  89.466  1.00  0.00    -0.370 N 
HETATM   12  S1  UNL     1      30.813  27.343  90.358  1.00  0.00    -0.092 SA
HETATM   13  C7  UNL     1      28.705  28.771  90.072  1.00  0.00     0.132 C 
ATOM     14  H5  UNL     1      27.491  27.185  89.247  1.00  0.00     0.161 HD
HETATM   15  C8  UNL     1      29.709  28.553  91.214  1.00  0.00     0.102 C 
ATOM     16  H4  UNL     1      28.959  25.661  87.766  1.00  0.00     0.186 HD
ENDBRANCH   5   9
BRANCH   1  17
HETATM   17  C2  UNL     1      33.839  22.503  86.371  1.00  0.00     0.106 C 
BRANCH  17  18
HETATM   18  N1  UNL     1      34.275  22.573  85.045  1.00  0.00    -0.316 N 
HETATM   19  C1  UNL     1      35.526  23.135  84.758  1.00  0.00     0.176 C 
BRANCH  18  20
HETATM   20  N2  UNL     1      33.722  21.728  84.131  1.00  0.00    -0.344 N 
ATOM     21  H22 UNL     1      34.337  21.250  83.473  1.00  0.00     0.177 HD
ATOM     22  H21 UNL     1      32.733  21.840  83.905  1.00  0.00     0.177 HD
ENDBRANCH  18  20
ENDBRANCH  17  18
ENDBRANCH   1  17
TORSDOF 4
ENDMDL
MODEL 5
REMARK VINA RESULT: -6.134351990      1.166      1.257
REMARK  4 active torsions:
REMARK  status: ('A' for Active; 'I' for Inactive)
REMARK    1  A    between atoms: N1_2  and  N2_3 
REMARK    2  A    between atoms: N1_2  and  C2_6 
REMARK    3  A    between atoms: C2_6  and  C3_7 
REMARK    4  A    between atoms: C5_11  and  N4_12 
ROOT
HETATM    1  C3  UNL     1      32.499  23.787  87.420  1.00  0.00     0.158 C 
HETATM    2  C4  UNL     1      31.120  23.221  87.370  1.00  0.00     0.166 C 
HETATM    3  N3  UNL     1      30.152  24.290  87.340  1.00  0.00    -0.223 N 
ATOM      4  H3  UNL     1      29.175  24.026  87.212  1.00  0.00     0.177 HD
HETATM    5  C5  UNL     1      30.432  25.674  87.473  1.00  0.00     0.691 C 
HETATM    6  N6  UNL     1      31.651  26.011  87.103  1.00  0.00    -0.136 N 
ATOM      7  H6  UNL     1      31.962  26.981  87.155  1.00  0.00     0.201 HD
HETATM    8  N7  UNL     1      32.521  24.995  86.630  1.00  0.00    -0.114 NA
ENDROOT
BRANCH   5   9
HETATM    9  N4  UNL     1      29.516  26.625  87.956  1.00  0.00    -0.170 N 
HETATM   10  C6  UNL     1      29.178  26.890  89.127  1.00  0.00     0.155 C 
HETATM   11  N5  UNL     1      28.256  27.848  89.585  1.00  0.00    -0.370 N 
HETATM   12  S1  UNL     1      29.796  26.083  90.588  1.00  0.00    -0.092 SA
HETATM   13  C7  UNL     1      28.506  28.271  90.921  1.00  0.00     0.132 C 
ATOM     14  H5  UNL     1      27.486  28.203  89.018  1.00  0.00     0.161 HD
HETATM   15  C8  UNL     1      28.753  27.027  91.787  1.00  0.00     0.102 C 
ATOM     16  H4  UNL     1      29.057  27.184  87.238  1.00  0.00     0.186 HD
ENDBRANCH   5   9
BRANCH   1  17
HETATM   17  C2  UNL     1      33.524  22.776  86.999  1.00  0.00     0.106 C 
BRANCH  17  18
HETATM   18  N1  UNL     1      34.003  22.861  85.689  1.00  0.00    -0.316 N 
HETATM   19  C1  UNL     1      33.280  22.261  84.648  1.00  0.00     0.176 C 
BRANCH  18  20
HETATM   20  N2  UNL     1      34.875  23.859  85.377  1.00  0.00    -0.344 N 
ATOM     21  H22 UNL     1      35.690  24.000  85.974  1.00  0.00     0.177 HD
ATOM     22  H21 UNL     1      34.544  24.625  84.789  1.00  0.00     0.177 HD
ENDBRANCH  18  20
ENDBRANCH  17  18
ENDBRANCH   1  17
TORSDOF 4
ENDMDL
