MODEL 1
REMARK VINA RESULT: -5.908136729      0.000      0.000
REMARK  3 active torsions:
REMARK  status: ('A' for Active; 'I' for Inactive)
REMARK    1  A    between atoms: N1_2  and  C2_4 
REMARK    2  A    between atoms: N4_11  and  C4_12 
REMARK    3  A    between atoms: N5_13  and  N6_15 
ROOT
HETATM    1  C2  UNL     1      -1.661  10.575   9.347  1.00  0.00     0.704 A 
HETATM    2  N2  UNL     1      -1.866  11.838   8.931  1.00  0.00    -0.128 N 
ATOM      3  H2  UNL     1      -2.777  12.294   8.882  1.00  0.00     0.205 HD
HETATM    4  N3  UNL     1      -0.719  12.402   8.594  1.00  0.00    -0.236 N 
ATOM      5  H3  UNL     1      -0.580  13.351   8.246  1.00  0.00     0.192 HD
HETATM    6  C3  UNL     1       0.229  11.471   8.803  1.00  0.00     0.361 A 
HETATM    7  O1  UNL     1       1.460  11.602   8.607  1.00  0.00    -0.244 OA
HETATM    8  N4  UNL     1      -0.341  10.324   9.273  1.00  0.00    -0.089 N 
ENDROOT
BRANCH   8   9
HETATM    9  C4  UNL     1       0.344   9.125   9.607  1.00  0.00     0.227 C 
HETATM   10  N5  UNL     1       0.532   8.846  10.850  1.00  0.00    -0.301 N 
ATOM     11  H5  UNL     1       0.190   9.486  11.568  1.00  0.00     0.187 HD
BRANCH  10  12
HETATM   12  N6  UNL     1       1.202   7.676  11.227  1.00  0.00    -0.344 N 
ATOM     13  H62 UNL     1       1.754   7.684  12.084  1.00  0.00     0.176 HD
ATOM     14  H61 UNL     1       1.138   6.833  10.656  1.00  0.00     0.176 HD
ENDBRANCH  10  12
ENDBRANCH   8   9
BRANCH   1  15
HETATM   15  N1  UNL     1      -2.537   9.718   9.752  1.00  0.00    -0.228 N 
HETATM   16  C1  UNL     1      -3.489   9.183   8.800  1.00  0.00     0.165 C 
ATOM     17  H1  UNL     1      -2.559   9.423  10.729  1.00  0.00     0.177 HD
ENDBRANCH   1  15
TORSDOF 3
ENDMDL
MODEL 2
REMARK VINA RESULT: -5.893381996      2.018      2.240
REMARK  3 active torsions:
REMARK  status: ('A' for Active; 'I' for Inactive)
REMARK    1  A    between atoms: N1_2  and  C2_4 
REMARK    2  A    between atoms: N4_11  and  C4_12 
REMARK    3  A    between atoms: N5_13  and  N6_15 
ROOT
HETATM    1  C2  UNL     1      -1.012   9.914  10.437  1.00  0.00     0.704 A 
HETATM    2  N2  UNL     1      -1.786  11.003  10.287  1.00  0.00    -0.128 N 
ATOM      3  H2  UNL     1      -2.307  11.456  11.038  1.00  0.00     0.205 HD
HETATM    4  N3  UNL     1      -1.777  11.403   9.026  1.00  0.00    -0.236 N 
ATOM      5  H3  UNL     1      -2.275  12.201   8.632  1.00  0.00     0.192 HD
HETATM    6  C3  UNL     1      -0.978  10.543   8.370  1.00  0.00     0.361 A 
HETATM    7  O1  UNL     1      -0.699  10.568   7.148  1.00  0.00    -0.244 OA
HETATM    8  N4  UNL     1      -0.491   9.607   9.235  1.00  0.00    -0.089 N 
ENDROOT
BRANCH   8   9
HETATM    9  C4  UNL     1       0.384   8.538   8.905  1.00  0.00     0.227 C 
HETATM   10  N5  UNL     1      -0.095   7.344   8.841  1.00  0.00    -0.301 N 
ATOM     11  H5  UNL     1      -1.086   7.188   9.026  1.00  0.00     0.187 HD
BRANCH  10  12
HETATM   12  N6  UNL     1       0.729   6.260   8.519  1.00  0.00    -0.344 N 
ATOM     13  H62 UNL     1       1.514   6.043   9.133  1.00  0.00     0.176 HD
ATOM     14  H61 UNL     1       0.549   5.698   7.687  1.00  0.00     0.176 HD
ENDBRANCH  10  12
ENDBRANCH   8   9
BRANCH   1  15
HETATM   15  N1  UNL     1      -0.778   9.246  11.517  1.00  0.00    -0.228 N 
HETATM   16  C1  UNL     1      -1.773   8.306  11.991  1.00  0.00     0.165 C 
ATOM     17  H1  UNL     1       0.095   9.379  12.029  1.00  0.00     0.177 HD
ENDBRANCH   1  15
TORSDOF 3
ENDMDL
MODEL 3
REMARK VINA RESULT: -5.830851654      2.017      3.663
REMARK  3 active torsions:
REMARK  status: ('A' for Active; 'I' for Inactive)
REMARK    1  A    between atoms: N1_2  and  C2_4 
REMARK    2  A    between atoms: N4_11  and  C4_12 
REMARK    3  A    between atoms: N5_13  and  N6_15 
ROOT
HETATM    1  C2  UNL     1      -0.664   8.377   9.524  1.00  0.00     0.704 A 
HETATM    2  N2  UNL     1      -1.817   7.710   9.328  1.00  0.00    -0.128 N 
ATOM      3  H2  UNL     1      -1.934   6.704   9.443  1.00  0.00     0.205 HD
HETATM    4  N3  UNL     1      -2.774   8.546   8.963  1.00  0.00    -0.236 N 
ATOM      5  H3  UNL     1      -3.745   8.314   8.751  1.00  0.00     0.192 HD
HETATM    6  C3  UNL     1      -2.209   9.766   8.930  1.00  0.00     0.361 A 
HETATM    7  O1  UNL     1      -2.776  10.843   8.630  1.00  0.00    -0.244 OA
HETATM    8  N4  UNL     1      -0.893   9.679   9.277  1.00  0.00    -0.089 N 
ENDROOT
BRANCH   8   9
HETATM    9  C4  UNL     1       0.026  10.760   9.353  1.00  0.00     0.227 C 
HETATM   10  N5  UNL     1      -0.163  11.671  10.242  1.00  0.00    -0.301 N 
ATOM     11  H5  UNL     1      -0.963  11.603  10.872  1.00  0.00     0.187 HD
BRANCH  10  12
HETATM   12  N6  UNL     1       0.716  12.755  10.355  1.00  0.00    -0.344 N 
ATOM     13  H62 UNL     1       1.719  12.574  10.331  1.00  0.00     0.176 HD
ATOM     14  H61 UNL     1       0.360  13.705  10.459  1.00  0.00     0.176 HD
ENDBRANCH  10  12
ENDBRANCH   8   9
BRANCH   1  15
HETATM   15  N1  UNL     1       0.479   7.899   9.883  1.00  0.00    -0.228 N 
HETATM   16  C1  UNL     1       0.710   7.604  11.283  1.00  0.00     0.165 C 
ATOM     17  H1  UNL     1       1.211   7.732   9.191  1.00  0.00     0.177 HD
ENDBRANCH   1  15
TORSDOF 3
ENDMDL
MODEL 4
REMARK VINA RESULT: -5.739557265      2.401      2.728
REMARK  3 active torsions:
REMARK  status: ('A' for Active; 'I' for Inactive)
REMARK    1  A    between atoms: N1_2  and  C2_4 
REMARK    2  A    between atoms: N4_11  and  C4_12 
REMARK    3  A    between atoms: N5_13  and  N6_15 
ROOT
HETATM    1  C2  UNL     1      -1.260   9.244  11.264  1.00  0.00     0.704 A 
HETATM    2  N2  UNL     1      -1.411  10.580  11.257  1.00  0.00    -0.128 N 
ATOM      3  H2  UNL     1      -1.986  11.105  11.916  1.00  0.00     0.205 HD
HETATM    4  N3  UNL     1      -0.709  11.117  10.273  1.00  0.00    -0.236 N 
ATOM      5  H3  UNL     1      -0.641  12.107  10.036  1.00  0.00     0.192 HD
HETATM    6  C3  UNL     1      -0.103  10.092   9.648  1.00  0.00     0.361 A 
HETATM    7  O1  UNL     1       0.660  10.169   8.656  1.00  0.00    -0.244 OA
HETATM    8  N4  UNL     1      -0.436   8.916  10.253  1.00  0.00    -0.089 N 
ENDROOT
BRANCH   8   9
HETATM    9  C4  UNL     1       0.012   7.622   9.870  1.00  0.00     0.227 C 
HETATM   10  N5  UNL     1       0.201   7.378   8.620  1.00  0.00    -0.301 N 
ATOM     11  H5  UNL     1       0.027   8.110   7.931  1.00  0.00     0.187 HD
BRANCH  10  12
HETATM   12  N6  UNL     1       0.642   6.119   8.196  1.00  0.00    -0.344 N 
ATOM     13  H62 UNL     1       0.306   5.759   7.303  1.00  0.00     0.176 HD
ATOM     14  H61 UNL     1       1.285   5.573   8.769  1.00  0.00     0.176 HD
ENDBRANCH  10  12
ENDBRANCH   8   9
BRANCH   1  15
HETATM   15  N1  UNL     1      -1.788   8.387  12.071  1.00  0.00    -0.228 N 
HETATM   16  C1  UNL     1      -1.344   8.355  13.450  1.00  0.00     0.165 C 
ATOM     17  H1  UNL     1      -2.508   7.742  11.744  1.00  0.00     0.177 HD
ENDBRANCH   1  15
TORSDOF 3
ENDMDL
MODEL 5
REMARK VINA RESULT: -5.676972006      2.522      3.382
REMARK  3 active torsions:
REMARK  status: ('A' for Active; 'I' for Inactive)
REMARK    1  A    between atoms: N1_2  and  C2_4 
REMARK    2  A    between atoms: N4_11  and  C4_12 
REMARK    3  A    between atoms: N5_13  and  N6_15 
ROOT
HETATM    1  C2  UNL     1      -0.275  10.180   9.749  1.00  0.00     0.704 A 
HETATM    2  N2  UNL     1      -0.945  10.699  10.792  1.00  0.00    -0.128 N 
ATOM      3  H2  UNL     1      -1.206  11.681  10.886  1.00  0.00     0.205 HD
HETATM    4  N3  UNL     1      -1.218   9.757  11.679  1.00  0.00    -0.236 N 
ATOM      5  H3  UNL     1      -1.715   9.870  12.562  1.00  0.00     0.192 HD
HETATM    6  C3  UNL     1      -0.705   8.618  11.179  1.00  0.00     0.361 A 
HETATM    7  O1  UNL     1      -0.746   7.484  11.712  1.00  0.00    -0.244 OA
HETATM    8  N4  UNL     1      -0.113   8.864   9.975  1.00  0.00    -0.089 N 
ENDROOT
BRANCH   8   9
HETATM    9  C4  UNL     1       0.536   7.905   9.151  1.00  0.00     0.227 C 
HETATM   10  N5  UNL     1      -0.053   6.782   8.928  1.00  0.00    -0.301 N 
ATOM     11  H5  UNL     1      -0.967   6.601   9.343  1.00  0.00     0.187 HD
BRANCH  10  12
HETATM   12  N6  UNL     1       0.548   5.808   8.122  1.00  0.00    -0.344 N 
ATOM     13  H62 UNL     1       1.555   5.852   7.970  1.00  0.00     0.176 HD
ATOM     14  H61 UNL     1      -0.011   5.069   7.695  1.00  0.00     0.176 HD
ENDBRANCH  10  12
ENDBRANCH   8   9
BRANCH   1  15
HETATM   15  N1  UNL     1       0.158  10.790   8.697  1.00  0.00    -0.228 N 
HETATM   16  C1  UNL     1      -0.267  12.153   8.451  1.00  0.00     0.165 C 
ATOM     17  H1  UNL     1       0.790  10.319   8.048  1.00  0.00     0.177 HD
ENDBRANCH   1  15
TORSDOF 3
ENDMDL
