MODEL 1
REMARK VINA RESULT: -6.735941883      0.000      0.000
REMARK  1 active torsions:
REMARK  status: ('A' for Active; 'I' for Inactive)
REMARK    1  A    between atoms: C1_4  and  C2_6 
ROOT
HETATM    1  C2  UNL     1      -1.010  10.457   9.438  1.00  0.00     0.157 A 
HETATM    2  N3  UNL     1      -0.144  10.049  10.382  1.00  0.00    -0.289 N 
ATOM      3  H3  UNL     1       0.804  10.424  10.376  1.00  0.00     0.187 HD
HETATM    4  N4  UNL     1      -0.480   9.174  11.320  1.00  0.00    -0.251 N 
ATOM      5  H4  UNL     1       0.211   8.893  12.015  1.00  0.00     0.191 HD
HETATM    6  C3  UNL     1      -1.723   8.649  11.371  1.00  0.00     0.341 A 
HETATM    7  O1  UNL     1      -1.999   7.810  12.295  1.00  0.00    -0.245 OA
HETATM    8  N5  UNL     1      -2.638   9.018  10.455  1.00  0.00    -0.272 N 
ATOM      9  H5  UNL     1      -3.581   8.631  10.479  1.00  0.00     0.174 HD
HETATM   10  C4  UNL     1      -2.287   9.905   9.506  1.00  0.00     0.281 A 
HETATM   11  O2  UNL     1      -3.117  10.276   8.630  1.00  0.00    -0.265 OA
ENDROOT
BRANCH   1  12
HETATM   12  C1  UNL     1      -0.664  11.414   8.401  1.00  0.00     0.144 C 
HETATM   13  N1  UNL     1      -0.469  12.634   8.719  1.00  0.00    -0.386 N 
ATOM     14  H12 UNL     1      -0.226  13.306   7.991  1.00  0.00     0.157 HD
ATOM     15  H11 UNL     1      -0.564  12.905   9.698  1.00  0.00     0.157 HD
HETATM   16  N2  UNL     1      -0.534  11.039   7.049  1.00  0.00    -0.081 NA
ENDBRANCH   1  12
TORSDOF 1
ENDMDL
MODEL 2
REMARK VINA RESULT: -6.544059300      1.981      4.199
REMARK  1 active torsions:
REMARK  status: ('A' for Active; 'I' for Inactive)
REMARK    1  A    between atoms: C1_4  and  C2_6 
ROOT
HETATM    1  C2  UNL     1      -0.838   9.223  10.819  1.00  0.00     0.157 A 
HETATM    2  N3  UNL     1      -0.988  10.553  10.691  1.00  0.00    -0.289 N 
ATOM      3  H3  UNL     1      -1.181  11.109  11.523  1.00  0.00     0.187 HD
HETATM    4  N4  UNL     1      -0.895  11.166   9.519  1.00  0.00    -0.251 N 
ATOM      5  H4  UNL     1      -1.018  12.177   9.471  1.00  0.00     0.191 HD
HETATM    6  C3  UNL     1      -0.642  10.474   8.388  1.00  0.00     0.341 A 
HETATM    7  O1  UNL     1      -0.561  11.111   7.283  1.00  0.00    -0.245 OA
HETATM    8  N5  UNL     1      -0.480   9.139   8.449  1.00  0.00    -0.272 N 
ATOM      9  H5  UNL     1      -0.287   8.601   7.604  1.00  0.00     0.174 HD
HETATM   10  C4  UNL     1      -0.577   8.526   9.643  1.00  0.00     0.281 A 
HETATM   11  O2  UNL     1      -0.430   7.275   9.740  1.00  0.00    -0.265 OA
ENDROOT
BRANCH   1  12
HETATM   12  C1  UNL     1      -0.936   8.530  12.093  1.00  0.00     0.144 C 
HETATM   13  N1  UNL     1       0.118   8.357  12.790  1.00  0.00    -0.386 N 
ATOM     14  H12 UNL     1       0.050   7.871  13.684  1.00  0.00     0.157 HD
ATOM     15  H11 UNL     1       1.006   8.711  12.431  1.00  0.00     0.157 HD
HETATM   16  N2  UNL     1      -2.161   8.041  12.587  1.00  0.00    -0.081 NA
ENDBRANCH   1  12
TORSDOF 1
ENDMDL
MODEL 3
REMARK VINA RESULT: -6.295514833      1.727      2.054
REMARK  1 active torsions:
REMARK  status: ('A' for Active; 'I' for Inactive)
REMARK    1  A    between atoms: C1_4  and  C2_6 
ROOT
HETATM    1  C2  UNL     1      -0.545  10.115   9.496  1.00  0.00     0.157 A 
HETATM    2  N3  UNL     1      -1.164  10.562  10.602  1.00  0.00    -0.289 N 
ATOM      3  H3  UNL     1      -1.572  11.496  10.595  1.00  0.00     0.187 HD
HETATM    4  N4  UNL     1      -1.262   9.830  11.704  1.00  0.00    -0.251 N 
ATOM      5  H4  UNL     1      -1.740  10.212  12.519  1.00  0.00     0.191 HD
HETATM    6  C3  UNL     1      -0.738   8.587  11.764  1.00  0.00     0.341 A 
HETATM    7  O1  UNL     1      -0.859   7.921  12.848  1.00  0.00    -0.245 OA
HETATM    8  N5  UNL     1      -0.107   8.080  10.689  1.00  0.00    -0.272 N 
ATOM      9  H5  UNL     1       0.294   7.143  10.717  1.00  0.00     0.174 HD
HETATM   10  C4  UNL     1      -0.012   8.831   9.576  1.00  0.00     0.281 A 
HETATM   11  O2  UNL     1       0.573   8.390   8.547  1.00  0.00    -0.265 OA
ENDROOT
BRANCH   1  12
HETATM   12  C1  UNL     1      -0.426  10.899   8.278  1.00  0.00     0.144 C 
HETATM   13  N1  UNL     1      -1.203  10.649   7.298  1.00  0.00    -0.386 N 
ATOM     14  H12 UNL     1      -1.120  11.200   6.444  1.00  0.00     0.157 HD
ATOM     15  H11 UNL     1      -1.890   9.901   7.397  1.00  0.00     0.157 HD
HETATM   16  N2  UNL     1       0.522  11.932   8.142  1.00  0.00    -0.081 NA
ENDBRANCH   1  12
TORSDOF 1
ENDMDL
MODEL 4
REMARK VINA RESULT: -6.260586410      2.242      2.680
REMARK  1 active torsions:
REMARK  status: ('A' for Active; 'I' for Inactive)
REMARK    1  A    between atoms: C1_4  and  C2_6 
ROOT
HETATM    1  C2  UNL     1      -1.186   9.479   9.373  1.00  0.00     0.157 A 
HETATM    2  N3  UNL     1      -0.481   8.692   8.540  1.00  0.00    -0.289 N 
ATOM      3  H3  UNL     1      -0.648   8.763   7.537  1.00  0.00     0.187 HD
HETATM    4  N4  UNL     1       0.425   7.828   8.978  1.00  0.00    -0.251 N 
ATOM      5  H4  UNL     1       0.934   7.253   8.308  1.00  0.00     0.191 HD
HETATM    6  C3  UNL     1       0.683   7.698  10.297  1.00  0.00     0.341 A 
HETATM    7  O1  UNL     1       1.565   6.852  10.670  1.00  0.00    -0.245 OA
HETATM    8  N5  UNL     1       0.012   8.457  11.183  1.00  0.00    -0.272 N 
ATOM      9  H5  UNL     1       0.196   8.372  12.183  1.00  0.00     0.174 HD
HETATM   10  C4  UNL     1      -0.906   9.331  10.728  1.00  0.00     0.281 A 
HETATM   11  O2  UNL     1      -1.555  10.060  11.529  1.00  0.00    -0.265 OA
ENDROOT
BRANCH   1  12
HETATM   12  C1  UNL     1      -2.182  10.432   8.915  1.00  0.00     0.144 C 
HETATM   13  N1  UNL     1      -1.913  11.678   8.948  1.00  0.00    -0.386 N 
ATOM     14  H12 UNL     1      -2.613  12.347   8.626  1.00  0.00     0.157 HD
ATOM     15  H11 UNL     1      -1.001  11.972   9.298  1.00  0.00     0.157 HD
HETATM   16  N2  UNL     1      -3.442  10.025   8.432  1.00  0.00    -0.081 NA
ENDBRANCH   1  12
TORSDOF 1
ENDMDL
MODEL 5
REMARK VINA RESULT: -6.156913494      1.781      1.802
REMARK  1 active torsions:
REMARK  status: ('A' for Active; 'I' for Inactive)
REMARK    1  A    between atoms: C1_4  and  C2_6 
ROOT
HETATM    1  C2  UNL     1       0.077   9.960   9.518  1.00  0.00     0.157 A 
HETATM    2  N3  UNL     1       0.848   9.087  10.190  1.00  0.00    -0.289 N 
ATOM      3  H3  UNL     1       1.748   9.402  10.551  1.00  0.00     0.187 HD
HETATM    4  N4  UNL     1       0.479   7.831  10.399  1.00  0.00    -0.251 N 
ATOM      5  H4  UNL     1       1.099   7.205  10.914  1.00  0.00     0.191 HD
HETATM    6  C3  UNL     1      -0.703   7.366   9.941  1.00  0.00     0.341 A 
HETATM    7  O1  UNL     1      -1.013   6.147  10.168  1.00  0.00    -0.245 OA
HETATM    8  N5  UNL     1      -1.522   8.190   9.261  1.00  0.00    -0.272 N 
ATOM      9  H5  UNL     1      -2.418   7.855   8.909  1.00  0.00     0.174 HD
HETATM   10  C4  UNL     1      -1.138   9.463   9.053  1.00  0.00     0.281 A 
HETATM   11  O2  UNL     1      -1.879  10.266   8.421  1.00  0.00    -0.265 OA
ENDROOT
BRANCH   1  12
HETATM   12  C1  UNL     1       0.461  11.341   9.277  1.00  0.00     0.144 C 
HETATM   13  N1  UNL     1       0.161  12.229  10.141  1.00  0.00    -0.386 N 
ATOM     14  H12 UNL     1       0.431  13.199   9.972  1.00  0.00     0.157 HD
ATOM     15  H11 UNL     1      -0.344  11.945  10.981  1.00  0.00     0.157 HD
HETATM   16  N2  UNL     1       1.157  11.733   8.117  1.00  0.00    -0.081 NA
ENDBRANCH   1  12
TORSDOF 1
ENDMDL
