MODEL 1
REMARK VINA RESULT: -8.660172492      0.000      0.000
REMARK  6 active torsions:
REMARK  status: ('A' for Active; 'I' for Inactive)
REMARK       I    between atoms: N1_2  and  C2_4 
REMARK    1  A    between atoms: C2_4  and  C3_6 
REMARK    2  A    between atoms: C3_6  and  N2_7 
REMARK    3  A    between atoms: N2_7  and  C4_10 
REMARK       I    between atoms: N3_12  and  C6_13 
REMARK       I    between atoms: C6_13  and  N4_15 
REMARK    4  A    between atoms: N4_15  and  N5_17 
REMARK    5  A    between atoms: N5_17  and  C7_19 
REMARK    6  A    between atoms: C8_22  and  N7_23 
ROOT
HETATM    1  C4  UNL     1      64.187  39.219  39.012  1.00  0.00     0.402 C 
HETATM    2  C5  UNL     1      63.565  39.493  37.672  1.00  0.00     0.192 C 
HETATM    3  N3  UNL     1      62.418  40.272  38.029  1.00  0.00    -0.305 N 
HETATM    4  C6  UNL     1      61.865  41.332  37.272  1.00  0.00     0.338 C 
HETATM    5  O2  UNL     1      60.828  41.960  37.690  1.00  0.00    -0.245 OA
HETATM    6  N4  UNL     1      62.407  41.756  36.038  1.00  0.00    -0.250 N 
ATOM      7  H4  UNL     1      63.233  41.287  35.665  1.00  0.00     0.192 HD
HETATM    8  C10 UNL     1      61.943  39.783  39.283  1.00  0.00     0.363 C 
HETATM    9  N9  UNL     1      63.158  39.494  40.004  1.00  0.00    -0.029 N 
ATOM     10  H91 UNL     1      63.420  40.231  40.659  1.00  0.00     0.281 HD
ATOM     11  H92 UNL     1      63.050  38.745  40.687  1.00  0.00     0.281 HD
ENDROOT
BRANCH   6  12
HETATM   12  N5  UNL     1      61.839  42.793  35.332  1.00  0.00    -0.277 N 
ATOM     13  H5  UNL     1      61.514  42.668  34.373  1.00  0.00     0.189 HD
BRANCH  12  14
HETATM   14  C7  UNL     1      61.721  44.068  36.007  1.00  0.00     0.188 A 
HETATM   15  N6  UNL     1      60.624  44.710  35.972  1.00  0.00    -0.327 N 
HETATM   16  C8  UNL     1      60.753  45.931  36.707  1.00  0.00     0.390 A 
ATOM     17  H6  UNL     1      59.778  44.401  35.492  1.00  0.00     0.165 HD
HETATM   18  N8  UNL     1      62.098  45.982  37.213  1.00  0.00    -0.311 N 
HETATM   19  C9  UNL     1      62.713  44.784  36.766  1.00  0.00     0.289 A 
ATOM     20  H8  UNL     1      62.520  46.721  37.774  1.00  0.00     0.166 HD
HETATM   21  O3  UNL     1      63.905  44.383  36.971  1.00  0.00    -0.264 OA
BRANCH  16  22
HETATM   22  N7  UNL     1      60.474  47.024  35.792  1.00  0.00    -0.041 N 
ATOM     23  H73 UNL     1      61.256  47.672  35.695  1.00  0.00     0.279 HD
ATOM     24  H72 UNL     1      60.427  46.725  34.818  1.00  0.00     0.279 HD
ATOM     25  H71 UNL     1      59.617  47.478  36.109  1.00  0.00     0.279 HD
ENDBRANCH  16  22
ENDBRANCH  12  14
ENDBRANCH   6  12
BRANCH   1  26
HETATM   26  N2  UNL     1      64.567  37.844  39.207  1.00  0.00    -0.036 N 
ATOM     27  H22 UNL     1      63.763  37.220  39.132  1.00  0.00     0.280 HD
ATOM     28  H21 UNL     1      64.819  37.661  40.178  1.00  0.00     0.280 HD
BRANCH  26  29
HETATM   29  C3  UNL     1      65.620  37.455  38.308  1.00  0.00     0.337 C 
BRANCH  29  30
HETATM   30  C2  UNL     1      66.933  37.383  39.011  1.00  0.00     0.243 C 
HETATM   31  N1  UNL     1      67.765  36.244  38.908  1.00  0.00    -0.364 N 
HETATM   32  C1  UNL     1      69.043  36.212  39.567  1.00  0.00     0.149 C 
ATOM     33  H1  UNL     1      67.456  35.439  38.363  1.00  0.00     0.161 HD
HETATM   34  O1  UNL     1      67.295  38.351  39.698  1.00  0.00    -0.272 OA
ENDBRANCH  29  30
ENDBRANCH  26  29
ENDBRANCH   1  26
TORSDOF 6
ENDMDL
MODEL 2
REMARK VINA RESULT: -8.355935992      1.784      8.221
REMARK  6 active torsions:
REMARK  status: ('A' for Active; 'I' for Inactive)
REMARK       I    between atoms: N1_2  and  C2_4 
REMARK    1  A    between atoms: C2_4  and  C3_6 
REMARK    2  A    between atoms: C3_6  and  N2_7 
REMARK    3  A    between atoms: N2_7  and  C4_10 
REMARK       I    between atoms: N3_12  and  C6_13 
REMARK       I    between atoms: C6_13  and  N4_15 
REMARK    4  A    between atoms: N4_15  and  N5_17 
REMARK    5  A    between atoms: N5_17  and  C7_19 
REMARK    6  A    between atoms: C8_22  and  N7_23 
ROOT
HETATM    1  C4  UNL     1      61.744  42.185  35.775  1.00  0.00     0.402 C 
HETATM    2  C5  UNL     1      62.725  41.868  36.867  1.00  0.00     0.192 C 
HETATM    3  N3  UNL     1      61.877  41.319  37.881  1.00  0.00    -0.305 N 
HETATM    4  C6  UNL     1      62.220  40.281  38.780  1.00  0.00     0.338 C 
HETATM    5  O2  UNL     1      61.376  39.869  39.654  1.00  0.00    -0.245 OA
HETATM    6  N4  UNL     1      63.483  39.647  38.771  1.00  0.00    -0.250 N 
ATOM      7  H4  UNL     1      64.187  39.940  38.093  1.00  0.00     0.192 HD
HETATM    8  C10 UNL     1      60.629  42.008  37.813  1.00  0.00     0.363 C 
HETATM    9  N9  UNL     1      60.428  42.181  36.395  1.00  0.00    -0.029 N 
ATOM     10  H91 UNL     1      59.797  41.488  35.992  1.00  0.00     0.281 HD
ATOM     11  H92 UNL     1      59.875  43.008  36.168  1.00  0.00     0.281 HD
ENDROOT
BRANCH   6  12
HETATM   12  N5  UNL     1      63.778  38.640  39.664  1.00  0.00    -0.277 N 
ATOM     13  H5  UNL     1      63.141  38.400  40.424  1.00  0.00     0.189 HD
BRANCH  12  14
HETATM   14  C7  UNL     1      65.030  37.937  39.479  1.00  0.00     0.188 A 
HETATM   15  N6  UNL     1      65.773  37.684  40.479  1.00  0.00    -0.327 N 
HETATM   16  C8  UNL     1      66.945  36.986  40.047  1.00  0.00     0.390 A 
ATOM     17  H6  UNL     1      65.565  37.940  41.444  1.00  0.00     0.165 HD
HETATM   18  N8  UNL     1      66.848  36.835  38.621  1.00  0.00    -0.311 N 
HETATM   19  C9  UNL     1      65.617  37.441  38.262  1.00  0.00     0.289 A 
ATOM     20  H8  UNL     1      67.521  36.387  38.000  1.00  0.00     0.166 HD
HETATM   21  O3  UNL     1      65.096  37.550  37.103  1.00  0.00    -0.264 OA
BRANCH  16  22
HETATM   22  N7  UNL     1      68.097  37.784  40.433  1.00  0.00    -0.041 N 
ATOM     23  H73 UNL     1      67.926  38.788  40.364  1.00  0.00     0.279 HD
ATOM     24  H72 UNL     1      68.286  37.750  41.435  1.00  0.00     0.279 HD
ATOM     25  H71 UNL     1      68.888  37.474  39.868  1.00  0.00     0.279 HD
ENDBRANCH  16  22
ENDBRANCH  12  14
ENDBRANCH   6  12
BRANCH   1  26
HETATM   26  N2  UNL     1      61.910  43.498  35.207  1.00  0.00    -0.036 N 
ATOM     27  H22 UNL     1      61.030  43.860  34.839  1.00  0.00     0.280 HD
ATOM     28  H21 UNL     1      62.443  43.464  34.339  1.00  0.00     0.280 HD
BRANCH  26  29
HETATM   29  C3  UNL     1      62.500  44.410  36.150  1.00  0.00     0.337 C 
BRANCH  29  30
HETATM   30  C2  UNL     1      61.599  45.566  36.422  1.00  0.00     0.243 C 
HETATM   31  N1  UNL     1      62.065  46.727  37.081  1.00  0.00    -0.364 N 
HETATM   32  C1  UNL     1      61.186  47.845  37.299  1.00  0.00     0.149 C 
ATOM     33  H1  UNL     1      63.031  46.773  37.404  1.00  0.00     0.161 HD
HETATM   34  O1  UNL     1      60.415  45.499  36.053  1.00  0.00    -0.272 OA
ENDBRANCH  29  30
ENDBRANCH  26  29
ENDBRANCH   1  26
TORSDOF 6
ENDMDL
MODEL 3
REMARK VINA RESULT: -8.251681448      1.807      8.518
REMARK  6 active torsions:
REMARK  status: ('A' for Active; 'I' for Inactive)
REMARK       I    between atoms: N1_2  and  C2_4 
REMARK    1  A    between atoms: C2_4  and  C3_6 
REMARK    2  A    between atoms: C3_6  and  N2_7 
REMARK    3  A    between atoms: N2_7  and  C4_10 
REMARK       I    between atoms: N3_12  and  C6_13 
REMARK       I    between atoms: C6_13  and  N4_15 
REMARK    4  A    between atoms: N4_15  and  N5_17 
REMARK    5  A    between atoms: N5_17  and  C7_19 
REMARK    6  A    between atoms: C8_22  and  N7_23 
ROOT
HETATM    1  C4  UNL     1      61.816  42.080  35.995  1.00  0.00     0.402 C 
HETATM    2  C5  UNL     1      63.019  41.320  36.477  1.00  0.00     0.192 C 
HETATM    3  N3  UNL     1      62.515  40.676  37.653  1.00  0.00    -0.305 N 
HETATM    4  C6  UNL     1      62.887  39.395  38.123  1.00  0.00     0.338 C 
HETATM    5  O2  UNL     1      62.370  38.917  39.195  1.00  0.00    -0.245 OA
HETATM    6  N4  UNL     1      63.829  38.579  37.456  1.00  0.00    -0.250 N 
ATOM      7  H4  UNL     1      64.267  38.915  36.598  1.00  0.00     0.192 HD
HETATM    8  C10 UNL     1      61.572  41.563  38.254  1.00  0.00     0.363 C 
HETATM    9  N9  UNL     1      60.893  42.138  37.119  1.00  0.00    -0.029 N 
ATOM     10  H91 UNL     1      59.995  41.695  36.922  1.00  0.00     0.281 HD
ATOM     11  H92 UNL     1      60.539  43.077  37.298  1.00  0.00     0.281 HD
ENDROOT
BRANCH   6  12
HETATM   12  N5  UNL     1      64.164  37.336  37.948  1.00  0.00    -0.277 N 
ATOM     13  H5  UNL     1      63.625  36.505  37.704  1.00  0.00     0.189 HD
BRANCH  12  14
HETATM   14  C7  UNL     1      65.313  37.258  38.825  1.00  0.00     0.188 A 
HETATM   15  N6  UNL     1      66.489  37.301  38.342  1.00  0.00    -0.327 N 
HETATM   16  C8  UNL     1      67.450  37.208  39.398  1.00  0.00     0.390 A 
ATOM     17  H6  UNL     1      66.713  37.389  37.351  1.00  0.00     0.165 HD
HETATM   18  N8  UNL     1      66.718  37.092  40.629  1.00  0.00    -0.311 N 
HETATM   19  C9  UNL     1      65.349  37.129  40.258  1.00  0.00     0.289 A 
ATOM     20  H8  UNL     1      67.101  37.003  41.570  1.00  0.00     0.166 HD
HETATM   21  O3  UNL     1      64.323  37.063  41.011  1.00  0.00    -0.264 OA
BRANCH  16  22
HETATM   22  N7  UNL     1      68.272  36.039  39.140  1.00  0.00    -0.041 N 
ATOM     23  H73 UNL     1      67.871  35.418  38.436  1.00  0.00     0.279 HD
ATOM     24  H72 UNL     1      69.136  36.261  38.645  1.00  0.00     0.279 HD
ATOM     25  H71 UNL     1      68.434  35.574  40.034  1.00  0.00     0.279 HD
ENDBRANCH  16  22
ENDBRANCH  12  14
ENDBRANCH   6  12
BRANCH   1  26
HETATM   26  N2  UNL     1      62.095  43.447  35.641  1.00  0.00    -0.036 N 
ATOM     27  H22 UNL     1      62.647  43.506  34.785  1.00  0.00     0.280 HD
ATOM     28  H21 UNL     1      62.760  43.872  36.287  1.00  0.00     0.280 HD
BRANCH  26  29
HETATM   29  C3  UNL     1      60.889  44.223  35.544  1.00  0.00     0.337 C 
BRANCH  29  30
HETATM   30  C2  UNL     1      61.089  45.604  36.069  1.00  0.00     0.243 C 
HETATM   31  N1  UNL     1      60.014  46.517  36.177  1.00  0.00    -0.364 N 
HETATM   32  C1  UNL     1      60.226  47.832  36.720  1.00  0.00     0.149 C 
ATOM     33  H1  UNL     1      59.082  46.241  35.867  1.00  0.00     0.161 HD
HETATM   34  O1  UNL     1      62.229  45.949  36.419  1.00  0.00    -0.272 OA
ENDBRANCH  29  30
ENDBRANCH  26  29
ENDBRANCH   1  26
TORSDOF 6
ENDMDL
MODEL 4
REMARK VINA RESULT: -8.049191315      1.907      8.267
REMARK  6 active torsions:
REMARK  status: ('A' for Active; 'I' for Inactive)
REMARK       I    between atoms: N1_2  and  C2_4 
REMARK    1  A    between atoms: C2_4  and  C3_6 
REMARK    2  A    between atoms: C3_6  and  N2_7 
REMARK    3  A    between atoms: N2_7  and  C4_10 
REMARK       I    between atoms: N3_12  and  C6_13 
REMARK       I    between atoms: C6_13  and  N4_15 
REMARK    4  A    between atoms: N4_15  and  N5_17 
REMARK    5  A    between atoms: N5_17  and  C7_19 
REMARK    6  A    between atoms: C8_22  and  N7_23 
ROOT
HETATM    1  C4  UNL     1      61.802  42.216  35.852  1.00  0.00     0.402 C 
HETATM    2  C5  UNL     1      62.642  41.850  37.042  1.00  0.00     0.192 C 
HETATM    3  N3  UNL     1      61.658  41.373  37.966  1.00  0.00    -0.305 N 
HETATM    4  C6  UNL     1      61.837  40.328  38.904  1.00  0.00     0.338 C 
HETATM    5  O2  UNL     1      60.882  39.985  39.688  1.00  0.00    -0.245 OA
HETATM    6  N4  UNL     1      63.048  39.612  39.031  1.00  0.00    -0.250 N 
ATOM      7  H4  UNL     1      63.837  39.849  38.428  1.00  0.00     0.192 HD
HETATM    8  C10 UNL     1      60.473  42.142  37.764  1.00  0.00     0.363 C 
HETATM    9  N9  UNL     1      60.431  42.308  36.332  1.00  0.00    -0.029 N 
ATOM     10  H91 UNL     1      59.800  41.652  35.871  1.00  0.00     0.281 HD
ATOM     11  H92 UNL     1      59.962  43.166  36.042  1.00  0.00     0.281 HD
ENDROOT
BRANCH   6  12
HETATM   12  N5  UNL     1      63.181  38.601  39.957  1.00  0.00    -0.277 N 
ATOM     13  H5  UNL     1      62.389  38.285  40.517  1.00  0.00     0.189 HD
BRANCH  12  14
HETATM   14  C7  UNL     1      64.493  38.005  40.103  1.00  0.00     0.188 A 
HETATM   15  N6  UNL     1      65.404  38.252  39.252  1.00  0.00    -0.327 N 
HETATM   16  C8  UNL     1      66.602  37.554  39.609  1.00  0.00     0.390 A 
ATOM     17  H6  UNL     1      65.298  38.858  38.438  1.00  0.00     0.165 HD
HETATM   18  N8  UNL     1      66.322  36.817  40.810  1.00  0.00    -0.311 N 
HETATM   19  C9  UNL     1      64.971  37.112  41.126  1.00  0.00     0.289 A 
ATOM     20  H8  UNL     1      66.959  36.210  41.326  1.00  0.00     0.166 HD
HETATM   21  O3  UNL     1      64.278  36.690  42.109  1.00  0.00    -0.264 OA
BRANCH  16  22
HETATM   22  N7  UNL     1      66.946  36.681  38.500  1.00  0.00    -0.041 N 
ATOM     23  H73 UNL     1      66.127  36.337  37.996  1.00  0.00     0.279 HD
ATOM     24  H72 UNL     1      67.382  37.177  37.723  1.00  0.00     0.279 HD
ATOM     25  H71 UNL     1      67.529  35.930  38.870  1.00  0.00     0.279 HD
ENDBRANCH  16  22
ENDBRANCH  12  14
ENDBRANCH   6  12
BRANCH   1  26
HETATM   26  N2  UNL     1      62.113  43.507  35.295  1.00  0.00    -0.036 N 
ATOM     27  H22 UNL     1      61.314  43.901  34.797  1.00  0.00     0.280 HD
ATOM     28  H21 UNL     1      62.763  43.429  34.513  1.00  0.00     0.280 HD
BRANCH  26  29
HETATM   29  C3  UNL     1      62.605  44.410  36.300  1.00  0.00     0.337 C 
BRANCH  29  30
HETATM   30  C2  UNL     1      61.726  45.607  36.429  1.00  0.00     0.243 C 
HETATM   31  N1  UNL     1      62.165  46.779  37.087  1.00  0.00    -0.364 N 
HETATM   32  C1  UNL     1      61.311  47.934  37.168  1.00  0.00     0.149 C 
ATOM     33  H1  UNL     1      63.093  46.806  37.508  1.00  0.00     0.161 HD
HETATM   34  O1  UNL     1      60.585  45.564  35.941  1.00  0.00    -0.272 OA
ENDBRANCH  29  30
ENDBRANCH  26  29
ENDBRANCH   1  26
TORSDOF 6
ENDMDL
MODEL 5
REMARK VINA RESULT: -8.043019987      1.433      1.443
REMARK  6 active torsions:
REMARK  status: ('A' for Active; 'I' for Inactive)
REMARK       I    between atoms: N1_2  and  C2_4 
REMARK    1  A    between atoms: C2_4  and  C3_6 
REMARK    2  A    between atoms: C3_6  and  N2_7 
REMARK    3  A    between atoms: N2_7  and  C4_10 
REMARK       I    between atoms: N3_12  and  C6_13 
REMARK       I    between atoms: C6_13  and  N4_15 
REMARK    4  A    between atoms: N4_15  and  N5_17 
REMARK    5  A    between atoms: N5_17  and  C7_19 
REMARK    6  A    between atoms: C8_22  and  N7_23 
ROOT
HETATM    1  C4  UNL     1      64.226  39.201  39.053  1.00  0.00     0.402 C 
HETATM    2  C5  UNL     1      63.574  39.464  37.726  1.00  0.00     0.192 C 
HETATM    3  N3  UNL     1      62.440  40.254  38.101  1.00  0.00    -0.305 N 
HETATM    4  C6  UNL     1      61.875  41.309  37.346  1.00  0.00     0.338 C 
HETATM    5  O2  UNL     1      60.852  41.949  37.782  1.00  0.00    -0.245 OA
HETATM    6  N4  UNL     1      62.391  41.717  36.096  1.00  0.00    -0.250 N 
ATOM      7  H4  UNL     1      63.205  41.239  35.708  1.00  0.00     0.192 HD
HETATM    8  C10 UNL     1      61.992  39.781  39.371  1.00  0.00     0.363 C 
HETATM    9  N9  UNL     1      63.222  39.493  40.066  1.00  0.00    -0.029 N 
ATOM     10  H91 UNL     1      63.504  40.235  40.707  1.00  0.00     0.281 HD
ATOM     11  H92 UNL     1      63.126  38.751  40.760  1.00  0.00     0.281 HD
ENDROOT
BRANCH   6  12
HETATM   12  N5  UNL     1      61.812  42.750  35.392  1.00  0.00    -0.277 N 
ATOM     13  H5  UNL     1      61.487  42.624  34.433  1.00  0.00     0.189 HD
BRANCH  12  14
HETATM   14  C7  UNL     1      61.684  44.023  36.069  1.00  0.00     0.188 A 
HETATM   15  N6  UNL     1      60.588  44.666  36.019  1.00  0.00    -0.327 N 
HETATM   16  C8  UNL     1      60.706  45.884  36.759  1.00  0.00     0.390 A 
ATOM     17  H6  UNL     1      59.750  44.359  35.524  1.00  0.00     0.165 HD
HETATM   18  N8  UNL     1      62.042  45.933  37.287  1.00  0.00    -0.311 N 
HETATM   19  C9  UNL     1      62.664  44.736  36.846  1.00  0.00     0.289 A 
ATOM     20  H8  UNL     1      62.456  46.670  37.857  1.00  0.00     0.166 HD
HETATM   21  O3  UNL     1      63.853  44.333  37.069  1.00  0.00    -0.264 OA
BRANCH  16  22
HETATM   22  N7  UNL     1      60.442  46.981  35.844  1.00  0.00    -0.041 N 
ATOM     23  H73 UNL     1      61.088  47.004  35.054  1.00  0.00     0.279 HD
ATOM     24  H72 UNL     1      59.583  46.854  35.309  1.00  0.00     0.279 HD
ATOM     25  H71 UNL     1      60.448  47.843  36.388  1.00  0.00     0.279 HD
ENDBRANCH  16  22
ENDBRANCH  12  14
ENDBRANCH   6  12
BRANCH   1  26
HETATM   26  N2  UNL     1      64.602  37.825  39.254  1.00  0.00    -0.036 N 
ATOM     27  H22 UNL     1      64.535  37.290  38.388  1.00  0.00     0.280 HD
ATOM     28  H21 UNL     1      63.905  37.324  39.804  1.00  0.00     0.280 HD
BRANCH  26  29
HETATM   29  C3  UNL     1      65.911  37.717  39.839  1.00  0.00     0.337 C 
BRANCH  29  30
HETATM   30  C2  UNL     1      65.864  36.985  41.138  1.00  0.00     0.243 C 
HETATM   31  N1  UNL     1      67.031  36.440  41.721  1.00  0.00    -0.364 N 
HETATM   32  C1  UNL     1      66.966  35.770  42.992  1.00  0.00     0.149 C 
ATOM     33  H1  UNL     1      67.925  36.522  41.238  1.00  0.00     0.161 HD
HETATM   34  O1  UNL     1      64.771  36.861  41.713  1.00  0.00    -0.272 OA
ENDBRANCH  29  30
ENDBRANCH  26  29
ENDBRANCH   1  26
TORSDOF 6
ENDMDL
