MODEL 1
REMARK VINA RESULT: -7.717730744      0.000      0.000
REMARK  7 active torsions:
REMARK  status: ('A' for Active; 'I' for Inactive)
REMARK    1  A    between atoms: N1_1  and  N2_4 
REMARK    2  A    between atoms: N2_4  and  C1_5 
REMARK    3  A    between atoms: C2_8  and  N4_9 
REMARK       I    between atoms: N4_9  and  C3_11 
REMARK    4  A    between atoms: C3_11  and  C4_13 
REMARK    5  A    between atoms: C4_13  and  N5_14 
REMARK    6  A    between atoms: C4_13  and  C5_18 
REMARK       I    between atoms: C5_18  and  N6_20 
REMARK    7  A    between atoms: N6_20  and  C6_22 
ROOT
HETATM    1  C4  UNL     1      63.091  38.944  37.945  1.00  0.00     0.366 C 
ENDROOT
BRANCH   1   2
HETATM    2  C3  UNL     1      63.800  38.496  39.154  1.00  0.00     0.264 C 
HETATM    3  N4  UNL     1      63.155  37.895  40.263  1.00  0.00    -0.290 N 
ATOM      4  H4  UNL     1      62.145  37.757  40.243  1.00  0.00     0.172 HD
HETATM    5  O1  UNL     1      65.049  38.663  39.186  1.00  0.00    -0.270 OA
BRANCH   3   6
HETATM    6  C2  UNL     1      63.914  37.475  41.426  1.00  0.00     0.228 A 
HETATM    7  N3  UNL     1      63.929  37.780  42.666  1.00  0.00    -0.314 N 
HETATM    8  C1  UNL     1      64.970  36.880  42.999  1.00  0.00     0.351 A 
ATOM      9  H3  UNL     1      63.385  38.440  43.221  1.00  0.00     0.167 HD
HETATM   10  O4  UNL     1      64.930  36.569  41.647  1.00  0.00    -0.279 OA
BRANCH   8  11
HETATM   11  N2  UNL     1      66.171  37.538  43.470  1.00  0.00    -0.094 NA
BRANCH  11  12
HETATM   12  N1  UNL     1      67.231  36.645  43.273  1.00  0.00    -0.344 N 
ATOM     13  H12 UNL     1      67.362  36.046  42.458  1.00  0.00     0.172 HD
ATOM     14  H11 UNL     1      67.834  36.712  44.094  1.00  0.00     0.172 HD
ENDBRANCH  11  12
ENDBRANCH   8  11
ENDBRANCH   3   6
ENDBRANCH   1   2
BRANCH   1  15
HETATM   15  N5  UNL     1      63.954  39.052  36.803  1.00  0.00    -0.058 N 
ATOM     16  H53 UNL     1      64.899  39.316  37.082  1.00  0.00     0.275 HD
ATOM     17  H52 UNL     1      64.150  38.133  36.404  1.00  0.00     0.275 HD
ATOM     18  H51 UNL     1      63.591  39.688  36.092  1.00  0.00     0.275 HD
ENDBRANCH   1  15
BRANCH   1  19
HETATM   19  C5  UNL     1      62.539  40.314  38.236  1.00  0.00     0.263 C 
HETATM   20  O2  UNL     1      61.571  40.478  39.038  1.00  0.00    -0.270 OA
HETATM   21  N6  UNL     1      63.066  41.482  37.637  1.00  0.00    -0.309 N 
ATOM     22  H6  UNL     1      63.988  41.810  37.927  1.00  0.00     0.170 HD
BRANCH  21  23
HETATM   23  C6  UNL     1      62.427  42.145  36.741  1.00  0.00     0.137 A 
HETATM   24  N7  UNL     1      61.482  41.551  35.998  1.00  0.00    -0.293 N 
HETATM   25  C7  UNL     1      60.834  42.267  35.074  1.00  0.00     0.325 A 
ATOM     26  H7  UNL     1      61.261  40.564  36.136  1.00  0.00     0.172 HD
HETATM   27  O3  UNL     1      59.949  41.722  34.375  1.00  0.00    -0.247 OA
HETATM   28  N8  UNL     1      61.088  43.570  34.850  1.00  0.00    -0.317 N 
HETATM   29  C8  UNL     1      62.028  44.194  35.576  1.00  0.00     0.123 A 
ATOM     30  H8  UNL     1      60.570  44.079  34.135  1.00  0.00     0.170 HD
HETATM   31  C9  UNL     1      62.699  43.470  36.527  1.00  0.00     0.106 A 
HETATM   32  N9  UNL     1      63.699  44.159  37.292  1.00  0.00    -0.097 NA
ENDBRANCH  21  23
ENDBRANCH   1  19
TORSDOF 7
ENDMDL
MODEL 2
REMARK VINA RESULT: -7.691472445      2.927      8.236
REMARK  7 active torsions:
REMARK  status: ('A' for Active; 'I' for Inactive)
REMARK    1  A    between atoms: N1_1  and  N2_4 
REMARK    2  A    between atoms: N2_4  and  C1_5 
REMARK    3  A    between atoms: C2_8  and  N4_9 
REMARK       I    between atoms: N4_9  and  C3_11 
REMARK    4  A    between atoms: C3_11  and  C4_13 
REMARK    5  A    between atoms: C4_13  and  N5_14 
REMARK    6  A    between atoms: C4_13  and  C5_18 
REMARK       I    between atoms: C5_18  and  N6_20 
REMARK    7  A    between atoms: N6_20  and  C6_22 
ROOT
HETATM    1  C4  UNL     1      62.754  42.123  36.896  1.00  0.00     0.366 C 
ENDROOT
BRANCH   1   2
HETATM    2  C3  UNL     1      62.627  43.590  36.883  1.00  0.00     0.264 C 
HETATM    3  N4  UNL     1      61.430  44.269  36.546  1.00  0.00    -0.290 N 
ATOM      4  H4  UNL     1      60.600  43.732  36.296  1.00  0.00     0.172 HD
HETATM    5  O1  UNL     1      63.649  44.261  37.191  1.00  0.00    -0.270 OA
BRANCH   3   6
HETATM    6  C2  UNL     1      61.372  45.719  36.553  1.00  0.00     0.228 A 
HETATM    7  N3  UNL     1      62.066  46.659  37.069  1.00  0.00    -0.314 N 
HETATM    8  C1  UNL     1      61.265  47.701  36.544  1.00  0.00     0.351 A 
ATOM      9  H3  UNL     1      62.902  46.658  37.653  1.00  0.00     0.167 HD
HETATM   10  O4  UNL     1      60.531  46.658  35.996  1.00  0.00    -0.279 OA
BRANCH   8  11
HETATM   11  N2  UNL     1      60.602  48.486  37.565  1.00  0.00    -0.094 NA
BRANCH  11  12
HETATM   12  N1  UNL     1      59.451  49.029  36.981  1.00  0.00    -0.344 N 
ATOM     13  H12 UNL     1      59.412  49.524  36.090  1.00  0.00     0.172 HD
ATOM     14  H11 UNL     1      58.675  48.835  37.614  1.00  0.00     0.172 HD
ENDBRANCH  11  12
ENDBRANCH   8  11
ENDBRANCH   3   6
ENDBRANCH   1   2
BRANCH   1  15
HETATM   15  N5  UNL     1      62.361  41.520  35.653  1.00  0.00    -0.058 N 
ATOM     16  H53 UNL     1      62.207  40.518  35.766  1.00  0.00     0.275 HD
ATOM     17  H52 UNL     1      61.416  41.804  35.391  1.00  0.00     0.275 HD
ATOM     18  H51 UNL     1      63.020  41.708  34.898  1.00  0.00     0.275 HD
ENDBRANCH   1  15
BRANCH   1  19
HETATM   19  C5  UNL     1      61.833  41.608  37.970  1.00  0.00     0.263 C 
HETATM   20  O2  UNL     1      61.211  42.398  38.741  1.00  0.00    -0.270 OA
HETATM   21  N6  UNL     1      61.614  40.225  38.174  1.00  0.00    -0.309 N 
ATOM     22  H6  UNL     1      61.072  39.706  37.483  1.00  0.00     0.170 HD
BRANCH  21  23
HETATM   23  C6  UNL     1      62.072  39.598  39.198  1.00  0.00     0.137 A 
HETATM   24  N7  UNL     1      61.464  39.702  40.389  1.00  0.00    -0.293 N 
HETATM   25  C7  UNL     1      61.963  39.038  41.436  1.00  0.00     0.325 A 
ATOM     26  H7  UNL     1      60.630  40.282  40.494  1.00  0.00     0.172 HD
HETATM   27  O3  UNL     1      61.402  39.128  42.552  1.00  0.00    -0.247 OA
HETATM   28  N8  UNL     1      63.060  38.261  41.351  1.00  0.00    -0.317 N 
HETATM   29  C8  UNL     1      63.692  38.137  40.175  1.00  0.00     0.123 A 
ATOM     30  H8  UNL     1      63.407  37.772  42.175  1.00  0.00     0.170 HD
HETATM   31  C9  UNL     1      63.189  38.813  39.094  1.00  0.00     0.106 A 
HETATM   32  N9  UNL     1      63.881  38.664  37.846  1.00  0.00    -0.097 NA
ENDBRANCH  21  23
ENDBRANCH   1  19
TORSDOF 7
ENDMDL
MODEL 3
REMARK VINA RESULT: -7.576062649      3.062      4.571
REMARK  7 active torsions:
REMARK  status: ('A' for Active; 'I' for Inactive)
REMARK    1  A    between atoms: N1_1  and  N2_4 
REMARK    2  A    between atoms: N2_4  and  C1_5 
REMARK    3  A    between atoms: C2_8  and  N4_9 
REMARK       I    between atoms: N4_9  and  C3_11 
REMARK    4  A    between atoms: C3_11  and  C4_13 
REMARK    5  A    between atoms: C4_13  and  N5_14 
REMARK    6  A    between atoms: C4_13  and  C5_18 
REMARK       I    between atoms: C5_18  and  N6_20 
REMARK    7  A    between atoms: N6_20  and  C6_22 
ROOT
HETATM    1  C4  UNL     1      60.711  42.435  36.914  1.00  0.00     0.366 C 
ENDROOT
BRANCH   1   2
HETATM    2  C3  UNL     1      61.491  41.398  37.609  1.00  0.00     0.264 C 
HETATM    3  N4  UNL     1      62.683  40.836  37.090  1.00  0.00    -0.290 N 
ATOM      4  H4  UNL     1      63.038  41.152  36.188  1.00  0.00     0.172 HD
HETATM    5  O1  UNL     1      61.059  41.002  38.725  1.00  0.00    -0.270 OA
BRANCH   3   6
HETATM    6  C2  UNL     1      63.405  39.815  37.827  1.00  0.00     0.228 A 
HETATM    7  N3  UNL     1      63.990  39.749  38.961  1.00  0.00    -0.314 N 
HETATM    8  C1  UNL     1      64.390  38.400  38.811  1.00  0.00     0.351 A 
ATOM      9  H3  UNL     1      64.123  40.429  39.710  1.00  0.00     0.167 HD
HETATM   10  O4  UNL     1      63.746  38.502  37.585  1.00  0.00    -0.279 OA
BRANCH   8  11
HETATM   11  N2  UNL     1      65.827  38.227  38.768  1.00  0.00    -0.094 NA
BRANCH  11  12
HETATM   12  N1  UNL     1      66.072  36.973  38.195  1.00  0.00    -0.344 N 
ATOM     13  H12 UNL     1      66.467  36.807  37.270  1.00  0.00     0.172 HD
ATOM     14  H11 UNL     1      65.780  36.272  38.877  1.00  0.00     0.172 HD
ENDBRANCH  11  12
ENDBRANCH   8  11
ENDBRANCH   3   6
ENDBRANCH   1   2
BRANCH   1  15
HETATM   15  N5  UNL     1      60.529  42.151  35.518  1.00  0.00    -0.058 N 
ATOM     16  H53 UNL     1      61.276  41.551  35.167  1.00  0.00     0.275 HD
ATOM     17  H52 UNL     1      59.734  41.528  35.372  1.00  0.00     0.275 HD
ATOM     18  H51 UNL     1      60.440  42.995  34.952  1.00  0.00     0.275 HD
ENDBRANCH   1  15
BRANCH   1  19
HETATM   19  C5  UNL     1      61.485  43.722  37.025  1.00  0.00     0.263 C 
HETATM   20  O2  UNL     1      62.356  43.891  37.929  1.00  0.00    -0.270 OA
HETATM   21  N6  UNL     1      61.282  44.802  36.134  1.00  0.00    -0.309 N 
ATOM     22  H6  UNL     1      61.605  44.711  35.170  1.00  0.00     0.170 HD
BRANCH  21  23
HETATM   23  C6  UNL     1      60.708  45.894  36.493  1.00  0.00     0.137 A 
HETATM   24  N7  UNL     1      59.378  45.941  36.657  1.00  0.00    -0.293 N 
HETATM   25  C7  UNL     1      58.808  47.091  37.033  1.00  0.00     0.325 A 
ATOM     26  H7  UNL     1      58.808  45.110  36.497  1.00  0.00     0.172 HD
HETATM   27  O3  UNL     1      57.566  47.146  37.189  1.00  0.00    -0.247 OA
HETATM   28  N8  UNL     1      59.514  48.216  37.255  1.00  0.00    -0.317 N 
HETATM   29  C8  UNL     1      60.846  48.202  37.100  1.00  0.00     0.123 A 
ATOM     30  H8  UNL     1      59.039  49.072  37.541  1.00  0.00     0.170 HD
HETATM   31  C9  UNL     1      61.441  47.028  36.715  1.00  0.00     0.106 A 
HETATM   32  N9  UNL     1      62.867  47.037  36.556  1.00  0.00    -0.097 NA
ENDBRANCH  21  23
ENDBRANCH   1  19
TORSDOF 7
ENDMDL
MODEL 4
REMARK VINA RESULT: -7.535006617      3.101      4.862
REMARK  7 active torsions:
REMARK  status: ('A' for Active; 'I' for Inactive)
REMARK    1  A    between atoms: N1_1  and  N2_4 
REMARK    2  A    between atoms: N2_4  and  C1_5 
REMARK    3  A    between atoms: C2_8  and  N4_9 
REMARK       I    between atoms: N4_9  and  C3_11 
REMARK    4  A    between atoms: C3_11  and  C4_13 
REMARK    5  A    between atoms: C4_13  and  N5_14 
REMARK    6  A    between atoms: C4_13  and  C5_18 
REMARK       I    between atoms: C5_18  and  N6_20 
REMARK    7  A    between atoms: N6_20  and  C6_22 
ROOT
HETATM    1  C4  UNL     1      61.005  42.623  35.875  1.00  0.00     0.366 C 
ENDROOT
BRANCH   1   2
HETATM    2  C3  UNL     1      61.625  41.723  36.861  1.00  0.00     0.264 C 
HETATM    3  N4  UNL     1      62.710  40.863  36.562  1.00  0.00    -0.290 N 
ATOM      4  H4  UNL     1      63.098  40.851  35.620  1.00  0.00     0.172 HD
HETATM    5  O1  UNL     1      61.151  41.732  38.029  1.00  0.00    -0.270 OA
BRANCH   3   6
HETATM    6  C2  UNL     1      63.276  39.999  37.582  1.00  0.00     0.228 A 
HETATM    7  N3  UNL     1      63.805  40.169  38.732  1.00  0.00    -0.314 N 
HETATM    8  C1  UNL     1      64.045  38.793  38.958  1.00  0.00     0.351 A 
ATOM      9  H3  UNL     1      63.989  41.002  39.291  1.00  0.00     0.167 HD
HETATM   10  O4  UNL     1      63.465  38.640  37.706  1.00  0.00    -0.279 OA
BRANCH   8  11
HETATM   11  N2  UNL     1      65.451  38.463  39.059  1.00  0.00    -0.094 NA
BRANCH  11  12
HETATM   12  N1  UNL     1      65.577  37.104  38.742  1.00  0.00    -0.344 N 
ATOM     13  H12 UNL     1      66.330  36.488  39.049  1.00  0.00     0.172 HD
ATOM     14  H11 UNL     1      64.781  36.860  38.153  1.00  0.00     0.172 HD
ENDBRANCH  11  12
ENDBRANCH   8  11
ENDBRANCH   3   6
ENDBRANCH   1   2
BRANCH   1  15
HETATM   15  N5  UNL     1      61.194  42.180  34.522  1.00  0.00    -0.058 N 
ATOM     16  H53 UNL     1      61.660  41.272  34.497  1.00  0.00     0.275 HD
ATOM     17  H52 UNL     1      60.305  41.922  34.094  1.00  0.00     0.275 HD
ATOM     18  H51 UNL     1      61.690  42.863  33.949  1.00  0.00     0.275 HD
ENDBRANCH   1  15
BRANCH   1  19
HETATM   19  C5  UNL     1      61.673  43.965  36.018  1.00  0.00     0.263 C 
HETATM   20  O2  UNL     1      62.919  44.063  36.225  1.00  0.00    -0.270 OA
HETATM   21  N6  UNL     1      60.952  45.179  35.928  1.00  0.00    -0.309 N 
ATOM     22  H6  UNL     1      60.594  45.472  35.018  1.00  0.00     0.170 HD
BRANCH  21  23
HETATM   23  C6  UNL     1      60.730  45.926  36.949  1.00  0.00     0.137 A 
HETATM   24  N7  UNL     1      60.132  45.428  38.041  1.00  0.00    -0.293 N 
HETATM   25  C7  UNL     1      59.916  46.229  39.089  1.00  0.00     0.325 A 
ATOM     26  H7  UNL     1      59.846  44.448  38.071  1.00  0.00     0.172 HD
HETATM   27  O3  UNL     1      59.358  45.773  40.114  1.00  0.00    -0.247 OA
HETATM   28  N8  UNL     1      60.272  47.528  39.099  1.00  0.00    -0.317 N 
HETATM   29  C8  UNL     1      60.872  48.057  38.023  1.00  0.00     0.123 A 
ATOM     30  H8  UNL     1      60.088  48.104  39.921  1.00  0.00     0.170 HD
HETATM   31  C9  UNL     1      61.100  47.245  36.942  1.00  0.00     0.106 A 
HETATM   32  N9  UNL     1      61.743  47.833  35.803  1.00  0.00    -0.097 NA
ENDBRANCH  21  23
ENDBRANCH   1  19
TORSDOF 7
ENDMDL
MODEL 5
REMARK VINA RESULT: -7.513394066      2.875      8.183
REMARK  7 active torsions:
REMARK  status: ('A' for Active; 'I' for Inactive)
REMARK    1  A    between atoms: N1_1  and  N2_4 
REMARK    2  A    between atoms: N2_4  and  C1_5 
REMARK    3  A    between atoms: C2_8  and  N4_9 
REMARK       I    between atoms: N4_9  and  C3_11 
REMARK    4  A    between atoms: C3_11  and  C4_13 
REMARK    5  A    between atoms: C4_13  and  N5_14 
REMARK    6  A    between atoms: C4_13  and  C5_18 
REMARK       I    between atoms: C5_18  and  N6_20 
REMARK    7  A    between atoms: N6_20  and  C6_22 
ROOT
HETATM    1  C4  UNL     1      62.353  42.381  36.113  1.00  0.00     0.366 C 
ENDROOT
BRANCH   1   2
HETATM    2  C3  UNL     1      61.987  43.805  36.178  1.00  0.00     0.264 C 
HETATM    3  N4  UNL     1      60.698  44.266  36.543  1.00  0.00    -0.290 N 
ATOM      4  H4  UNL     1      59.970  43.592  36.777  1.00  0.00     0.172 HD
HETATM    5  O1  UNL     1      62.882  44.645  35.890  1.00  0.00    -0.270 OA
BRANCH   3   6
HETATM    6  C2  UNL     1      60.403  45.686  36.588  1.00  0.00     0.228 A 
HETATM    7  N3  UNL     1      60.337  46.633  35.733  1.00  0.00    -0.314 N 
HETATM    8  C1  UNL     1      59.995  47.627  36.680  1.00  0.00     0.351 A 
ATOM      9  H3  UNL     1      60.480  46.662  34.723  1.00  0.00     0.167 HD
HETATM   10  O4  UNL     1      60.074  46.578  37.586  1.00  0.00    -0.279 OA
BRANCH   8  11
HETATM   11  N2  UNL     1      60.997  48.665  36.812  1.00  0.00    -0.094 NA
BRANCH  11  12
HETATM   12  N1  UNL     1      60.837  49.230  38.083  1.00  0.00    -0.344 N 
ATOM     13  H12 UNL     1      60.251  48.858  38.831  1.00  0.00     0.172 HD
ATOM     14  H11 UNL     1      61.412  50.072  38.110  1.00  0.00     0.172 HD
ENDBRANCH  11  12
ENDBRANCH   8  11
ENDBRANCH   3   6
ENDBRANCH   1   2
BRANCH   1  15
HETATM   15  N5  UNL     1      61.555  41.644  35.173  1.00  0.00    -0.058 N 
ATOM     16  H53 UNL     1      61.843  41.842  34.215  1.00  0.00     0.275 HD
ATOM     17  H52 UNL     1      61.772  40.648  35.210  1.00  0.00     0.275 HD
ATOM     18  H51 UNL     1      60.554  41.803  35.295  1.00  0.00     0.275 HD
ENDBRANCH   1  15
BRANCH   1  19
HETATM   19  C5  UNL     1      62.111  41.797  37.480  1.00  0.00     0.263 C 
HETATM   20  O2  UNL     1      62.142  42.520  38.520  1.00  0.00    -0.270 OA
HETATM   21  N6  UNL     1      61.837  40.423  37.675  1.00  0.00    -0.309 N 
ATOM     22  H6  UNL     1      60.934  40.055  37.376  1.00  0.00     0.170 HD
BRANCH  21  23
HETATM   23  C6  UNL     1      62.684  39.621  38.215  1.00  0.00     0.137 A 
HETATM   24  N7  UNL     1      63.691  39.108  37.493  1.00  0.00    -0.293 N 
HETATM   25  C7  UNL     1      64.557  38.277  38.082  1.00  0.00     0.325 A 
ATOM     26  H7  UNL     1      63.795  39.349  36.507  1.00  0.00     0.172 HD
HETATM   27  O3  UNL     1      65.502  37.793  37.417  1.00  0.00    -0.247 OA
HETATM   28  N8  UNL     1      64.464  37.926  39.379  1.00  0.00    -0.317 N 
HETATM   29  C8  UNL     1      63.468  38.421  40.128  1.00  0.00     0.123 A 
ATOM     30  H8  UNL     1      65.147  37.289  39.788  1.00  0.00     0.170 HD
HETATM   31  C9  UNL     1      62.574  39.275  39.535  1.00  0.00     0.106 A 
HETATM   32  N9  UNL     1      61.518  39.793  40.356  1.00  0.00    -0.097 NA
ENDBRANCH  21  23
ENDBRANCH   1  19
TORSDOF 7
ENDMDL
