MODEL 1
REMARK VINA RESULT: -7.743773545      0.000      0.000
REMARK  9 active torsions:
REMARK  status: ('A' for Active; 'I' for Inactive)
REMARK       I    between atoms: C2_2  and  N1_4 
REMARK    1  A    between atoms: N1_4  and  C3_6 
REMARK    2  A    between atoms: C4_9  and  C5_10 
REMARK    3  A    between atoms: C5_10  and  N3_11 
REMARK    4  A    between atoms: C5_10  and  N4_15 
REMARK       I    between atoms: N4_15  and  C6_17 
REMARK    5  A    between atoms: C6_17  and  C7_19 
REMARK    6  A    between atoms: C7_19  and  O3_20 
REMARK    7  A    between atoms: C7_19  and  C8_22 
REMARK    8  A    between atoms: C8_22  and  O4_24 
REMARK    9  A    between atoms: N5_27  and  N6_28 
ROOT
HETATM    1  C3  UNL     1      63.337  38.780  39.076  1.00  0.00     0.280 C 
HETATM    2  N2  UNL     1      63.540  39.875  38.146  1.00  0.00    -0.363 N 
ATOM      3  H2  UNL     1      64.438  39.959  37.670  1.00  0.00     0.161 HD
HETATM    4  C4  UNL     1      62.628  40.737  37.906  1.00  0.00     0.054 C 
HETATM    5  C10 UNL     1      61.328  40.588  38.617  1.00  0.00     0.207 C 
HETATM    6  N5  UNL     1      61.511  40.186  39.998  1.00  0.00    -0.259 N 
HETATM    7  C11 UNL     1      62.573  39.277  40.265  1.00  0.00     0.280 C 
HETATM    8  O5  UNL     1      62.848  38.917  41.433  1.00  0.00    -0.267 OA
ENDROOT
BRANCH   4   9
HETATM    9  C5  UNL     1      62.836  41.876  36.938  1.00  0.00     0.332 C 
BRANCH   9  10
HETATM   10  N3  UNL     1      62.365  41.457  35.675  1.00  0.00    -0.053 N 
ATOM     11  H33 UNL     1      61.843  40.582  35.717  1.00  0.00     0.277 HD
ATOM     12  H32 UNL     1      61.612  42.045  35.318  1.00  0.00     0.277 HD
ATOM     13  H31 UNL     1      63.166  41.411  35.045  1.00  0.00     0.277 HD
ENDBRANCH   9  10
BRANCH   9  14
HETATM   14  N4  UNL     1      62.287  43.096  37.441  1.00  0.00    -0.327 N 
HETATM   15  C6  UNL     1      62.417  44.356  36.804  1.00  0.00     0.250 C 
HETATM   16  O2  UNL     1      63.080  44.346  35.715  1.00  0.00    -0.271 OA
ATOM     17  H4  UNL     1      61.767  43.058  38.317  1.00  0.00     0.165 HD
BRANCH  15  18
HETATM   18  C7  UNL     1      61.868  45.617  37.291  1.00  0.00     0.238 C 
BRANCH  18  19
HETATM   19  O3  UNL     1      62.725  46.661  36.859  1.00  0.00    -0.384 OA
ATOM     20  H3  UNL     1      62.288  47.486  37.030  1.00  0.00     0.210 HD
ENDBRANCH  18  19
BRANCH  18  21
HETATM   21  C8  UNL     1      60.513  45.976  36.710  1.00  0.00     0.152 C 
HETATM   22  C9  UNL     1      60.463  47.329  36.076  1.00  0.00     0.042 C 
BRANCH  21  23
HETATM   23  O4  UNL     1      60.241  45.024  35.696  1.00  0.00    -0.393 OA
ATOM     24  H4  UNL     1      59.418  45.280  35.296  1.00  0.00     0.210 HD
ENDBRANCH  21  23
ENDBRANCH  18  21
ENDBRANCH  15  18
ENDBRANCH   9  14
ENDBRANCH   4   9
BRANCH   1  25
HETATM   25  N1  UNL     1      64.635  38.305  39.478  1.00  0.00    -0.332 N 
HETATM   26  C2  UNL     1      65.491  37.712  38.527  1.00  0.00     0.215 C 
HETATM   27  C1  UNL     1      66.837  37.221  38.944  1.00  0.00     0.117 C 
HETATM   28  O1  UNL     1      65.135  37.590  37.320  1.00  0.00    -0.274 OA
ATOM     29  H1  UNL     1      64.934  38.397  40.449  1.00  0.00     0.165 HD
ENDBRANCH   1  25
BRANCH   6  30
HETATM   30  N6  UNL     1      60.692  40.656  41.040  1.00  0.00    -0.340 N 
ATOM     31  H62 UNL     1      59.793  40.215  41.233  1.00  0.00     0.177 HD
ATOM     32  H61 UNL     1      60.955  41.441  41.636  1.00  0.00     0.177 HD
ENDBRANCH   6  30
TORSDOF 9
ENDMDL
MODEL 2
REMARK VINA RESULT: -7.326462645      1.680      2.231
REMARK  9 active torsions:
REMARK  status: ('A' for Active; 'I' for Inactive)
REMARK       I    between atoms: C2_2  and  N1_4 
REMARK    1  A    between atoms: N1_4  and  C3_6 
REMARK    2  A    between atoms: C4_9  and  C5_10 
REMARK    3  A    between atoms: C5_10  and  N3_11 
REMARK    4  A    between atoms: C5_10  and  N4_15 
REMARK       I    between atoms: N4_15  and  C6_17 
REMARK    5  A    between atoms: C6_17  and  C7_19 
REMARK    6  A    between atoms: C7_19  and  O3_20 
REMARK    7  A    between atoms: C7_19  and  C8_22 
REMARK    8  A    between atoms: C8_22  and  O4_24 
REMARK    9  A    between atoms: N5_27  and  N6_28 
ROOT
HETATM    1  C3  UNL     1      62.759  40.364  38.024  1.00  0.00     0.280 C 
HETATM    2  N2  UNL     1      63.112  41.699  37.580  1.00  0.00    -0.363 N 
ATOM      3  H2  UNL     1      64.097  41.939  37.470  1.00  0.00     0.161 HD
HETATM    4  C4  UNL     1      62.226  42.584  37.322  1.00  0.00     0.054 C 
HETATM    5  C10 UNL     1      60.796  42.204  37.494  1.00  0.00     0.207 C 
HETATM    6  N5  UNL     1      60.592  41.387  38.674  1.00  0.00    -0.259 N 
HETATM    7  C11 UNL     1      61.617  40.451  38.990  1.00  0.00     0.280 C 
HETATM    8  O5  UNL     1      61.561  39.742  40.022  1.00  0.00    -0.267 OA
ENDROOT
BRANCH   4   9
HETATM    9  C5  UNL     1      62.590  43.973  36.859  1.00  0.00     0.332 C 
BRANCH   9  10
HETATM   10  N3  UNL     1      62.697  43.941  35.452  1.00  0.00    -0.053 N 
ATOM     11  H33 UNL     1      61.807  43.754  34.991  1.00  0.00     0.277 HD
ATOM     12  H32 UNL     1      62.868  44.861  35.046  1.00  0.00     0.277 HD
ATOM     13  H31 UNL     1      63.419  43.261  35.212  1.00  0.00     0.277 HD
ENDBRANCH   9  10
BRANCH   9  14
HETATM   14  N4  UNL     1      61.704  44.954  37.400  1.00  0.00    -0.327 N 
HETATM   15  C6  UNL     1      61.847  46.353  37.218  1.00  0.00     0.250 C 
HETATM   16  O2  UNL     1      62.854  46.706  36.520  1.00  0.00    -0.271 OA
ATOM     17  H4  UNL     1      60.914  44.626  37.956  1.00  0.00     0.165 HD
BRANCH  15  18
HETATM   18  C7  UNL     1      60.960  47.378  37.756  1.00  0.00     0.238 C 
BRANCH  18  19
HETATM   19  O3  UNL     1      61.748  48.290  38.501  1.00  0.00    -0.384 OA
ATOM     20  H3  UNL     1      61.920  47.901  39.350  1.00  0.00     0.210 HD
ENDBRANCH  18  19
BRANCH  18  21
HETATM   21  C8  UNL     1      60.283  48.236  36.702  1.00  0.00     0.152 C 
HETATM   22  C9  UNL     1      58.801  48.340  36.865  1.00  0.00     0.042 C 
BRANCH  21  23
HETATM   23  O4  UNL     1      60.816  49.541  36.838  1.00  0.00    -0.393 OA
ATOM     24  H4  UNL     1      61.717  49.500  36.540  1.00  0.00     0.210 HD
ENDBRANCH  21  23
ENDBRANCH  18  21
ENDBRANCH  15  18
ENDBRANCH   9  14
ENDBRANCH   4   9
BRANCH   1  25
HETATM   25  N1  UNL     1      63.916  39.800  38.667  1.00  0.00    -0.332 N 
HETATM   26  C2  UNL     1      64.396  38.536  38.264  1.00  0.00     0.215 C 
HETATM   27  C1  UNL     1      65.597  37.951  38.930  1.00  0.00     0.117 C 
HETATM   28  O1  UNL     1      63.822  37.887  37.342  1.00  0.00    -0.274 OA
ATOM     29  H1  UNL     1      64.387  40.312  39.412  1.00  0.00     0.165 HD
ENDBRANCH   1  25
BRANCH   6  30
HETATM   30  N6  UNL     1      59.446  41.494  39.482  1.00  0.00    -0.340 N 
ATOM     31  H62 UNL     1      58.517  41.352  39.087  1.00  0.00     0.177 HD
ATOM     32  H61 UNL     1      59.493  41.713  40.477  1.00  0.00     0.177 HD
ENDBRANCH   6  30
TORSDOF 9
ENDMDL
MODEL 3
REMARK VINA RESULT: -7.295089766      0.786      1.098
REMARK  9 active torsions:
REMARK  status: ('A' for Active; 'I' for Inactive)
REMARK       I    between atoms: C2_2  and  N1_4 
REMARK    1  A    between atoms: N1_4  and  C3_6 
REMARK    2  A    between atoms: C4_9  and  C5_10 
REMARK    3  A    between atoms: C5_10  and  N3_11 
REMARK    4  A    between atoms: C5_10  and  N4_15 
REMARK       I    between atoms: N4_15  and  C6_17 
REMARK    5  A    between atoms: C6_17  and  C7_19 
REMARK    6  A    between atoms: C7_19  and  O3_20 
REMARK    7  A    between atoms: C7_19  and  C8_22 
REMARK    8  A    between atoms: C8_22  and  O4_24 
REMARK    9  A    between atoms: N5_27  and  N6_28 
ROOT
HETATM    1  C3  UNL     1      63.024  38.981  39.030  1.00  0.00     0.280 C 
HETATM    2  N2  UNL     1      63.192  40.092  38.113  1.00  0.00    -0.363 N 
ATOM      3  H2  UNL     1      64.067  40.178  37.596  1.00  0.00     0.161 HD
HETATM    4  C4  UNL     1      62.277  40.966  37.933  1.00  0.00     0.054 C 
HETATM    5  C10 UNL     1      61.012  40.814  38.703  1.00  0.00     0.207 C 
HETATM    6  N5  UNL     1      61.256  40.383  40.065  1.00  0.00    -0.259 N 
HETATM    7  C11 UNL     1      62.321  39.460  40.263  1.00  0.00     0.280 C 
HETATM    8  O5  UNL     1      62.649  39.075  41.410  1.00  0.00    -0.267 OA
ENDROOT
BRANCH   4   9
HETATM    9  C5  UNL     1      62.450  42.122  36.979  1.00  0.00     0.332 C 
BRANCH   9  10
HETATM   10  N3  UNL     1      62.243  41.633  35.671  1.00  0.00    -0.053 N 
ATOM     11  H33 UNL     1      61.397  41.070  35.587  1.00  0.00     0.277 HD
ATOM     12  H32 UNL     1      61.983  42.365  35.010  1.00  0.00     0.277 HD
ATOM     13  H31 UNL     1      63.085  41.127  35.393  1.00  0.00     0.277 HD
ENDBRANCH   9  10
BRANCH   9  14
HETATM   14  N4  UNL     1      61.651  43.243  37.365  1.00  0.00    -0.327 N 
HETATM   15  C6  UNL     1      61.650  44.495  36.699  1.00  0.00     0.250 C 
HETATM   16  O2  UNL     1      62.435  44.575  35.697  1.00  0.00    -0.271 OA
ATOM     17  H4  UNL     1      61.040  43.134  38.174  1.00  0.00     0.165 HD
BRANCH  15  18
HETATM   18  C7  UNL     1      60.846  45.655  37.067  1.00  0.00     0.238 C 
BRANCH  18  19
HETATM   19  O3  UNL     1      60.914  45.803  38.475  1.00  0.00    -0.384 OA
ATOM     20  H3  UNL     1      61.817  45.990  38.706  1.00  0.00     0.210 HD
ENDBRANCH  18  19
BRANCH  18  21
HETATM   21  C8  UNL     1      61.363  46.973  36.522  1.00  0.00     0.152 C 
HETATM   22  C9  UNL     1      60.682  48.175  37.094  1.00  0.00     0.042 C 
BRANCH  21  23
HETATM   23  O4  UNL     1      62.731  47.053  36.882  1.00  0.00    -0.393 OA
ATOM     24  H4  UNL     1      62.815  46.633  37.730  1.00  0.00     0.210 HD
ENDBRANCH  21  23
ENDBRANCH  18  21
ENDBRANCH  15  18
ENDBRANCH   9  14
ENDBRANCH   4   9
BRANCH   1  25
HETATM   25  N1  UNL     1      64.334  38.487  39.361  1.00  0.00    -0.332 N 
HETATM   26  C2  UNL     1      65.132  37.890  38.362  1.00  0.00     0.215 C 
HETATM   27  C1  UNL     1      66.492  37.379  38.705  1.00  0.00     0.117 C 
HETATM   28  O1  UNL     1      64.711  37.780  37.174  1.00  0.00    -0.274 OA
ATOM     29  H1  UNL     1      64.685  38.569  40.314  1.00  0.00     0.165 HD
ENDBRANCH   1  25
BRANCH   6  30
HETATM   30  N6  UNL     1      60.492  40.839  41.154  1.00  0.00    -0.340 N 
ATOM     31  H62 UNL     1      60.940  41.081  42.038  1.00  0.00     0.177 HD
ATOM     32  H61 UNL     1      59.478  40.945  41.109  1.00  0.00     0.177 HD
ENDBRANCH   6  30
TORSDOF 9
ENDMDL
MODEL 4
REMARK VINA RESULT: -7.050501977      2.326      7.343
REMARK  9 active torsions:
REMARK  status: ('A' for Active; 'I' for Inactive)
REMARK       I    between atoms: C2_2  and  N1_4 
REMARK    1  A    between atoms: N1_4  and  C3_6 
REMARK    2  A    between atoms: C4_9  and  C5_10 
REMARK    3  A    between atoms: C5_10  and  N3_11 
REMARK    4  A    between atoms: C5_10  and  N4_15 
REMARK       I    between atoms: N4_15  and  C6_17 
REMARK    5  A    between atoms: C6_17  and  C7_19 
REMARK    6  A    between atoms: C7_19  and  O3_20 
REMARK    7  A    between atoms: C7_19  and  C8_22 
REMARK    8  A    between atoms: C8_22  and  O4_24 
REMARK    9  A    between atoms: N5_27  and  N6_28 
ROOT
HETATM    1  C3  UNL     1      61.633  41.381  38.240  1.00  0.00     0.280 C 
HETATM    2  N2  UNL     1      62.352  40.164  37.916  1.00  0.00    -0.363 N 
ATOM      3  H2  UNL     1      62.511  39.930  36.935  1.00  0.00     0.161 HD
HETATM    4  C4  UNL     1      62.791  39.375  38.820  1.00  0.00     0.054 C 
HETATM    5  C10 UNL     1      62.540  39.742  40.241  1.00  0.00     0.207 C 
HETATM    6  N5  UNL     1      61.213  40.294  40.432  1.00  0.00    -0.259 N 
HETATM    7  C11 UNL     1      60.706  41.117  39.387  1.00  0.00     0.280 C 
HETATM    8  O5  UNL     1      59.547  41.591  39.432  1.00  0.00    -0.267 OA
ENDROOT
BRANCH   4   9
HETATM    9  C5  UNL     1      63.539  38.108  38.485  1.00  0.00     0.332 C 
BRANCH   9  10
HETATM   10  N3  UNL     1      63.390  37.877  37.101  1.00  0.00    -0.053 N 
ATOM     11  H33 UNL     1      62.810  37.064  36.895  1.00  0.00     0.277 HD
ATOM     12  H32 UNL     1      62.808  38.577  36.642  1.00  0.00     0.277 HD
ATOM     13  H31 UNL     1      64.325  37.810  36.696  1.00  0.00     0.277 HD
ENDBRANCH   9  10
BRANCH   9  14
HETATM   14  N4  UNL     1      64.881  38.148  38.975  1.00  0.00    -0.327 N 
HETATM   15  C6  UNL     1      65.347  37.421  40.099  1.00  0.00     0.250 C 
HETATM   16  O2  UNL     1      64.468  36.700  40.678  1.00  0.00    -0.271 OA
ATOM     17  H4  UNL     1      65.549  38.741  38.483  1.00  0.00     0.165 HD
BRANCH  15  18
HETATM   18  C7  UNL     1      66.708  37.439  40.623  1.00  0.00     0.238 C 
BRANCH  18  19
HETATM   19  O3  UNL     1      66.842  36.356  41.527  1.00  0.00    -0.384 OA
ATOM     20  H3  UNL     1      65.986  36.176  41.896  1.00  0.00     0.210 HD
ENDBRANCH  18  19
BRANCH  18  21
HETATM   21  C8  UNL     1      67.783  37.197  39.579  1.00  0.00     0.152 C 
HETATM   22  C9  UNL     1      68.944  36.397  40.079  1.00  0.00     0.042 C 
BRANCH  21  23
HETATM   23  O4  UNL     1      67.177  36.454  38.536  1.00  0.00    -0.393 OA
ATOM     24  H4  UNL     1      67.193  37.006  37.764  1.00  0.00     0.210 HD
ENDBRANCH  21  23
ENDBRANCH  18  21
ENDBRANCH  15  18
ENDBRANCH   9  14
ENDBRANCH   4   9
BRANCH   1  25
HETATM   25  N1  UNL     1      60.885  41.769  37.073  1.00  0.00    -0.332 N 
HETATM   26  C2  UNL     1      61.532  42.448  36.019  1.00  0.00     0.215 C 
HETATM   27  C1  UNL     1      60.757  42.849  34.808  1.00  0.00     0.117 C 
HETATM   28  O1  UNL     1      62.766  42.722  36.084  1.00  0.00    -0.274 OA
ATOM     29  H1  UNL     1      59.891  41.555  37.008  1.00  0.00     0.165 HD
ENDBRANCH   1  25
BRANCH   6  30
HETATM   30  N6  UNL     1      60.445  40.043  41.583  1.00  0.00    -0.340 N 
ATOM     31  H62 UNL     1      60.219  39.088  41.858  1.00  0.00     0.177 HD
ATOM     32  H61 UNL     1      60.088  40.790  42.180  1.00  0.00     0.177 HD
ENDBRANCH   6  30
TORSDOF 9
ENDMDL
MODEL 5
REMARK VINA RESULT: -6.807240823      2.461      3.233
REMARK  9 active torsions:
REMARK  status: ('A' for Active; 'I' for Inactive)
REMARK       I    between atoms: C2_2  and  N1_4 
REMARK    1  A    between atoms: N1_4  and  C3_6 
REMARK    2  A    between atoms: C4_9  and  C5_10 
REMARK    3  A    between atoms: C5_10  and  N3_11 
REMARK    4  A    between atoms: C5_10  and  N4_15 
REMARK       I    between atoms: N4_15  and  C6_17 
REMARK    5  A    between atoms: C6_17  and  C7_19 
REMARK    6  A    between atoms: C7_19  and  O3_20 
REMARK    7  A    between atoms: C7_19  and  C8_22 
REMARK    8  A    between atoms: C8_22  and  O4_24 
REMARK    9  A    between atoms: N5_27  and  N6_28 
ROOT
HETATM    1  C3  UNL     1      63.327  37.916  40.719  1.00  0.00     0.280 C 
HETATM    2  N2  UNL     1      62.776  39.111  40.109  1.00  0.00    -0.363 N 
ATOM      3  H2  UNL     1      63.186  39.456  39.240  1.00  0.00     0.161 HD
HETATM    4  C4  UNL     1      61.794  39.744  40.626  1.00  0.00     0.054 C 
HETATM    5  C10 UNL     1      61.219  39.217  41.894  1.00  0.00     0.207 C 
HETATM    6  N5  UNL     1      62.249  38.741  42.797  1.00  0.00    -0.259 N 
HETATM    7  C11 UNL     1      63.371  38.095  42.206  1.00  0.00     0.280 C 
HETATM    8  O5  UNL     1      64.340  37.703  42.897  1.00  0.00    -0.267 OA
ENDROOT
BRANCH   4   9
HETATM    9  C5  UNL     1      61.219  40.987  39.992  1.00  0.00     0.332 C 
BRANCH   9  10
HETATM   10  N3  UNL     1      61.365  42.045  40.916  1.00  0.00    -0.053 N 
ATOM     11  H33 UNL     1      61.319  41.734  41.886  1.00  0.00     0.277 HD
ATOM     12  H32 UNL     1      62.313  42.421  40.941  1.00  0.00     0.277 HD
ATOM     13  H31 UNL     1      60.664  42.751  40.691  1.00  0.00     0.277 HD
ENDBRANCH   9  10
BRANCH   9  14
HETATM   14  N4  UNL     1      61.763  41.210  38.690  1.00  0.00    -0.327 N 
HETATM   15  C6  UNL     1      61.195  42.075  37.720  1.00  0.00     0.250 C 
HETATM   16  O2  UNL     1      60.126  42.667  38.084  1.00  0.00    -0.271 OA
ATOM     17  H4  UNL     1      62.618  40.713  38.440  1.00  0.00     0.165 HD
BRANCH  15  18
HETATM   18  C7  UNL     1      61.726  42.324  36.385  1.00  0.00     0.238 C 
BRANCH  18  19
HETATM   19  O3  UNL     1      62.525  41.212  36.019  1.00  0.00    -0.384 OA
ATOM     20  H3  UNL     1      62.574  40.629  36.767  1.00  0.00     0.210 HD
ENDBRANCH  18  19
BRANCH  18  21
HETATM   21  C8  UNL     1      60.671  42.407  35.297  1.00  0.00     0.152 C 
HETATM   22  C9  UNL     1      60.546  43.761  34.675  1.00  0.00     0.042 C 
BRANCH  21  23
HETATM   23  O4  UNL     1      61.070  41.509  34.276  1.00  0.00    -0.393 OA
ATOM     24  H4  UNL     1      61.810  41.909  33.835  1.00  0.00     0.210 HD
ENDBRANCH  21  23
ENDBRANCH  18  21
ENDBRANCH  15  18
ENDBRANCH   9  14
ENDBRANCH   4   9
BRANCH   1  25
HETATM   25  N1  UNL     1      64.656  37.734  40.198  1.00  0.00    -0.332 N 
HETATM   26  C2  UNL     1      64.851  37.588  38.809  1.00  0.00     0.215 C 
HETATM   27  C1  UNL     1      66.230  37.400  38.268  1.00  0.00     0.117 C 
HETATM   28  O1  UNL     1      63.871  37.614  38.009  1.00  0.00    -0.274 OA
ATOM     29  H1  UNL     1      65.454  37.710  40.831  1.00  0.00     0.165 HD
ENDBRANCH   1  25
BRANCH   6  30
HETATM   30  N6  UNL     1      62.165  38.896  44.192  1.00  0.00    -0.340 N 
ATOM     31  H62 UNL     1      62.739  39.588  44.674  1.00  0.00     0.177 HD
ATOM     32  H61 UNL     1      61.540  38.335  44.772  1.00  0.00     0.177 HD
ENDBRANCH   6  30
TORSDOF 9
ENDMDL
