MODEL 1
REMARK VINA RESULT: -7.385109027      0.000      0.000
REMARK  8 active torsions:
REMARK  status: ('A' for Active; 'I' for Inactive)
REMARK    1  A    between atoms: N1_1  and  C1_5 
REMARK    2  A    between atoms: C1_5  and  C2_6 
REMARK    3  A    between atoms: N2_7  and  C3_9 
REMARK    4  A    between atoms: N4_17  and  C7_18 
REMARK    5  A    between atoms: C7_18  and  C8_19 
REMARK    6  A    between atoms: C8_19  and  O3_20 
REMARK    7  A    between atoms: C8_19  and  O4_22 
REMARK    8  A    between atoms: O4_22  and  N5_23 
ROOT
HETATM    1  C3  UNL     1      63.104  38.975  37.793  1.00  0.00     0.686 A 
HETATM    2  N3  UNL     1      62.330  39.243  38.853  1.00  0.00    -0.155 N 
ATOM      3  H3  UNL     1      62.157  38.494  39.524  1.00  0.00     0.187 HD
HETATM    4  C4  UNL     1      61.760  40.462  39.087  1.00  0.00     0.279 A 
HETATM    5  O1  UNL     1      61.041  40.708  40.076  1.00  0.00    -0.266 OA
HETATM    6  C5  UNL     1      61.996  41.471  38.179  1.00  0.00     0.145 A 
HETATM    7  C6  UNL     1      61.433  42.722  38.382  1.00  0.00     0.271 A 
HETATM    8  O2  UNL     1      60.718  42.943  39.379  1.00  0.00    -0.267 OA
HETATM    9  N4  UNL     1      61.673  43.698  37.486  1.00  0.00    -0.261 N 
HETATM   10  C9  UNL     1      62.450  43.432  36.420  1.00  0.00     0.331 A 
HETATM   11  O5  UNL     1      62.644  44.389  35.603  1.00  0.00    -0.246 OA
HETATM   12  N6  UNL     1      63.009  42.248  36.184  1.00  0.00    -0.293 N 
ATOM     13  H6  UNL     1      63.590  42.099  35.359  1.00  0.00     0.172 HD
HETATM   14  C10 UNL     1      62.786  41.237  37.074  1.00  0.00     0.146 A 
HETATM   15  N7  UNL     1      63.301  40.033  36.918  1.00  0.00    -0.175 N 
ATOM     16  H7  UNL     1      63.884  39.868  36.097  1.00  0.00     0.186 HD
ENDROOT
BRANCH   1  17
HETATM   17  N2  UNL     1      63.652  37.923  37.503  1.00  0.00    -0.203 N 
HETATM   18  C2  UNL     1      64.758  37.157  37.725  1.00  0.00     0.106 C 
ATOM     19  H2  UNL     1      63.054  37.427  36.842  1.00  0.00     0.183 HD
BRANCH  18  20
HETATM   20  C1  UNL     1      65.813  37.729  38.636  1.00  0.00     0.274 C 
BRANCH  20  21
HETATM   21  N1  UNL     1      66.891  36.712  38.649  1.00  0.00    -0.075 N 
ATOM     22  H13 UNL     1      67.517  36.761  37.846  1.00  0.00     0.274 HD
ATOM     23  H12 UNL     1      67.604  36.873  39.362  1.00  0.00     0.274 HD
ATOM     24  H11 UNL     1      66.406  35.820  38.743  1.00  0.00     0.274 HD
ENDBRANCH  20  21
ENDBRANCH  18  20
ENDBRANCH   1  17
BRANCH   9  25
HETATM   25  C7  UNL     1      61.086  45.007  37.698  1.00  0.00     0.200 C 
BRANCH  25  26
HETATM   26  C8  UNL     1      59.640  45.069  37.257  1.00  0.00     0.303 C 
BRANCH  26  27
HETATM   27  O3  UNL     1      58.864  45.133  38.410  1.00  0.00    -0.367 OA
ATOM     28  H3  UNL     1      57.981  44.879  38.167  1.00  0.00     0.212 HD
ENDBRANCH  26  27
BRANCH  26  29
HETATM   29  O4  UNL     1      59.410  46.210  36.522  1.00  0.00    -0.253 OA
BRANCH  29  30
HETATM   30  N5  UNL     1      60.535  46.602  35.878  1.00  0.00    -0.308 N 
ATOM     31  H52 UNL     1      61.478  46.389  36.203  1.00  0.00     0.184 HD
ATOM     32  H51 UNL     1      60.305  47.131  35.036  1.00  0.00     0.184 HD
ENDBRANCH  29  30
ENDBRANCH  26  29
ENDBRANCH  25  26
ENDBRANCH   9  25
TORSDOF 8
ENDMDL
MODEL 2
REMARK VINA RESULT: -7.258433401      3.105      7.019
REMARK  8 active torsions:
REMARK  status: ('A' for Active; 'I' for Inactive)
REMARK    1  A    between atoms: N1_1  and  C1_5 
REMARK    2  A    between atoms: C1_5  and  C2_6 
REMARK    3  A    between atoms: N2_7  and  C3_9 
REMARK    4  A    between atoms: N4_17  and  C7_18 
REMARK    5  A    between atoms: C7_18  and  C8_19 
REMARK    6  A    between atoms: C8_19  and  O3_20 
REMARK    7  A    between atoms: C8_19  and  O4_22 
REMARK    8  A    between atoms: O4_22  and  N5_23 
ROOT
HETATM    1  C3  UNL     1      61.006  41.710  38.029  1.00  0.00     0.686 A 
HETATM    2  N3  UNL     1      60.804  41.297  39.287  1.00  0.00    -0.155 N 
ATOM      3  H3  UNL     1      60.076  41.757  39.834  1.00  0.00     0.187 HD
HETATM    4  C4  UNL     1      61.517  40.293  39.878  1.00  0.00     0.279 A 
HETATM    5  O1  UNL     1      61.325  39.911  41.050  1.00  0.00    -0.266 OA
HETATM    6  C5  UNL     1      62.500  39.674  39.138  1.00  0.00     0.145 A 
HETATM    7  C6  UNL     1      63.246  38.652  39.705  1.00  0.00     0.271 A 
HETATM    8  O2  UNL     1      63.034  38.287  40.878  1.00  0.00    -0.267 OA
HETATM    9  N4  UNL     1      64.203  38.057  38.969  1.00  0.00    -0.261 N 
HETATM   10  C9  UNL     1      64.409  38.471  37.705  1.00  0.00     0.331 A 
HETATM   11  O5  UNL     1      65.326  37.875  37.052  1.00  0.00    -0.246 OA
HETATM   12  N6  UNL     1      63.719  39.447  37.120  1.00  0.00    -0.293 N 
ATOM     13  H6  UNL     1      63.916  39.722  36.158  1.00  0.00     0.172 HD
HETATM   14  C10 UNL     1      62.741  40.070  37.840  1.00  0.00     0.146 A 
HETATM   15  N7  UNL     1      62.010  41.047  37.338  1.00  0.00    -0.175 N 
ATOM     16  H7  UNL     1      62.195  41.335  36.377  1.00  0.00     0.186 HD
ENDROOT
BRANCH   1  17
HETATM   17  N2  UNL     1      60.422  42.594  37.420  1.00  0.00    -0.203 N 
HETATM   18  C2  UNL     1      60.586  43.785  36.777  1.00  0.00     0.106 C 
ATOM     19  H2  UNL     1      59.434  42.344  37.374  1.00  0.00     0.183 HD
BRANCH  18  20
HETATM   20  C1  UNL     1      61.972  44.374  36.772  1.00  0.00     0.274 C 
BRANCH  20  21
HETATM   21  N1  UNL     1      62.593  43.866  35.526  1.00  0.00    -0.075 N 
ATOM     22  H13 UNL     1      63.575  43.609  35.626  1.00  0.00     0.274 HD
ATOM     23  H12 UNL     1      62.261  42.944  35.242  1.00  0.00     0.274 HD
ATOM     24  H11 UNL     1      62.425  44.598  34.835  1.00  0.00     0.274 HD
ENDBRANCH  20  21
ENDBRANCH  18  20
ENDBRANCH   1  17
BRANCH   9  25
HETATM   25  C7  UNL     1      64.982  36.987  39.561  1.00  0.00     0.200 C 
BRANCH  25  26
HETATM   26  C8  UNL     1      66.178  37.503  40.332  1.00  0.00     0.303 C 
BRANCH  26  27
HETATM   27  O3  UNL     1      66.431  36.591  41.352  1.00  0.00    -0.367 OA
ATOM     28  H3  UNL     1      66.393  37.071  42.171  1.00  0.00     0.212 HD
ENDBRANCH  26  27
BRANCH  26  29
HETATM   29  O4  UNL     1      67.288  37.556  39.519  1.00  0.00    -0.253 OA
BRANCH  29  30
HETATM   30  N5  UNL     1      67.358  36.457  38.729  1.00  0.00    -0.308 N 
ATOM     31  H52 UNL     1      67.048  35.529  39.020  1.00  0.00     0.184 HD
ATOM     32  H51 UNL     1      67.758  36.689  37.821  1.00  0.00     0.184 HD
ENDBRANCH  29  30
ENDBRANCH  26  29
ENDBRANCH  25  26
ENDBRANCH   9  25
TORSDOF 8
ENDMDL
MODEL 3
REMARK VINA RESULT: -7.092281747      3.693      7.295
REMARK  8 active torsions:
REMARK  status: ('A' for Active; 'I' for Inactive)
REMARK    1  A    between atoms: N1_1  and  C1_5 
REMARK    2  A    between atoms: C1_5  and  C2_6 
REMARK    3  A    between atoms: N2_7  and  C3_9 
REMARK    4  A    between atoms: N4_17  and  C7_18 
REMARK    5  A    between atoms: C7_18  and  C8_19 
REMARK    6  A    between atoms: C8_19  and  O3_20 
REMARK    7  A    between atoms: C8_19  and  O4_22 
REMARK    8  A    between atoms: O4_22  and  N5_23 
ROOT
HETATM    1  C3  UNL     1      60.402  41.116  39.565  1.00  0.00     0.686 A 
HETATM    2  N3  UNL     1      60.607  40.471  40.721  1.00  0.00    -0.155 N 
ATOM      3  H3  UNL     1      60.003  40.696  41.512  1.00  0.00     0.187 HD
HETATM    4  C4  UNL     1      61.579  39.528  40.899  1.00  0.00     0.279 A 
HETATM    5  O1  UNL     1      61.767  38.928  41.977  1.00  0.00    -0.266 OA
HETATM    6  C5  UNL     1      62.393  39.226  39.830  1.00  0.00     0.145 A 
HETATM    7  C6  UNL     1      63.392  38.275  39.974  1.00  0.00     0.271 A 
HETATM    8  O2  UNL     1      63.558  37.689  41.062  1.00  0.00    -0.267 OA
HETATM    9  N4  UNL     1      64.179  37.992  38.920  1.00  0.00    -0.261 N 
HETATM   10  C9  UNL     1      63.975  38.639  37.757  1.00  0.00     0.331 A 
HETATM   11  O5  UNL     1      64.748  38.333  36.792  1.00  0.00    -0.246 OA
HETATM   12  N6  UNL     1      63.031  39.558  37.573  1.00  0.00    -0.293 N 
ATOM     13  H6  UNL     1      62.920  40.019  36.671  1.00  0.00     0.172 HD
HETATM   14  C10 UNL     1      62.216  39.868  38.623  1.00  0.00     0.146 A 
HETATM   15  N7  UNL     1      61.255  40.767  38.528  1.00  0.00    -0.175 N 
ATOM     16  H7  UNL     1      61.131  41.238  37.632  1.00  0.00     0.186 HD
ENDROOT
BRANCH   1  17
HETATM   17  N2  UNL     1      59.564  41.968  39.313  1.00  0.00    -0.203 N 
HETATM   18  C2  UNL     1      59.320  43.310  39.310  1.00  0.00     0.106 C 
ATOM     19  H2  UNL     1      58.725  41.495  38.975  1.00  0.00     0.183 HD
BRANCH  18  20
HETATM   20  C1  UNL     1      60.415  44.204  39.831  1.00  0.00     0.274 C 
BRANCH  20  21
HETATM   21  N1  UNL     1      61.190  44.590  38.628  1.00  0.00    -0.075 N 
ATOM     22  H13 UNL     1      62.051  45.096  38.834  1.00  0.00     0.274 HD
ATOM     23  H12 UNL     1      61.630  43.805  38.147  1.00  0.00     0.274 HD
ATOM     24  H11 UNL     1      60.530  45.112  38.050  1.00  0.00     0.274 HD
ENDBRANCH  20  21
ENDBRANCH  18  20
ENDBRANCH   1  17
BRANCH   9  25
HETATM   25  C7  UNL     1      65.223  36.996  39.069  1.00  0.00     0.200 C 
BRANCH  25  26
HETATM   26  C8  UNL     1      66.419  37.524  39.831  1.00  0.00     0.303 C 
BRANCH  26  27
HETATM   27  O3  UNL     1      66.547  36.747  40.978  1.00  0.00    -0.367 OA
ATOM     28  H3  UNL     1      67.463  36.767  41.228  1.00  0.00     0.212 HD
ENDBRANCH  26  27
BRANCH  26  29
HETATM   29  O4  UNL     1      67.567  37.379  39.085  1.00  0.00    -0.253 OA
BRANCH  29  30
HETATM   30  N5  UNL     1      68.262  36.286  39.480  1.00  0.00    -0.308 N 
ATOM     31  H52 UNL     1      67.860  35.351  39.545  1.00  0.00     0.184 HD
ATOM     32  H51 UNL     1      69.228  36.531  39.699  1.00  0.00     0.184 HD
ENDBRANCH  29  30
ENDBRANCH  26  29
ENDBRANCH  25  26
ENDBRANCH   9  25
TORSDOF 8
ENDMDL
MODEL 4
REMARK VINA RESULT: -7.035368788      2.615      3.536
REMARK  8 active torsions:
REMARK  status: ('A' for Active; 'I' for Inactive)
REMARK    1  A    between atoms: N1_1  and  C1_5 
REMARK    2  A    between atoms: C1_5  and  C2_6 
REMARK    3  A    between atoms: N2_7  and  C3_9 
REMARK    4  A    between atoms: N4_17  and  C7_18 
REMARK    5  A    between atoms: C7_18  and  C8_19 
REMARK    6  A    between atoms: C8_19  and  O3_20 
REMARK    7  A    between atoms: C8_19  and  O4_22 
REMARK    8  A    between atoms: O4_22  and  N5_23 
ROOT
HETATM    1  C3  UNL     1      62.698  41.476  36.947  1.00  0.00     0.686 A 
HETATM    2  N3  UNL     1      61.556  41.411  36.250  1.00  0.00    -0.155 N 
ATOM      3  H3  UNL     1      61.186  40.489  36.018  1.00  0.00     0.187 HD
HETATM    4  C4  UNL     1      60.859  42.510  35.833  1.00  0.00     0.279 A 
HETATM    5  O1  UNL     1      59.796  42.445  35.184  1.00  0.00    -0.266 OA
HETATM    6  C5  UNL     1      61.362  43.753  36.147  1.00  0.00     0.145 A 
HETATM    7  C6  UNL     1      60.683  44.891  35.740  1.00  0.00     0.271 A 
HETATM    8  O2  UNL     1      59.621  44.799  35.093  1.00  0.00    -0.267 OA
HETATM    9  N4  UNL     1      61.187  46.099  36.055  1.00  0.00    -0.261 N 
HETATM   10  C9  UNL     1      62.335  46.167  36.755  1.00  0.00     0.331 A 
HETATM   11  O5  UNL     1      62.768  47.334  37.026  1.00  0.00    -0.246 OA
HETATM   12  N6  UNL     1      63.020  45.103  37.166  1.00  0.00    -0.293 N 
ATOM     13  H6  UNL     1      63.886  45.211  37.694  1.00  0.00     0.172 HD
HETATM   14  C10 UNL     1      62.535  43.864  36.863  1.00  0.00     0.146 A 
HETATM   15  N7  UNL     1      63.151  42.756  37.230  1.00  0.00    -0.175 N 
ATOM     16  H7  UNL     1      64.018  42.848  37.759  1.00  0.00     0.186 HD
ENDROOT
BRANCH   1  17
HETATM   17  N2  UNL     1      63.386  40.555  37.360  1.00  0.00    -0.203 N 
HETATM   18  C2  UNL     1      63.430  39.524  38.251  1.00  0.00     0.106 C 
ATOM     19  H2  UNL     1      64.263  40.559  36.839  1.00  0.00     0.183 HD
BRANCH  18  20
HETATM   20  C1  UNL     1      62.248  39.367  39.172  1.00  0.00     0.274 C 
BRANCH  20  21
HETATM   21  N1  UNL     1      62.623  40.112  40.397  1.00  0.00    -0.075 N 
ATOM     22  H13 UNL     1      61.829  40.399  40.967  1.00  0.00     0.274 HD
ATOM     23  H12 UNL     1      63.076  39.539  41.109  1.00  0.00     0.274 HD
ATOM     24  H11 UNL     1      63.197  40.888  40.064  1.00  0.00     0.274 HD
ENDBRANCH  20  21
ENDBRANCH  18  20
ENDBRANCH   1  17
BRANCH   9  25
HETATM   25  C7  UNL     1      60.477  47.290  35.630  1.00  0.00     0.200 C 
BRANCH  25  26
HETATM   26  C8  UNL     1      59.693  47.926  36.758  1.00  0.00     0.303 C 
BRANCH  26  27
HETATM   27  O3  UNL     1      60.270  49.167  37.007  1.00  0.00    -0.367 OA
ATOM     28  H3  UNL     1      60.019  49.740  36.291  1.00  0.00     0.212 HD
ENDBRANCH  26  27
BRANCH  26  29
HETATM   29  O4  UNL     1      58.385  48.129  36.378  1.00  0.00    -0.253 OA
BRANCH  29  30
HETATM   30  N5  UNL     1      57.566  47.227  36.971  1.00  0.00    -0.308 N 
ATOM     31  H52 UNL     1      57.219  47.319  37.927  1.00  0.00     0.184 HD
ATOM     32  H51 UNL     1      57.353  46.459  36.336  1.00  0.00     0.184 HD
ENDBRANCH  29  30
ENDBRANCH  26  29
ENDBRANCH  25  26
ENDBRANCH   9  25
TORSDOF 8
ENDMDL
MODEL 5
REMARK VINA RESULT: -7.018710971      3.990      7.893
REMARK  8 active torsions:
REMARK  status: ('A' for Active; 'I' for Inactive)
REMARK    1  A    between atoms: N1_1  and  C1_5 
REMARK    2  A    between atoms: C1_5  and  C2_6 
REMARK    3  A    between atoms: N2_7  and  C3_9 
REMARK    4  A    between atoms: N4_17  and  C7_18 
REMARK    5  A    between atoms: C7_18  and  C8_19 
REMARK    6  A    between atoms: C8_19  and  O3_20 
REMARK    7  A    between atoms: C8_19  and  O4_22 
REMARK    8  A    between atoms: O4_22  and  N5_23 
ROOT
HETATM    1  C3  UNL     1      62.089  40.488  38.105  1.00  0.00     0.686 A 
HETATM    2  N3  UNL     1      63.055  39.796  37.488  1.00  0.00    -0.155 N 
ATOM      3  H3  UNL     1      63.208  39.966  36.493  1.00  0.00     0.187 HD
HETATM    4  C4  UNL     1      63.848  38.877  38.114  1.00  0.00     0.279 A 
HETATM    5  O1  UNL     1      64.747  38.235  37.536  1.00  0.00    -0.266 OA
HETATM    6  C5  UNL     1      63.639  38.650  39.457  1.00  0.00     0.145 A 
HETATM    7  C6  UNL     1      64.423  37.724  40.127  1.00  0.00     0.271 A 
HETATM    8  O2  UNL     1      65.317  37.096  39.526  1.00  0.00    -0.267 OA
HETATM    9  N4  UNL     1      64.207  37.513  41.438  1.00  0.00    -0.261 N 
HETATM   10  C9  UNL     1      63.236  38.207  42.062  1.00  0.00     0.331 A 
HETATM   11  O5  UNL     1      63.073  37.969  43.302  1.00  0.00    -0.246 OA
HETATM   12  N6  UNL     1      62.459  39.104  41.460  1.00  0.00    -0.293 N 
ATOM     13  H6  UNL     1      61.737  39.602  41.979  1.00  0.00     0.172 HD
HETATM   14  C10 UNL     1      62.654  39.341  40.130  1.00  0.00     0.146 A 
HETATM   15  N7  UNL     1      61.929  40.213  39.455  1.00  0.00    -0.175 N 
ATOM     16  H7  UNL     1      61.202  40.719  39.961  1.00  0.00     0.186 HD
ENDROOT
BRANCH   1  17
HETATM   17  N2  UNL     1      61.335  41.324  37.630  1.00  0.00    -0.203 N 
HETATM   18  C2  UNL     1      61.275  42.570  37.081  1.00  0.00     0.106 C 
ATOM     19  H2  UNL     1      60.388  40.945  37.654  1.00  0.00     0.183 HD
BRANCH  18  20
HETATM   20  C1  UNL     1      62.565  43.344  37.000  1.00  0.00     0.274 C 
BRANCH  20  21
HETATM   21  N1  UNL     1      62.778  43.573  35.552  1.00  0.00    -0.075 N 
ATOM     22  H13 UNL     1      62.149  43.040  34.951  1.00  0.00     0.274 HD
ATOM     23  H12 UNL     1      62.489  44.497  35.231  1.00  0.00     0.274 HD
ATOM     24  H11 UNL     1      63.767  43.372  35.399  1.00  0.00     0.274 HD
ENDBRANCH  20  21
ENDBRANCH  18  20
ENDBRANCH   1  17
BRANCH   9  25
HETATM   25  C7  UNL     1      65.028  36.546  42.141  1.00  0.00     0.200 C 
BRANCH  25  26
HETATM   26  C8  UNL     1      66.234  37.181  42.797  1.00  0.00     0.303 C 
BRANCH  26  27
HETATM   27  O3  UNL     1      65.992  37.199  44.167  1.00  0.00    -0.367 OA
ATOM     28  H3  UNL     1      66.837  37.243  44.599  1.00  0.00     0.212 HD
ENDBRANCH  26  27
BRANCH  26  29
HETATM   29  O4  UNL     1      67.360  36.422  42.570  1.00  0.00    -0.253 OA
BRANCH  29  30
HETATM   30  N5  UNL     1      67.752  36.517  41.277  1.00  0.00    -0.308 N 
ATOM     31  H52 UNL     1      67.244  36.097  40.498  1.00  0.00     0.184 HD
ATOM     32  H51 UNL     1      68.612  37.060  41.198  1.00  0.00     0.184 HD
ENDBRANCH  29  30
ENDBRANCH  26  29
ENDBRANCH  25  26
ENDBRANCH   9  25
TORSDOF 8
ENDMDL
