MODEL 1
REMARK VINA RESULT: -6.358641159      0.000      0.000
REMARK  8 active torsions:
REMARK  status: ('A' for Active; 'I' for Inactive)
REMARK    1  A    between atoms: C3_5  and  O1_6 
REMARK    2  A    between atoms: O1_6  and  C4_7 
REMARK    3  A    between atoms: C5_10  and  N3_11 
REMARK    4  A    between atoms: N5_16  and  N6_17 
REMARK    5  A    between atoms: C6_20  and  C7_21 
REMARK    6  A    between atoms: C7_21  and  O2_22 
REMARK    7  A    between atoms: C7_21  and  O3_24 
REMARK    8  A    between atoms: C10_29  and  C11_30 
ROOT
HETATM    1  C1  UNL     1      39.212  -1.634  15.660  1.00  0.00     0.089 C 
HETATM    2  C2  UNL     1      38.223  -1.598  14.524  1.00  0.00     0.079 A 
HETATM    3  N1  UNL     1      37.766  -2.678  13.933  1.00  0.00    -0.325 N 
ATOM      4  H1  UNL     1      38.107  -3.579  14.271  1.00  0.00     0.169 HD
HETATM    5  C3  UNL     1      36.865  -2.692  12.893  1.00  0.00     0.174 A 
HETATM    6  C8  UNL     1      36.439  -1.433  12.480  1.00  0.00     0.127 A 
HETATM    7  C9  UNL     1      35.475  -1.355  11.401  1.00  0.00     0.106 C 
HETATM    8  N7  UNL     1      34.678  -1.299  10.546  1.00  0.00    -0.191 NA
HETATM    9  C10 UNL     1      36.914  -0.296  13.095  1.00  0.00     0.124 A 
HETATM   10  N9  UNL     1      37.814  -0.391  14.125  1.00  0.00    -0.341 N 
ATOM     11  H9  UNL     1      38.166   0.450  14.582  1.00  0.00     0.167 HD
ENDROOT
BRANCH   5  12
HETATM   12  O1  UNL     1      36.508  -3.873  12.406  1.00  0.00    -0.272 OA
BRANCH  12  13
HETATM   13  C4  UNL     1      35.672  -4.884  12.609  1.00  0.00     0.196 A 
HETATM   14  N2  UNL     1      34.452  -4.965  11.985  1.00  0.00    -0.167 N 
HETATM   15  C5  UNL     1      33.590  -5.965  12.171  1.00  0.00     0.694 A 
ATOM     16  H2  UNL     1      34.190  -4.217  11.342  1.00  0.00     0.186 HD
HETATM   17  N4  UNL     1      33.931  -6.952  13.013  1.00  0.00    -0.111 N 
HETATM   18  N5  UNL     1      35.086  -6.931  13.640  1.00  0.00    -0.184 N 
ATOM     19  H4  UNL     1      33.286  -7.728  13.169  1.00  0.00     0.207 HD
HETATM   20  C6  UNL     1      35.970  -5.926  13.464  1.00  0.00     0.158 A 
BRANCH  15  21
HETATM   21  N3  UNL     1      32.433  -5.999  11.551  1.00  0.00    -0.233 N 
ATOM     22  H32 UNL     1      31.880  -5.148  11.455  1.00  0.00     0.174 HD
ATOM     23  H31 UNL     1      32.064  -6.864  11.156  1.00  0.00     0.174 HD
ENDBRANCH  15  21
BRANCH  18  24
HETATM   24  N6  UNL     1      35.384  -8.008  14.520  1.00  0.00    -0.323 N 
ATOM     25  H62 UNL     1      35.201  -8.972  14.238  1.00  0.00     0.179 HD
ATOM     26  H61 UNL     1      35.782  -7.782  15.431  1.00  0.00     0.179 HD
ENDBRANCH  18  24
BRANCH  20  27
HETATM   27  C7  UNL     1      37.245  -6.060  14.200  1.00  0.00     0.313 C 
BRANCH  27  28
HETATM   28  O2  UNL     1      37.322  -5.129  15.206  1.00  0.00    -0.366 OA
ATOM     29  H2  UNL     1      38.196  -4.762  15.257  1.00  0.00     0.213 HD
ENDBRANCH  27  28
BRANCH  27  30
HETATM   30  O3  UNL     1      38.264  -5.715  13.277  1.00  0.00    -0.366 OA
ATOM     31  H3  UNL     1      39.085  -5.938  13.700  1.00  0.00     0.213 HD
ENDBRANCH  27  30
ENDBRANCH  20  27
ENDBRANCH  12  13
ENDBRANCH   5  12
BRANCH   9  32
HETATM   32  C11 UNL     1      36.483   1.030  12.677  1.00  0.00     0.283 C 
HETATM   33  N8  UNL     1      35.610   1.800  13.486  1.00  0.00    -0.056 NA
HETATM   34  O4  UNL     1      36.864   1.523  11.607  1.00  0.00    -0.269 OA
ENDBRANCH   9  32
TORSDOF 8
ENDMDL
MODEL 2
REMARK VINA RESULT: -6.244869109      3.026      5.082
REMARK  8 active torsions:
REMARK  status: ('A' for Active; 'I' for Inactive)
REMARK    1  A    between atoms: C3_5  and  O1_6 
REMARK    2  A    between atoms: O1_6  and  C4_7 
REMARK    3  A    between atoms: C5_10  and  N3_11 
REMARK    4  A    between atoms: N5_16  and  N6_17 
REMARK    5  A    between atoms: C6_20  and  C7_21 
REMARK    6  A    between atoms: C7_21  and  O2_22 
REMARK    7  A    between atoms: C7_21  and  O3_24 
REMARK    8  A    between atoms: C10_29  and  C11_30 
ROOT
HETATM    1  C1  UNL     1      42.219   2.099  11.696  1.00  0.00     0.089 C 
HETATM    2  C2  UNL     1      40.762   2.131  12.080  1.00  0.00     0.079 A 
HETATM    3  N1  UNL     1      40.007   1.057  12.130  1.00  0.00    -0.325 N 
ATOM      4  H1  UNL     1      40.443   0.166  11.894  1.00  0.00     0.169 HD
HETATM    5  C3  UNL     1      38.675   1.041  12.473  1.00  0.00     0.174 A 
HETATM    6  C8  UNL     1      38.142   2.288  12.783  1.00  0.00     0.127 A 
HETATM    7  C9  UNL     1      36.748   2.361  13.173  1.00  0.00     0.106 C 
HETATM    8  N7  UNL     1      35.629   2.410  13.511  1.00  0.00    -0.191 NA
HETATM    9  C10 UNL     1      38.927   3.418  12.733  1.00  0.00     0.124 A 
HETATM   10  N9  UNL     1      40.248   3.327  12.377  1.00  0.00    -0.341 N 
ATOM     11  H9  UNL     1      40.831   4.163  12.339  1.00  0.00     0.167 HD
ENDROOT
BRANCH   5  12
HETATM   12  O1  UNL     1      38.056  -0.133  12.471  1.00  0.00    -0.272 OA
BRANCH  12  13
HETATM   13  C4  UNL     1      37.848  -1.212  13.214  1.00  0.00     0.196 A 
HETATM   14  N2  UNL     1      38.688  -1.570  14.240  1.00  0.00    -0.167 N 
HETATM   15  C5  UNL     1      38.508  -2.649  15.002  1.00  0.00     0.694 A 
ATOM     16  H2  UNL     1      39.496  -0.976  14.429  1.00  0.00     0.186 HD
HETATM   17  N4  UNL     1      37.447  -3.432  14.758  1.00  0.00    -0.111 N 
HETATM   18  N5  UNL     1      36.606  -3.141  13.791  1.00  0.00    -0.184 N 
ATOM     19  H4  UNL     1      37.290  -4.262  15.331  1.00  0.00     0.207 HD
HETATM   20  C6  UNL     1      36.773  -2.053  13.009  1.00  0.00     0.158 A 
BRANCH  15  21
HETATM   21  N3  UNL     1      39.340  -2.951  15.972  1.00  0.00    -0.233 N 
ATOM     22  H32 UNL     1      39.698  -3.902  16.060  1.00  0.00     0.174 HD
ATOM     23  H31 UNL     1      39.643  -2.254  16.652  1.00  0.00     0.174 HD
ENDBRANCH  15  21
BRANCH  18  24
HETATM   24  N6  UNL     1      35.502  -4.014  13.586  1.00  0.00    -0.323 N 
ATOM     25  H62 UNL     1      34.670  -3.942  14.171  1.00  0.00     0.179 HD
ATOM     26  H61 UNL     1      35.574  -4.706  12.839  1.00  0.00     0.179 HD
ENDBRANCH  18  24
BRANCH  20  27
HETATM   27  C7  UNL     1      35.725  -1.830  11.991  1.00  0.00     0.313 C 
BRANCH  27  28
HETATM   28  O2  UNL     1      36.269  -1.819  10.731  1.00  0.00    -0.366 OA
ATOM     29  H2  UNL     1      36.215  -0.951  10.350  1.00  0.00     0.213 HD
ENDBRANCH  27  28
BRANCH  27  30
HETATM   30  O3  UNL     1      35.241  -0.516  12.213  1.00  0.00    -0.366 OA
ATOM     31  H3  UNL     1      34.383  -0.618  12.608  1.00  0.00     0.213 HD
ENDBRANCH  27  30
ENDBRANCH  20  27
ENDBRANCH  12  13
ENDBRANCH   5  12
BRANCH   9  32
HETATM   32  C11 UNL     1      38.388   4.732  13.051  1.00  0.00     0.283 C 
HETATM   33  N8  UNL     1      38.393   5.217  14.384  1.00  0.00    -0.056 NA
HETATM   34  O4  UNL     1      37.912   5.463  12.172  1.00  0.00    -0.269 OA
ENDBRANCH   9  32
TORSDOF 8
ENDMDL
MODEL 3
REMARK VINA RESULT: -6.153148171      2.411      6.796
REMARK  8 active torsions:
REMARK  status: ('A' for Active; 'I' for Inactive)
REMARK    1  A    between atoms: C3_5  and  O1_6 
REMARK    2  A    between atoms: O1_6  and  C4_7 
REMARK    3  A    between atoms: C5_10  and  N3_11 
REMARK    4  A    between atoms: N5_16  and  N6_17 
REMARK    5  A    between atoms: C6_20  and  C7_21 
REMARK    6  A    between atoms: C7_21  and  O2_22 
REMARK    7  A    between atoms: C7_21  and  O3_24 
REMARK    8  A    between atoms: C10_29  and  C11_30 
ROOT
HETATM    1  C1  UNL     1      39.653  -5.770  13.451  1.00  0.00     0.089 C 
HETATM    2  C2  UNL     1      38.564  -4.901  12.876  1.00  0.00     0.079 A 
HETATM    3  N1  UNL     1      38.761  -3.663  12.487  1.00  0.00    -0.325 N 
ATOM      4  H1  UNL     1      39.704  -3.284  12.585  1.00  0.00     0.169 HD
HETATM    5  C3  UNL     1      37.797  -2.835  11.959  1.00  0.00     0.174 A 
HETATM    6  C8  UNL     1      36.536  -3.410  11.852  1.00  0.00     0.127 A 
HETATM    7  C9  UNL     1      35.463  -2.614  11.290  1.00  0.00     0.106 C 
HETATM    8  N7  UNL     1      34.608  -1.975  10.812  1.00  0.00    -0.191 NA
HETATM    9  C10 UNL     1      36.321  -4.708  12.259  1.00  0.00     0.124 A 
HETATM   10  N9  UNL     1      37.351  -5.452  12.773  1.00  0.00    -0.341 N 
ATOM     11  H9  UNL     1      37.194  -6.414  13.075  1.00  0.00     0.167 HD
ENDROOT
BRANCH   5  12
HETATM   12  O1  UNL     1      38.164  -1.606  11.619  1.00  0.00    -0.272 OA
BRANCH  12  13
HETATM   13  C4  UNL     1      38.797  -0.533  12.078  1.00  0.00     0.196 A 
HETATM   14  N2  UNL     1      40.119  -0.564  12.446  1.00  0.00    -0.167 N 
HETATM   15  C5  UNL     1      40.782   0.495  12.913  1.00  0.00     0.694 A 
ATOM     16  H2  UNL     1      40.623  -1.446  12.358  1.00  0.00     0.186 HD
HETATM   17  N4  UNL     1      40.125   1.659  13.029  1.00  0.00    -0.111 N 
HETATM   18  N5  UNL     1      38.858   1.750  12.692  1.00  0.00    -0.184 N 
ATOM     19  H4  UNL     1      40.613   2.481  13.383  1.00  0.00     0.207 HD
HETATM   20  C6  UNL     1      38.171   0.689  12.217  1.00  0.00     0.158 A 
BRANCH  15  21
HETATM   21  N3  UNL     1      42.048   0.418  13.254  1.00  0.00    -0.233 N 
ATOM     22  H32 UNL     1      42.546  -0.469  13.172  1.00  0.00     0.174 HD
ATOM     23  H31 UNL     1      42.557   1.229  13.604  1.00  0.00     0.174 HD
ENDBRANCH  15  21
BRANCH  18  24
HETATM   24  N6  UNL     1      38.221   3.013  12.840  1.00  0.00    -0.323 N 
ATOM     25  H62 UNL     1      38.741   3.817  13.190  1.00  0.00     0.179 HD
ATOM     26  H61 UNL     1      37.235   3.082  12.586  1.00  0.00     0.179 HD
ENDBRANCH  18  24
BRANCH  20  27
HETATM   27  C7  UNL     1      36.768   0.952  11.837  1.00  0.00     0.313 C 
BRANCH  27  28
HETATM   28  O2  UNL     1      35.909   0.234  12.631  1.00  0.00    -0.366 OA
ATOM     29  H2  UNL     1      35.358  -0.331  12.102  1.00  0.00     0.213 HD
ENDBRANCH  27  28
BRANCH  27  30
HETATM   30  O3  UNL     1      36.614   0.429  10.529  1.00  0.00    -0.366 OA
ATOM     31  H3  UNL     1      35.725   0.099  10.483  1.00  0.00     0.213 HD
ENDBRANCH  27  30
ENDBRANCH  20  27
ENDBRANCH  12  13
ENDBRANCH   5  12
BRANCH   9  32
HETATM   32  C11 UNL     1      35.008  -5.329  12.157  1.00  0.00     0.283 C 
HETATM   33  N8  UNL     1      34.582  -5.936  10.948  1.00  0.00    -0.056 NA
HETATM   34  O4  UNL     1      34.227  -5.345  13.118  1.00  0.00    -0.269 OA
ENDBRANCH   9  32
TORSDOF 8
ENDMDL
MODEL 4
REMARK VINA RESULT: -6.117984037      2.388      7.120
REMARK  8 active torsions:
REMARK  status: ('A' for Active; 'I' for Inactive)
REMARK    1  A    between atoms: C3_5  and  O1_6 
REMARK    2  A    between atoms: O1_6  and  C4_7 
REMARK    3  A    between atoms: C5_10  and  N3_11 
REMARK    4  A    between atoms: N5_16  and  N6_17 
REMARK    5  A    between atoms: C6_20  and  C7_21 
REMARK    6  A    between atoms: C7_21  and  O2_22 
REMARK    7  A    between atoms: C7_21  and  O3_24 
REMARK    8  A    between atoms: C10_29  and  C11_30 
ROOT
HETATM    1  C1  UNL     1      38.730  -3.656  15.710  1.00  0.00     0.089 C 
HETATM    2  C2  UNL     1      37.815  -3.147  14.626  1.00  0.00     0.079 A 
HETATM    3  N1  UNL     1      37.862  -1.920  14.162  1.00  0.00    -0.325 N 
ATOM      4  H1  UNL     1      38.558  -1.292  14.564  1.00  0.00     0.169 HD
HETATM    5  C3  UNL     1      37.047  -1.414  13.175  1.00  0.00     0.174 A 
HETATM    6  C8  UNL     1      36.122  -2.321  12.668  1.00  0.00     0.127 A 
HETATM    7  C9  UNL     1      35.234  -1.877  11.612  1.00  0.00     0.106 C 
HETATM    8  N7  UNL     1      34.536  -1.520  10.743  1.00  0.00    -0.191 NA
HETATM    9  C10 UNL     1      36.067  -3.609  13.150  1.00  0.00     0.124 A 
HETATM   10  N9  UNL     1      36.925  -4.016  14.138  1.00  0.00    -0.341 N 
ATOM     11  H9  UNL     1      36.886  -4.970  14.496  1.00  0.00     0.167 HD
ENDROOT
BRANCH   5  12
HETATM   12  O1  UNL     1      37.224  -0.147  12.823  1.00  0.00    -0.272 OA
BRANCH  12  13
HETATM   13  C4  UNL     1      38.164   0.777  12.662  1.00  0.00     0.196 A 
HETATM   14  N2  UNL     1      39.450   0.461  12.301  1.00  0.00    -0.167 N 
HETATM   15  C5  UNL     1      40.415   1.365  12.135  1.00  0.00     0.694 A 
ATOM     16  H2  UNL     1      39.680  -0.522  12.152  1.00  0.00     0.186 HD
HETATM   17  N4  UNL     1      40.117   2.659  12.327  1.00  0.00    -0.111 N 
HETATM   18  N5  UNL     1      38.903   3.024  12.673  1.00  0.00    -0.184 N 
ATOM     19  H4  UNL     1      40.841   3.367  12.204  1.00  0.00     0.207 HD
HETATM   20  C6  UNL     1      37.913   2.122  12.846  1.00  0.00     0.158 A 
BRANCH  15  21
HETATM   21  N3  UNL     1      41.633   1.015  11.789  1.00  0.00    -0.233 N 
ATOM     22  H32 UNL     1      42.071   0.201  12.219  1.00  0.00     0.174 HD
ATOM     23  H31 UNL     1      42.162   1.540  11.094  1.00  0.00     0.174 HD
ENDBRANCH  15  21
BRANCH  18  24
HETATM   24  N6  UNL     1      38.655   4.412  12.862  1.00  0.00    -0.323 N 
ATOM     25  H62 UNL     1      39.163   5.107  12.315  1.00  0.00     0.179 HD
ATOM     26  H61 UNL     1      37.958   4.680  13.557  1.00  0.00     0.179 HD
ENDBRANCH  18  24
BRANCH  20  27
HETATM   27  C7  UNL     1      36.590   2.682  13.191  1.00  0.00     0.313 C 
BRANCH  27  28
HETATM   28  O2  UNL     1      35.679   1.677  13.402  1.00  0.00    -0.366 OA
ATOM     29  H2  UNL     1      35.295   1.749  14.267  1.00  0.00     0.213 HD
ENDBRANCH  27  28
BRANCH  27  30
HETATM   30  O3  UNL     1      36.145   3.369  12.033  1.00  0.00    -0.366 OA
ATOM     31  H3  UNL     1      36.925   3.549  11.521  1.00  0.00     0.213 HD
ENDBRANCH  27  30
ENDBRANCH  20  27
ENDBRANCH  12  13
ENDBRANCH   5  12
BRANCH   9  32
HETATM   32  C11 UNL     1      35.105  -4.573  12.634  1.00  0.00     0.283 C 
HETATM   33  N8  UNL     1      35.118  -4.954  11.269  1.00  0.00    -0.056 NA
HETATM   34  O4  UNL     1      34.250  -5.086  13.369  1.00  0.00    -0.269 OA
ENDBRANCH   9  32
TORSDOF 8
ENDMDL
MODEL 5
REMARK VINA RESULT: -6.076746755      2.163      2.819
REMARK  8 active torsions:
REMARK  status: ('A' for Active; 'I' for Inactive)
REMARK    1  A    between atoms: C3_5  and  O1_6 
REMARK    2  A    between atoms: O1_6  and  C4_7 
REMARK    3  A    between atoms: C5_10  and  N3_11 
REMARK    4  A    between atoms: N5_16  and  N6_17 
REMARK    5  A    between atoms: C6_20  and  C7_21 
REMARK    6  A    between atoms: C7_21  and  O2_22 
REMARK    7  A    between atoms: C7_21  and  O3_24 
REMARK    8  A    between atoms: C10_29  and  C11_30 
ROOT
HETATM    1  C1  UNL     1      38.656  -1.782  16.359  1.00  0.00     0.089 C 
HETATM    2  C2  UNL     1      37.857  -1.967  15.095  1.00  0.00     0.079 A 
HETATM    3  N1  UNL     1      37.297  -3.106  14.757  1.00  0.00    -0.325 N 
ATOM      4  H1  UNL     1      37.418  -3.895  15.392  1.00  0.00     0.169 HD
HETATM    5  C3  UNL     1      36.562  -3.320  13.614  1.00  0.00     0.174 A 
HETATM    6  C8  UNL     1      36.434  -2.205  12.791  1.00  0.00     0.127 A 
HETATM    7  C9  UNL     1      35.660  -2.336  11.573  1.00  0.00     0.106 C 
HETATM    8  N7  UNL     1      35.013  -2.441  10.604  1.00  0.00    -0.191 NA
HETATM    9  C10 UNL     1      37.019  -1.008  13.139  1.00  0.00     0.124 A 
HETATM   10  N9  UNL     1      37.734  -0.899  14.303  1.00  0.00    -0.341 N 
ATOM     11  H9  UNL     1      38.167  -0.012  14.562  1.00  0.00     0.167 HD
ENDROOT
BRANCH   5  12
HETATM   12  O1  UNL     1      36.067  -4.536  13.421  1.00  0.00    -0.272 OA
BRANCH  12  13
HETATM   13  C4  UNL     1      36.270  -5.657  12.739  1.00  0.00     0.196 A 
HETATM   14  N2  UNL     1      37.527  -6.104  12.420  1.00  0.00    -0.167 N 
HETATM   15  C5  UNL     1      37.763  -7.223  11.735  1.00  0.00     0.694 A 
ATOM     16  H2  UNL     1      38.327  -5.549  12.725  1.00  0.00     0.186 HD
HETATM   17  N4  UNL     1      36.715  -7.958  11.334  1.00  0.00    -0.111 N 
HETATM   18  N5  UNL     1      35.486  -7.582  11.610  1.00  0.00    -0.184 N 
ATOM     19  H4  UNL     1      36.873  -8.819  10.809  1.00  0.00     0.207 HD
HETATM   20  C6  UNL     1      35.229  -6.452  12.302  1.00  0.00     0.158 A 
BRANCH  15  21
HETATM   21  N3  UNL     1      38.985  -7.611  11.452  1.00  0.00    -0.233 N 
ATOM     22  H32 UNL     1      39.771  -7.266  12.003  1.00  0.00     0.174 HD
ATOM     23  H31 UNL     1      39.177  -8.257  10.686  1.00  0.00     0.174 HD
ENDBRANCH  15  21
BRANCH  18  24
HETATM   24  N6  UNL     1      34.421  -8.407  11.155  1.00  0.00    -0.323 N 
ATOM     25  H62 UNL     1      34.272  -9.330  11.561  1.00  0.00     0.179 HD
ATOM     26  H61 UNL     1      33.819  -8.042  10.416  1.00  0.00     0.179 HD
ENDBRANCH  18  24
BRANCH  20  27
HETATM   27  C7  UNL     1      33.803  -6.180  12.576  1.00  0.00     0.313 C 
BRANCH  27  28
HETATM   28  O2  UNL     1      33.225  -7.240  13.229  1.00  0.00    -0.366 OA
ATOM     29  H2  UNL     1      33.462  -8.059  12.812  1.00  0.00     0.213 HD
ENDBRANCH  27  28
BRANCH  27  30
HETATM   30  O3  UNL     1      33.169  -6.115  11.310  1.00  0.00    -0.366 OA
ATOM     31  H3  UNL     1      33.133  -5.193  11.083  1.00  0.00     0.213 HD
ENDBRANCH  27  30
ENDBRANCH  20  27
ENDBRANCH  12  13
ENDBRANCH   5  12
BRANCH   9  32
HETATM   32  C11 UNL     1      36.898   0.171  12.291  1.00  0.00     0.283 C 
HETATM   33  N8  UNL     1      35.953   1.185  12.586  1.00  0.00    -0.056 NA
HETATM   34  O4  UNL     1      37.615   0.320  11.292  1.00  0.00    -0.269 OA
ENDBRANCH   9  32
TORSDOF 8
ENDMDL
