MODEL 1
REMARK VINA RESULT: -7.983796351      0.000      0.000
REMARK  5 active torsions:
REMARK  status: ('A' for Active; 'I' for Inactive)
REMARK    1  A    between atoms: N1_1  and  C1_4 
REMARK    2  A    between atoms: C2_7  and  N3_8 
REMARK    3  A    between atoms: C4_10  and  C5_11 
REMARK    4  A    between atoms: C6_12  and  C7_13 
REMARK    5  A    between atoms: C9_25  and  N9_26 
REMARK       I    between atoms: N10_29  and  C10_30 
ROOT
HETATM    1  C1  UNL     1      35.710  -5.467  13.714  1.00  0.00     0.146 A 
HETATM    2  N2  UNL     1      36.203  -4.246  13.400  1.00  0.00    -0.173 N 
ATOM      3  H2  UNL     1      36.757  -3.760  14.105  1.00  0.00     0.186 HD
HETATM    4  C2  UNL     1      36.011  -3.633  12.222  1.00  0.00     0.707 A 
HETATM    5  N7  UNL     1      35.279  -4.300  11.321  1.00  0.00    -0.172 N 
ATOM      6  H7  UNL     1      35.111  -3.866  10.414  1.00  0.00     0.186 HD
HETATM    7  C8  UNL     1      34.758  -5.510  11.556  1.00  0.00     0.168 A 
HETATM    8  N8  UNL     1      34.011  -6.352  10.829  1.00  0.00    -0.173 N 
ATOM      9  H8  UNL     1      33.690  -6.174   9.876  1.00  0.00     0.186 HD
HETATM   10  C9  UNL     1      33.746  -7.451  11.528  1.00  0.00     0.688 A 
HETATM   11  N10 UNL     1      34.335  -7.347  12.768  1.00  0.00    -0.091 N 
HETATM   12  C10 UNL     1      34.269  -8.323  13.777  1.00  0.00     0.354 C 
HETATM   13  N11 UNL     1      33.520  -9.529  13.478  1.00  0.00    -0.039 NA
HETATM   14  O2  UNL     1      34.774  -8.292  14.910  1.00  0.00    -0.249 OA
HETATM   15  C11 UNL     1      34.953  -6.161  12.784  1.00  0.00     0.150 A 
ENDROOT
BRANCH   4  16
HETATM   16  N3  UNL     1      36.558  -2.350  11.959  1.00  0.00    -0.081 N 
HETATM   17  C3  UNL     1      36.001  -1.155  12.166  1.00  0.00     0.167 A 
HETATM   18  C4  UNL     1      36.892  -0.184  11.764  1.00  0.00     0.067 A 
HETATM   19  N5  UNL     1      37.981  -0.849  11.319  1.00  0.00    -0.284 N 
HETATM   20  N6  UNL     1      37.752  -2.147  11.448  1.00  0.00    -0.222 N 
ATOM     21  H5  UNL     1      38.832  -0.426  10.949  1.00  0.00     0.188 HD
ATOM     22  H6  UNL     1      38.408  -2.884  11.187  1.00  0.00     0.209 HD
BRANCH  18  23
HETATM   23  C5  UNL     1      36.685   1.259  11.817  1.00  0.00     0.037 C 
HETATM   24  C6  UNL     1      36.561   1.839  12.991  1.00  0.00     0.073 C 
BRANCH  24  25
HETATM   25  C7  UNL     1      36.352   3.285  13.082  1.00  0.00     0.254 C 
HETATM   26  N4  UNL     1      37.250   4.191  12.454  1.00  0.00    -0.058 NA
HETATM   27  O1  UNL     1      35.369   3.726  13.722  1.00  0.00    -0.272 OA
ENDBRANCH  24  25
ENDBRANCH  18  23
ENDBRANCH   4  16
BRANCH   1  28
HETATM   28  N1  UNL     1      35.959  -5.958  14.873  1.00  0.00    -0.383 N 
ATOM     29  H12 UNL     1      36.645  -5.531  15.494  1.00  0.00     0.157 HD
ATOM     30  H11 UNL     1      35.455  -6.792  15.174  1.00  0.00     0.157 HD
ENDBRANCH   1  28
BRANCH  10  31
HETATM   31  N9  UNL     1      33.058  -8.480  11.159  1.00  0.00    -0.234 N 
ATOM     32  H92 UNL     1      32.663  -8.578  10.224  1.00  0.00     0.174 HD
ATOM     33  H91 UNL     1      32.817  -9.304  11.712  1.00  0.00     0.174 HD
ENDBRANCH  10  31
TORSDOF 5
ENDMDL
MODEL 2
REMARK VINA RESULT: -7.525467433      1.012      1.012
REMARK  5 active torsions:
REMARK  status: ('A' for Active; 'I' for Inactive)
REMARK    1  A    between atoms: N1_1  and  C1_4 
REMARK    2  A    between atoms: C2_7  and  N3_8 
REMARK    3  A    between atoms: C4_10  and  C5_11 
REMARK    4  A    between atoms: C6_12  and  C7_13 
REMARK    5  A    between atoms: C9_25  and  N9_26 
REMARK       I    between atoms: N10_29  and  C10_30 
ROOT
HETATM    1  C1  UNL     1      36.816  -6.179  12.819  1.00  0.00     0.146 A 
HETATM    2  N2  UNL     1      37.156  -4.880  12.647  1.00  0.00    -0.173 N 
ATOM      3  H2  UNL     1      38.024  -4.555  13.072  1.00  0.00     0.186 HD
HETATM    4  C2  UNL     1      36.426  -3.993  11.956  1.00  0.00     0.707 A 
HETATM    5  N7  UNL     1      35.293  -4.455  11.412  1.00  0.00    -0.172 N 
ATOM      6  H7  UNL     1      34.711  -3.809  10.878  1.00  0.00     0.186 HD
HETATM    7  C8  UNL     1      34.889  -5.724  11.536  1.00  0.00     0.168 A 
HETATM    8  N8  UNL     1      33.821  -6.402  11.094  1.00  0.00    -0.173 N 
ATOM      9  H8  UNL     1      33.069  -6.004  10.531  1.00  0.00     0.186 HD
HETATM   10  C9  UNL     1      33.882  -7.668  11.496  1.00  0.00     0.688 A 
HETATM   11  N10 UNL     1      35.031  -7.850  12.234  1.00  0.00    -0.091 N 
HETATM   12  C10 UNL     1      35.429  -9.062  12.820  1.00  0.00     0.354 C 
HETATM   13  N11 UNL     1      34.556 -10.205  12.628  1.00  0.00    -0.039 NA
HETATM   14  O2  UNL     1      36.446  -9.293  13.494  1.00  0.00    -0.249 OA
HETATM   15  C11 UNL     1      35.645  -6.662  12.258  1.00  0.00     0.150 A 
ENDROOT
BRANCH   4  16
HETATM   16  N3  UNL     1      36.842  -2.643  11.816  1.00  0.00    -0.081 N 
HETATM   17  C3  UNL     1      36.122  -1.532  11.990  1.00  0.00     0.167 A 
HETATM   18  C4  UNL     1      36.933  -0.445  11.746  1.00  0.00     0.067 A 
HETATM   19  N5  UNL     1      38.143  -0.956  11.427  1.00  0.00    -0.284 N 
HETATM   20  N6  UNL     1      38.059  -2.277  11.476  1.00  0.00    -0.222 N 
ATOM     21  H5  UNL     1      38.976  -0.419  11.190  1.00  0.00     0.188 HD
ATOM     22  H6  UNL     1      38.827  -2.918  11.279  1.00  0.00     0.209 HD
BRANCH  18  23
HETATM   23  C5  UNL     1      36.547   0.959  11.823  1.00  0.00     0.037 C 
HETATM   24  C6  UNL     1      36.738   1.608  12.952  1.00  0.00     0.073 C 
BRANCH  24  25
HETATM   25  C7  UNL     1      36.362   3.018  13.065  1.00  0.00     0.254 C 
HETATM   26  N4  UNL     1      37.123   4.028  12.417  1.00  0.00    -0.058 NA
HETATM   27  O1  UNL     1      35.357   3.335  13.744  1.00  0.00    -0.272 OA
ENDBRANCH  24  25
ENDBRANCH  18  23
ENDBRANCH   4  16
BRANCH   1  28
HETATM   28  N1  UNL     1      37.592  -6.939  13.501  1.00  0.00    -0.383 N 
ATOM     29  H12 UNL     1      37.410  -7.140  14.483  1.00  0.00     0.157 HD
ATOM     30  H11 UNL     1      38.407  -7.349  13.044  1.00  0.00     0.157 HD
ENDBRANCH   1  28
BRANCH  10  31
HETATM   31  N9  UNL     1      33.037  -8.617  11.264  1.00  0.00    -0.234 N 
ATOM     32  H92 UNL     1      32.072  -8.444  10.983  1.00  0.00     0.174 HD
ATOM     33  H91 UNL     1      33.193  -9.624  11.322  1.00  0.00     0.174 HD
ENDBRANCH  10  31
TORSDOF 5
ENDMDL
MODEL 3
REMARK VINA RESULT: -7.440802670      2.369      9.515
REMARK  5 active torsions:
REMARK  status: ('A' for Active; 'I' for Inactive)
REMARK    1  A    between atoms: N1_1  and  C1_4 
REMARK    2  A    between atoms: C2_7  and  N3_8 
REMARK    3  A    between atoms: C4_10  and  C5_11 
REMARK    4  A    between atoms: C6_12  and  C7_13 
REMARK    5  A    between atoms: C9_25  and  N9_26 
REMARK       I    between atoms: N10_29  and  C10_30 
ROOT
HETATM    1  C1  UNL     1      36.895   2.238  13.055  1.00  0.00     0.146 A 
HETATM    2  N2  UNL     1      36.481   0.958  13.204  1.00  0.00    -0.173 N 
ATOM      3  H2  UNL     1      35.501   0.799  13.438  1.00  0.00     0.186 HD
HETATM    4  C2  UNL     1      37.274  -0.114  13.063  1.00  0.00     0.707 A 
HETATM    5  N7  UNL     1      38.553   0.132  12.756  1.00  0.00    -0.172 N 
ATOM      6  H7  UNL     1      39.187  -0.658  12.641  1.00  0.00     0.186 HD
HETATM    7  C8  UNL     1      39.039   1.369  12.593  1.00  0.00     0.168 A 
HETATM    8  N8  UNL     1      40.252   1.854  12.292  1.00  0.00    -0.173 N 
ATOM      9  H8  UNL     1      41.082   1.286  12.123  1.00  0.00     0.186 HD
HETATM   10  C9  UNL     1      40.216   3.181  12.246  1.00  0.00     0.688 A 
HETATM   11  N10 UNL     1      38.936   3.607  12.525  1.00  0.00    -0.091 N 
HETATM   12  C10 UNL     1      38.523   4.949  12.565  1.00  0.00     0.354 C 
HETATM   13  N11 UNL     1      39.530   5.957  12.290  1.00  0.00    -0.039 NA
HETATM   14  O2  UNL     1      37.392   5.397  12.810  1.00  0.00    -0.249 OA
HETATM   15  C11 UNL     1      38.218   2.498  12.737  1.00  0.00     0.150 A 
ENDROOT
BRANCH   4  16
HETATM   16  N3  UNL     1      36.773  -1.431  13.234  1.00  0.00    -0.081 N 
HETATM   17  C3  UNL     1      36.012  -2.142  12.399  1.00  0.00     0.167 A 
HETATM   18  C4  UNL     1      35.763  -3.369  12.974  1.00  0.00     0.067 A 
HETATM   19  N5  UNL     1      36.403  -3.351  14.164  1.00  0.00    -0.284 N 
HETATM   20  N6  UNL     1      36.999  -2.176  14.294  1.00  0.00    -0.222 N 
ATOM     21  H5  UNL     1      36.423  -4.110  14.845  1.00  0.00     0.188 HD
ATOM     22  H6  UNL     1      37.554  -1.889  15.100  1.00  0.00     0.209 HD
BRANCH  18  23
HETATM   23  C5  UNL     1      34.973  -4.451  12.399  1.00  0.00     0.037 C 
HETATM   24  C6  UNL     1      34.376  -5.300  13.209  1.00  0.00     0.073 C 
BRANCH  24  25
HETATM   25  C7  UNL     1      33.574  -6.398  12.667  1.00  0.00     0.254 C 
HETATM   26  N4  UNL     1      33.599  -7.684  13.271  1.00  0.00    -0.058 NA
HETATM   27  O1  UNL     1      32.858  -6.198  11.658  1.00  0.00    -0.272 OA
ENDBRANCH  24  25
ENDBRANCH  18  23
ENDBRANCH   4  16
BRANCH   1  28
HETATM   28  N1  UNL     1      36.047   3.188  13.212  1.00  0.00    -0.383 N 
ATOM     29  H12 UNL     1      35.838   3.843  12.460  1.00  0.00     0.157 HD
ATOM     30  H11 UNL     1      35.574   3.284  14.111  1.00  0.00     0.157 HD
ENDBRANCH   1  28
BRANCH  10  31
HETATM   31  N9  UNL     1      41.187   3.994  11.987  1.00  0.00    -0.234 N 
ATOM     32  H92 UNL     1      41.666   4.017  11.086  1.00  0.00     0.174 HD
ATOM     33  H91 UNL     1      41.600   4.695  12.603  1.00  0.00     0.174 HD
ENDBRANCH  10  31
TORSDOF 5
ENDMDL
MODEL 4
REMARK VINA RESULT: -7.353516759      1.166      1.185
REMARK  5 active torsions:
REMARK  status: ('A' for Active; 'I' for Inactive)
REMARK    1  A    between atoms: N1_1  and  C1_4 
REMARK    2  A    between atoms: C2_7  and  N3_8 
REMARK    3  A    between atoms: C4_10  and  C5_11 
REMARK    4  A    between atoms: C6_12  and  C7_13 
REMARK    5  A    between atoms: C9_25  and  N9_26 
REMARK       I    between atoms: N10_29  and  C10_30 
ROOT
HETATM    1  C1  UNL     1      35.804  -5.109  13.667  1.00  0.00     0.146 A 
HETATM    2  N2  UNL     1      36.228  -3.870  13.326  1.00  0.00    -0.173 N 
ATOM      3  H2  UNL     1      36.812  -3.365  13.993  1.00  0.00     0.186 HD
HETATM    4  C2  UNL     1      35.930  -3.261  12.168  1.00  0.00     0.707 A 
HETATM    5  N7  UNL     1      35.162  -3.953  11.317  1.00  0.00    -0.172 N 
ATOM      6  H7  UNL     1      34.915  -3.523  10.426  1.00  0.00     0.186 HD
HETATM    7  C8  UNL     1      34.704  -5.182  11.581  1.00  0.00     0.168 A 
HETATM    8  N8  UNL     1      33.939  -6.049  10.904  1.00  0.00    -0.173 N 
ATOM      9  H8  UNL     1      33.547  -5.881   9.978  1.00  0.00     0.186 HD
HETATM   10  C9  UNL     1      33.766  -7.159  11.614  1.00  0.00     0.688 A 
HETATM   11  N10 UNL     1      34.437  -7.037  12.811  1.00  0.00    -0.091 N 
HETATM   12  C10 UNL     1      34.478  -8.017  13.816  1.00  0.00     0.354 C 
HETATM   13  N11 UNL     1      33.755  -9.250  13.565  1.00  0.00    -0.039 NA
HETATM   14  O2  UNL     1      35.060  -7.970  14.911  1.00  0.00    -0.249 OA
HETATM   15  C11 UNL     1      35.010  -5.828  12.789  1.00  0.00     0.150 A 
ENDROOT
BRANCH   4  16
HETATM   16  N3  UNL     1      36.409  -1.958  11.874  1.00  0.00    -0.081 N 
HETATM   17  C3  UNL     1      37.180  -1.170  12.626  1.00  0.00     0.167 A 
HETATM   18  C4  UNL     1      37.396   0.008  11.944  1.00  0.00     0.067 A 
HETATM   19  N5  UNL     1      36.729  -0.120  10.776  1.00  0.00    -0.284 N 
HETATM   20  N6  UNL     1      36.146  -1.308  10.761  1.00  0.00    -0.222 N 
ATOM     21  H5  UNL     1      36.683   0.578  10.034  1.00  0.00     0.188 HD
ATOM     22  H6  UNL     1      35.575  -1.668   9.997  1.00  0.00     0.209 HD
BRANCH  18  23
HETATM   23  C5  UNL     1      38.185   1.144  12.406  1.00  0.00     0.037 C 
HETATM   24  C6  UNL     1      37.667   1.952  13.307  1.00  0.00     0.073 C 
BRANCH  24  25
HETATM   25  C7  UNL     1      38.431   3.102  13.792  1.00  0.00     0.254 C 
HETATM   26  N4  UNL     1      39.387   3.745  12.960  1.00  0.00    -0.058 NA
HETATM   27  O1  UNL     1      38.237   3.523  14.957  1.00  0.00    -0.272 OA
ENDBRANCH  24  25
ENDBRANCH  18  23
ENDBRANCH   4  16
BRANCH   1  28
HETATM   28  N1  UNL     1      36.151  -5.593  14.803  1.00  0.00    -0.383 N 
ATOM     29  H12 UNL     1      36.983  -5.261  15.290  1.00  0.00     0.157 HD
ATOM     30  H11 UNL     1      35.579  -6.325  15.225  1.00  0.00     0.157 HD
ENDBRANCH   1  28
BRANCH  10  31
HETATM   31  N9  UNL     1      33.093  -8.213  11.290  1.00  0.00    -0.234 N 
ATOM     32  H92 UNL     1      32.975  -8.521  10.324  1.00  0.00     0.174 HD
ATOM     33  H91 UNL     1      32.604  -8.861  11.908  1.00  0.00     0.174 HD
ENDBRANCH  10  31
TORSDOF 5
ENDMDL
MODEL 5
REMARK VINA RESULT: -7.342819271      1.715      2.618
REMARK  5 active torsions:
REMARK  status: ('A' for Active; 'I' for Inactive)
REMARK    1  A    between atoms: N1_1  and  C1_4 
REMARK    2  A    between atoms: C2_7  and  N3_8 
REMARK    3  A    between atoms: C4_10  and  C5_11 
REMARK    4  A    between atoms: C6_12  and  C7_13 
REMARK    5  A    between atoms: C9_25  and  N9_26 
REMARK       I    between atoms: N10_29  and  C10_30 
ROOT
HETATM    1  C1  UNL     1      33.955  -6.733  11.797  1.00  0.00     0.146 A 
HETATM    2  N2  UNL     1      34.239  -5.421  11.621  1.00  0.00    -0.173 N 
ATOM      3  H2  UNL     1      33.580  -4.860  11.080  1.00  0.00     0.186 HD
HETATM    4  C2  UNL     1      35.328  -4.810  12.109  1.00  0.00     0.707 A 
HETATM    5  N7  UNL     1      36.170  -5.577  12.813  1.00  0.00    -0.172 N 
ATOM      6  H7  UNL     1      37.010  -5.148  13.201  1.00  0.00     0.186 HD
HETATM    7  C8  UNL     1      35.961  -6.880  13.032  1.00  0.00     0.168 A 
HETATM    8  N8  UNL     1      36.642  -7.829  13.688  1.00  0.00    -0.173 N 
ATOM      9  H8  UNL     1      37.527  -7.682  14.175  1.00  0.00     0.186 HD
HETATM   10  C9  UNL     1      36.001  -8.991  13.611  1.00  0.00     0.688 A 
HETATM   11  N10 UNL     1      34.847  -8.820  12.879  1.00  0.00    -0.091 N 
HETATM   12  C10 UNL     1      33.916  -9.832  12.592  1.00  0.00     0.354 C 
HETATM   13  N11 UNL     1      34.202 -11.156  13.111  1.00  0.00    -0.039 NA
HETATM   14  O2  UNL     1      32.863  -9.745  11.941  1.00  0.00    -0.249 OA
HETATM   15  C11 UNL     1      34.824  -7.530  12.526  1.00  0.00     0.150 A 
ENDROOT
BRANCH   4  16
HETATM   16  N3  UNL     1      35.563  -3.428  11.886  1.00  0.00    -0.081 N 
HETATM   17  C3  UNL     1      36.281  -2.580  12.625  1.00  0.00     0.167 A 
HETATM   18  C4  UNL     1      36.235  -1.338  12.031  1.00  0.00     0.067 A 
HETATM   19  N5  UNL     1      35.472  -1.489  10.926  1.00  0.00    -0.284 N 
HETATM   20  N6  UNL     1      35.082  -2.754  10.865  1.00  0.00    -0.222 N 
ATOM     21  H5  UNL     1      35.237  -0.758  10.257  1.00  0.00     0.188 HD
ATOM     22  H6  UNL     1      34.493  -3.147  10.131  1.00  0.00     0.209 HD
BRANCH  18  23
HETATM   23  C5  UNL     1      36.884  -0.123  12.511  1.00  0.00     0.037 C 
HETATM   24  C6  UNL     1      36.233   1.018  12.432  1.00  0.00     0.073 C 
BRANCH  24  25
HETATM   25  C7  UNL     1      36.853   2.256  12.904  1.00  0.00     0.254 C 
HETATM   26  N4  UNL     1      36.549   3.502  12.292  1.00  0.00    -0.058 NA
HETATM   27  O1  UNL     1      37.662   2.214  13.860  1.00  0.00    -0.272 OA
ENDBRANCH  24  25
ENDBRANCH  18  23
ENDBRANCH   4  16
BRANCH   1  28
HETATM   28  N1  UNL     1      32.881  -7.211  11.284  1.00  0.00    -0.383 N 
ATOM     29  H12 UNL     1      32.874  -7.614  10.348  1.00  0.00     0.157 HD
ATOM     30  H11 UNL     1      32.020  -7.185  11.829  1.00  0.00     0.157 HD
ENDBRANCH   1  28
BRANCH  10  31
HETATM   31  N9  UNL     1      36.350 -10.126  14.119  1.00  0.00    -0.234 N 
ATOM     32  H92 UNL     1      37.324 -10.404  14.241  1.00  0.00     0.174 HD
ATOM     33  H91 UNL     1      35.744 -10.876  14.455  1.00  0.00     0.174 HD
ENDBRANCH  10  31
TORSDOF 5
ENDMDL
