MODEL 1
REMARK VINA RESULT: -6.555336634      0.000      0.000
REMARK  7 active torsions:
REMARK  status: ('A' for Active; 'I' for Inactive)
REMARK    1  A    between atoms: C3_8  and  O1_9 
REMARK    2  A    between atoms: O1_9  and  C4_10 
REMARK    3  A    between atoms: C5_11  and  O2_12 
REMARK    4  A    between atoms: C6_14  and  O3_15 
REMARK    5  A    between atoms: C7_17  and  N4_18 
REMARK    6  A    between atoms: C8_22  and  O4_23 
REMARK    7  A    between atoms: C10_25  and  O5_26 
ROOT
HETATM    1  C4  UNL     1      35.095  -6.019  11.739  1.00  0.00     0.187 C 
HETATM    2  C5  UNL     1      33.911  -6.919  11.983  1.00  0.00     0.180 C 
HETATM    3  C6  UNL     1      34.448  -8.311  12.112  1.00  0.00     0.182 C 
HETATM    4  C7  UNL     1      35.224  -8.787  10.924  1.00  0.00     0.245 C 
HETATM    5  C8  UNL     1      36.167  -7.824  10.335  1.00  0.00     0.185 C 
HETATM    6  C10 UNL     1      35.874  -6.378  10.511  1.00  0.00     0.183 C 
ENDROOT
BRANCH   1   7
HETATM    7  O1  UNL     1      34.606  -4.716  11.663  1.00  0.00    -0.348 OA
BRANCH   7   8
HETATM    8  C3  UNL     1      35.606  -3.783  11.474  1.00  0.00     0.305 C 
HETATM    9  N3  UNL     1      34.988  -2.552  11.021  1.00  0.00    -0.095 NA
HETATM   10  N2  UNL     1      35.834  -1.488  11.271  1.00  0.00    -0.281 N 
HETATM   11  C2  UNL     1      36.355  -1.476  12.586  1.00  0.00     0.155 C 
ATOM     12  H2  UNL     1      36.061  -0.779  10.574  1.00  0.00     0.184 HD
HETATM   13  N1  UNL     1      36.801  -0.486  13.249  1.00  0.00    -0.374 N 
HETATM   14  S1  UNL     1      36.244  -3.186  13.104  1.00  0.00    -0.043 SA
HETATM   15  C1  UNL     1      36.860   0.866  12.764  1.00  0.00     0.148 C 
ATOM     16  H1  UNL     1      37.141  -0.664  14.194  1.00  0.00     0.161 HD
ENDBRANCH   7   8
ENDBRANCH   1   7
BRANCH   2  17
HETATM   17  O2  UNL     1      33.400  -6.561  13.249  1.00  0.00    -0.390 OA
ATOM     18  H2  UNL     1      32.697  -7.173  13.433  1.00  0.00     0.210 HD
ENDBRANCH   2  17
BRANCH   6  19
HETATM   19  O5  UNL     1      35.231  -5.807   9.412  1.00  0.00    -0.385 OA
HETATM   20  C11 UNL     1      35.731  -6.186   8.203  1.00  0.00     0.202 C 
ENDBRANCH   6  19
BRANCH   3  21
HETATM   21  O3  UNL     1      33.356  -9.156  12.351  1.00  0.00    -0.391 OA
ATOM     22  H3  UNL     1      32.746  -9.034  11.633  1.00  0.00     0.210 HD
ENDBRANCH   3  21
BRANCH   5  23
HETATM   23  O4  UNL     1      37.448  -8.108  10.812  1.00  0.00    -0.386 OA
HETATM   24  C9  UNL     1      38.124  -9.030  10.042  1.00  0.00     0.202 C 
ENDBRANCH   5  23
BRANCH   4  25
HETATM   25  N4  UNL     1      34.258  -9.242   9.933  1.00  0.00    -0.070 N 
ATOM     26  H43 UNL     1      33.529  -9.837  10.329  1.00  0.00     0.274 HD
ATOM     27  H42 UNL     1      33.650  -8.496   9.596  1.00  0.00     0.274 HD
ATOM     28  H41 UNL     1      34.783  -9.698   9.186  1.00  0.00     0.274 HD
ENDBRANCH   4  25
TORSDOF 7
ENDMDL
MODEL 2
REMARK VINA RESULT: -6.123594279      1.349      1.373
REMARK  7 active torsions:
REMARK  status: ('A' for Active; 'I' for Inactive)
REMARK    1  A    between atoms: C3_8  and  O1_9 
REMARK    2  A    between atoms: O1_9  and  C4_10 
REMARK    3  A    between atoms: C5_11  and  O2_12 
REMARK    4  A    between atoms: C6_14  and  O3_15 
REMARK    5  A    between atoms: C7_17  and  N4_18 
REMARK    6  A    between atoms: C8_22  and  O4_23 
REMARK    7  A    between atoms: C10_25  and  O5_26 
ROOT
HETATM    1  C4  UNL     1      35.103  -5.944  11.768  1.00  0.00     0.187 C 
HETATM    2  C5  UNL     1      33.985  -6.931  11.987  1.00  0.00     0.180 C 
HETATM    3  C6  UNL     1      34.620  -8.284  12.093  1.00  0.00     0.182 C 
HETATM    4  C7  UNL     1      35.433  -8.680  10.901  1.00  0.00     0.245 C 
HETATM    5  C8  UNL     1      36.308  -7.640  10.336  1.00  0.00     0.185 C 
HETATM    6  C10 UNL     1      35.911  -6.223  10.539  1.00  0.00     0.183 C 
ENDROOT
BRANCH   1   7
HETATM    7  O1  UNL     1      34.523  -4.678  11.715  1.00  0.00    -0.348 OA
BRANCH   7   8
HETATM    8  C3  UNL     1      35.236  -3.736  12.428  1.00  0.00     0.305 C 
HETATM    9  N3  UNL     1      36.581  -4.245  12.620  1.00  0.00    -0.095 NA
HETATM   10  N2  UNL     1      37.441  -3.196  12.885  1.00  0.00    -0.281 N 
HETATM   11  C2  UNL     1      37.307  -2.113  11.985  1.00  0.00     0.155 C 
ATOM     12  H2  UNL     1      38.108  -3.203  13.656  1.00  0.00     0.184 HD
HETATM   13  N1  UNL     1      38.165  -1.221  11.691  1.00  0.00    -0.374 N 
HETATM   14  S1  UNL     1      35.642  -2.288  11.352  1.00  0.00    -0.043 SA
HETATM   15  C1  UNL     1      39.490  -1.143  12.244  1.00  0.00     0.148 C 
ATOM     16  H1  UNL     1      37.893  -0.508  11.015  1.00  0.00     0.161 HD
ENDBRANCH   7   8
ENDBRANCH   1   7
BRANCH   2  17
HETATM   17  O2  UNL     1      33.444  -6.636  13.257  1.00  0.00    -0.390 OA
ATOM     18  H2  UNL     1      33.089  -5.757  13.196  1.00  0.00     0.210 HD
ENDBRANCH   2  17
BRANCH   6  19
HETATM   19  O5  UNL     1      35.234  -5.677   9.447  1.00  0.00    -0.385 OA
HETATM   20  C11 UNL     1      35.693  -6.089   8.233  1.00  0.00     0.202 C 
ENDBRANCH   6  19
BRANCH   3  21
HETATM   21  O3  UNL     1      33.589  -9.209  12.308  1.00  0.00    -0.391 OA
ATOM     22  H3  UNL     1      33.825 -10.003  11.845  1.00  0.00     0.210 HD
ENDBRANCH   3  21
BRANCH   5  23
HETATM   23  O4  UNL     1      37.604  -7.842  10.815  1.00  0.00    -0.386 OA
HETATM   24  C9  UNL     1      38.246  -8.905  10.218  1.00  0.00     0.202 C 
ENDBRANCH   5  23
BRANCH   4  25
HETATM   25  N4  UNL     1      34.506  -9.183   9.895  1.00  0.00    -0.070 N 
ATOM     26  H43 UNL     1      33.646  -8.638   9.837  1.00  0.00     0.274 HD
ATOM     27  H42 UNL     1      34.828  -9.023   8.940  1.00  0.00     0.274 HD
ATOM     28  H41 UNL     1      34.342 -10.168  10.102  1.00  0.00     0.274 HD
ENDBRANCH   4  25
TORSDOF 7
ENDMDL
MODEL 3
REMARK VINA RESULT: -6.076125307      0.986      1.029
REMARK  7 active torsions:
REMARK  status: ('A' for Active; 'I' for Inactive)
REMARK    1  A    between atoms: C3_8  and  O1_9 
REMARK    2  A    between atoms: O1_9  and  C4_10 
REMARK    3  A    between atoms: C5_11  and  O2_12 
REMARK    4  A    between atoms: C6_14  and  O3_15 
REMARK    5  A    between atoms: C7_17  and  N4_18 
REMARK    6  A    between atoms: C8_22  and  O4_23 
REMARK    7  A    between atoms: C10_25  and  O5_26 
ROOT
HETATM    1  C4  UNL     1      35.297  -6.240  11.948  1.00  0.00     0.187 C 
HETATM    2  C5  UNL     1      34.055  -6.816  12.579  1.00  0.00     0.180 C 
HETATM    3  C6  UNL     1      34.472  -8.074  13.278  1.00  0.00     0.182 C 
HETATM    4  C7  UNL     1      35.119  -9.089  12.388  1.00  0.00     0.245 C 
HETATM    5  C8  UNL     1      36.104  -8.575  11.423  1.00  0.00     0.185 C 
HETATM    6  C10 UNL     1      35.955  -7.167  10.973  1.00  0.00     0.183 C 
ENDROOT
BRANCH   1   7
HETATM    7  O1  UNL     1      34.924  -5.045  11.335  1.00  0.00    -0.348 OA
BRANCH   7   8
HETATM    8  C3  UNL     1      35.947  -4.119  11.309  1.00  0.00     0.305 C 
HETATM    9  N3  UNL     1      35.430  -2.898  10.723  1.00  0.00    -0.095 NA
HETATM   10  N2  UNL     1      36.223  -1.830  11.098  1.00  0.00    -0.281 N 
HETATM   11  C2  UNL     1      36.496  -1.788  12.486  1.00  0.00     0.155 C 
ATOM     12  H2  UNL     1      36.577  -1.138  10.438  1.00  0.00     0.184 HD
HETATM   13  N1  UNL     1      36.819  -0.783  13.196  1.00  0.00    -0.374 N 
HETATM   14  S1  UNL     1      36.281  -3.484  13.014  1.00  0.00    -0.043 SA
HETATM   15  C1  UNL     1      36.974   0.558  12.699  1.00  0.00     0.148 C 
ATOM     16  H1  UNL     1      36.980  -0.939  14.190  1.00  0.00     0.161 HD
ENDBRANCH   7   8
ENDBRANCH   1   7
BRANCH   2  17
HETATM   17  O2  UNL     1      33.666  -5.904  13.583  1.00  0.00    -0.390 OA
ATOM     18  H2  UNL     1      34.332  -5.226  13.598  1.00  0.00     0.210 HD
ENDBRANCH   2  17
BRANCH   6  19
HETATM   19  O5  UNL     1      35.294  -7.045   9.750  1.00  0.00    -0.385 OA
HETATM   20  C11 UNL     1      36.086  -7.227   8.657  1.00  0.00     0.202 C 
ENDBRANCH   6  19
BRANCH   3  21
HETATM   21  O3  UNL     1      33.326  -8.613  13.878  1.00  0.00    -0.391 OA
ATOM     22  H3  UNL     1      32.711  -7.900  13.998  1.00  0.00     0.210 HD
ENDBRANCH   3  21
BRANCH   5  23
HETATM   23  O4  UNL     1      37.384  -8.772  11.947  1.00  0.00    -0.386 OA
HETATM   24  C9  UNL     1      38.374  -8.163  11.208  1.00  0.00     0.202 C 
ENDBRANCH   5  23
BRANCH   4  25
HETATM   25  N4  UNL     1      34.052  -9.810  11.708  1.00  0.00    -0.070 N 
ATOM     26  H43 UNL     1      33.417 -10.285  12.351  1.00  0.00     0.274 HD
ATOM     27  H42 UNL     1      33.363  -9.192  11.278  1.00  0.00     0.274 HD
ATOM     28  H41 UNL     1      34.492 -10.443  11.041  1.00  0.00     0.274 HD
ENDBRANCH   4  25
TORSDOF 7
ENDMDL
MODEL 4
REMARK VINA RESULT: -6.002367762      2.012      2.271
REMARK  7 active torsions:
REMARK  status: ('A' for Active; 'I' for Inactive)
REMARK    1  A    between atoms: C3_8  and  O1_9 
REMARK    2  A    between atoms: O1_9  and  C4_10 
REMARK    3  A    between atoms: C5_11  and  O2_12 
REMARK    4  A    between atoms: C6_14  and  O3_15 
REMARK    5  A    between atoms: C7_17  and  N4_18 
REMARK    6  A    between atoms: C8_22  and  O4_23 
REMARK    7  A    between atoms: C10_25  and  O5_26 
ROOT
HETATM    1  C4  UNL     1      35.771  -5.334  11.938  1.00  0.00     0.187 C 
HETATM    2  C5  UNL     1      34.504  -5.671  12.681  1.00  0.00     0.180 C 
HETATM    3  C6  UNL     1      34.562  -7.136  12.987  1.00  0.00     0.182 C 
HETATM    4  C7  UNL     1      34.705  -8.014  11.782  1.00  0.00     0.245 C 
HETATM    5  C8  UNL     1      35.667  -7.567  10.763  1.00  0.00     0.185 C 
HETATM    6  C10 UNL     1      35.943  -6.110  10.669  1.00  0.00     0.183 C 
ENDROOT
BRANCH   1   7
HETATM    7  O1  UNL     1      35.745  -3.963  11.691  1.00  0.00    -0.348 OA
BRANCH   7   8
HETATM    8  C3  UNL     1      36.735  -3.281  12.369  1.00  0.00     0.305 C 
HETATM    9  N3  UNL     1      36.103  -2.484  13.402  1.00  0.00    -0.095 NA
HETATM   10  N2  UNL     1      37.026  -2.175  14.382  1.00  0.00    -0.281 N 
HETATM   11  C2  UNL     1      37.775  -3.290  14.827  1.00  0.00     0.155 C 
ATOM     12  H2  UNL     1      37.156  -1.232  14.750  1.00  0.00     0.184 HD
HETATM   13  N1  UNL     1      38.376  -3.444  15.937  1.00  0.00    -0.374 N 
HETATM   14  S1  UNL     1      37.681  -4.439  13.458  1.00  0.00    -0.043 SA
HETATM   15  C1  UNL     1      38.409  -2.471  16.995  1.00  0.00     0.148 C 
ATOM     16  H1  UNL     1      38.872  -4.323  16.088  1.00  0.00     0.161 HD
ENDBRANCH   7   8
ENDBRANCH   1   7
BRANCH   2  17
HETATM   17  O2  UNL     1      34.582  -4.995  13.917  1.00  0.00    -0.390 OA
ATOM     18  H2  UNL     1      33.690  -4.925  14.237  1.00  0.00     0.210 HD
ENDBRANCH   2  17
BRANCH   6  19
HETATM   19  O5  UNL     1      35.205  -5.471   9.671  1.00  0.00    -0.385 OA
HETATM   20  C11 UNL     1      35.531  -5.840   8.402  1.00  0.00     0.202 C 
ENDBRANCH   6  19
BRANCH   3  21
HETATM   21  O3  UNL     1      33.392  -7.459  13.688  1.00  0.00    -0.391 OA
ATOM     22  H3  UNL     1      32.811  -6.711  13.622  1.00  0.00     0.210 HD
ENDBRANCH   3  21
BRANCH   5  23
HETATM   23  O4  UNL     1      36.863  -8.264  10.946  1.00  0.00    -0.386 OA
HETATM   24  C9  UNL     1      37.435  -8.684   9.765  1.00  0.00     0.202 C 
ENDBRANCH   5  23
BRANCH   4  25
HETATM   25  N4  UNL     1      33.376  -8.176  11.207  1.00  0.00    -0.070 N 
ATOM     26  H43 UNL     1      33.169  -9.141  10.947  1.00  0.00     0.274 HD
ATOM     27  H42 UNL     1      32.628  -8.061  11.892  1.00  0.00     0.274 HD
ATOM     28  H41 UNL     1      33.304  -7.527  10.424  1.00  0.00     0.274 HD
ENDBRANCH   4  25
TORSDOF 7
ENDMDL
MODEL 5
REMARK VINA RESULT: -5.986427015      1.893      2.249
REMARK  7 active torsions:
REMARK  status: ('A' for Active; 'I' for Inactive)
REMARK    1  A    between atoms: C3_8  and  O1_9 
REMARK    2  A    between atoms: O1_9  and  C4_10 
REMARK    3  A    between atoms: C5_11  and  O2_12 
REMARK    4  A    between atoms: C6_14  and  O3_15 
REMARK    5  A    between atoms: C7_17  and  N4_18 
REMARK    6  A    between atoms: C8_22  and  O4_23 
REMARK    7  A    between atoms: C10_25  and  O5_26 
ROOT
HETATM    1  C4  UNL     1      35.332  -6.128  12.647  1.00  0.00     0.187 C 
HETATM    2  C5  UNL     1      34.142  -7.048  12.753  1.00  0.00     0.180 C 
HETATM    3  C6  UNL     1      34.375  -7.915  13.952  1.00  0.00     0.182 C 
HETATM    4  C7  UNL     1      35.642  -8.711  13.903  1.00  0.00     0.245 C 
HETATM    5  C8  UNL     1      36.838  -8.000  13.426  1.00  0.00     0.185 C 
HETATM    6  C10 UNL     1      36.635  -6.852  12.504  1.00  0.00     0.183 C 
ENDROOT
BRANCH   1   7
HETATM    7  O1  UNL     1      35.100  -5.287  11.560  1.00  0.00    -0.348 OA
BRANCH   7   8
HETATM    8  C3  UNL     1      36.053  -4.296  11.442  1.00  0.00     0.305 C 
HETATM    9  N3  UNL     1      35.430  -3.151  10.808  1.00  0.00    -0.095 NA
HETATM   10  N2  UNL     1      36.157  -2.010  11.090  1.00  0.00    -0.281 N 
HETATM   11  C2  UNL     1      36.475  -1.866  12.462  1.00  0.00     0.155 C 
ATOM     12  H2  UNL     1      36.438  -1.336  10.378  1.00  0.00     0.184 HD
HETATM   13  N1  UNL     1      36.751  -0.801  13.100  1.00  0.00    -0.374 N 
HETATM   14  S1  UNL     1      36.400  -3.539  13.094  1.00  0.00    -0.043 SA
HETATM   15  C1  UNL     1      36.792   0.515  12.522  1.00  0.00     0.148 C 
ATOM     16  H1  UNL     1      36.958  -0.887  14.095  1.00  0.00     0.161 HD
ENDBRANCH   7   8
ENDBRANCH   1   7
BRANCH   2  17
HETATM   17  O2  UNL     1      33.036  -6.226  13.054  1.00  0.00    -0.390 OA
ATOM     18  H2  UNL     1      32.761  -6.464  13.932  1.00  0.00     0.210 HD
ENDBRANCH   2  17
BRANCH   6  19
HETATM   19  O5  UNL     1      36.794  -7.189  11.160  1.00  0.00    -0.385 OA
HETATM   20  C11 UNL     1      37.804  -8.068  10.911  1.00  0.00     0.202 C 
ENDBRANCH   6  19
BRANCH   3  21
HETATM   21  O3  UNL     1      33.269  -8.768  14.066  1.00  0.00    -0.391 OA
ATOM     22  H3  UNL     1      33.180  -8.990  14.986  1.00  0.00     0.210 HD
ENDBRANCH   3  21
BRANCH   5  23
HETATM   23  O4  UNL     1      37.582  -7.590  14.535  1.00  0.00    -0.386 OA
HETATM   24  C9  UNL     1      38.630  -6.757  14.209  1.00  0.00     0.202 C 
ENDBRANCH   5  23
BRANCH   4  25
HETATM   25  N4  UNL     1      35.379  -9.890  13.089  1.00  0.00    -0.070 N 
ATOM     26  H43 UNL     1      34.399 -10.175  13.104  1.00  0.00     0.274 HD
ATOM     27  H42 UNL     1      35.447  -9.708  12.088  1.00  0.00     0.274 HD
ATOM     28  H41 UNL     1      36.013 -10.624  13.406  1.00  0.00     0.274 HD
ENDBRANCH   4  25
TORSDOF 7
ENDMDL
