MODEL 1
REMARK VINA RESULT: -6.646203013      0.000      0.000
REMARK  9 active torsions:
REMARK  status: ('A' for Active; 'I' for Inactive)
REMARK    1  A    between atoms: C2_2  and  N1_3 
REMARK    2  A    between atoms: N1_3  and  C3_5 
REMARK    3  A    between atoms: C6_13  and  C7_14 
REMARK    4  A    between atoms: C7_14  and  N9_27 
REMARK    5  A    between atoms: N4_15  and  N5_17 
REMARK    6  A    between atoms: N5_17  and  C8_19 
REMARK    7  A    between atoms: C8_19  and  N6_20 
REMARK    8  A    between atoms: N6_20  and  N7_22 
REMARK    9  A    between atoms: N9_27  and  N10_29 
ROOT
HETATM    1  C3  UNL     1      37.166  -0.992  13.400  1.00  0.00     0.682 A 
HETATM    2  N2  UNL     1      36.360  -0.830  12.333  1.00  0.00    -0.154 N 
ATOM      3  H2  UNL     1      36.284   0.070  11.858  1.00  0.00     0.187 HD
HETATM    4  C4  UNL     1      35.657  -1.900  11.915  1.00  0.00     0.290 A 
HETATM    5  O1  UNL     1      34.895  -1.753  10.909  1.00  0.00    -0.265 OA
HETATM    6  C5  UNL     1      35.722  -3.130  12.517  1.00  0.00     0.147 A 
HETATM    7  N3  UNL     1      35.025  -4.207  12.109  1.00  0.00    -0.344 N 
ATOM      8  H3  UNL     1      34.405  -4.117  11.304  1.00  0.00     0.166 HD
HETATM    9  C6  UNL     1      35.119  -5.407  12.732  1.00  0.00     0.095 A 
HETATM   10  C9  UNL     1      35.964  -5.528  13.831  1.00  0.00     0.123 A 
HETATM   11  N11 UNL     1      36.666  -4.462  14.250  1.00  0.00    -0.348 N 
ATOM     12  H11 UNL     1      37.286  -4.548  15.056  1.00  0.00     0.167 HD
HETATM   13  C10 UNL     1      36.556  -3.272  13.609  1.00  0.00     0.153 A 
HETATM   14  N12 UNL     1      37.250  -2.195  14.012  1.00  0.00    -0.174 N 
ATOM     15  H12 UNL     1      37.868  -2.289  14.818  1.00  0.00     0.186 HD
ENDROOT
BRANCH   9  16
HETATM   16  C7  UNL     1      34.333  -6.497  12.221  1.00  0.00     0.163 C 
HETATM   17  N4  UNL     1      34.813  -7.408  11.443  1.00  0.00    -0.274 N 
ATOM     18  H4  UNL     1      34.184  -8.146  11.127  1.00  0.00     0.189 HD
BRANCH  17  19
HETATM   19  N5  UNL     1      36.132  -7.447  11.009  1.00  0.00    -0.248 N 
ATOM     20  H5  UNL     1      36.902  -7.527  11.671  1.00  0.00     0.198 HD
BRANCH  19  21
HETATM   21  C8  UNL     1      36.344  -7.378   9.756  1.00  0.00     0.085 C 
BRANCH  21  22
HETATM   22  N6  UNL     1      36.491  -7.295   8.508  1.00  0.00    -0.235 N 
ATOM     23  H6  UNL     1      37.032  -8.005   8.014  1.00  0.00     0.200 HD
BRANCH  22  24
HETATM   24  N7  UNL     1      35.927  -6.254   7.806  1.00  0.00    -0.241 N 
HETATM   25  N8  UNL     1      35.088  -5.466   8.321  1.00  0.00    -0.330 N 
ATOM     26  H82 UNL     1      34.829  -5.619   9.295  1.00  0.00     0.178 HD
ATOM     27  H81 UNL     1      34.670  -4.694   7.801  1.00  0.00     0.178 HD
ATOM     28  H7  UNL     1      36.198  -6.115   6.833  1.00  0.00     0.208 HD
ENDBRANCH  22  24
ENDBRANCH  21  22
ENDBRANCH  19  21
ENDBRANCH  17  19
BRANCH  16  29
HETATM   29  N9  UNL     1      32.964  -6.598  12.575  1.00  0.00    -0.289 N 
ATOM     30  H9  UNL     1      32.696  -6.953  13.493  1.00  0.00     0.188 HD
BRANCH  29  31
HETATM   31  N10 UNL     1      32.000  -6.214  11.670  1.00  0.00    -0.344 N 
ATOM     32 2H10 UNL     1      32.275  -5.986  10.715  1.00  0.00     0.176 HD
ATOM     33 1H10 UNL     1      31.025  -6.162  11.966  1.00  0.00     0.176 HD
ENDBRANCH  29  31
ENDBRANCH  16  29
ENDBRANCH   9  16
BRANCH   1  34
HETATM   34  N1  UNL     1      37.852  -0.012  13.836  1.00  0.00    -0.226 N 
ATOM     35  H1  UNL     1      38.502  -0.166  14.608  1.00  0.00     0.177 HD
BRANCH  34  36
HETATM   36  C2  UNL     1      37.738   1.310  13.271  1.00  0.00     0.133 C 
HETATM   37  C1  UNL     1      38.899   2.175  13.700  1.00  0.00     0.027 C 
ENDBRANCH  34  36
ENDBRANCH   1  34
TORSDOF 9
ENDMDL
MODEL 2
REMARK VINA RESULT: -6.623908167      1.697      2.264
REMARK  9 active torsions:
REMARK  status: ('A' for Active; 'I' for Inactive)
REMARK    1  A    between atoms: C2_2  and  N1_3 
REMARK    2  A    between atoms: N1_3  and  C3_5 
REMARK    3  A    between atoms: C6_13  and  C7_14 
REMARK    4  A    between atoms: C7_14  and  N9_27 
REMARK    5  A    between atoms: N4_15  and  N5_17 
REMARK    6  A    between atoms: N5_17  and  C8_19 
REMARK    7  A    between atoms: C8_19  and  N6_20 
REMARK    8  A    between atoms: N6_20  and  N7_22 
REMARK    9  A    between atoms: N9_27  and  N10_29 
ROOT
HETATM    1  C3  UNL     1      36.583  -3.117  13.794  1.00  0.00     0.682 A 
HETATM    2  N2  UNL     1      36.136  -2.794  12.564  1.00  0.00    -0.154 N 
ATOM      3  H2  UNL     1      36.204  -1.840  12.210  1.00  0.00     0.187 HD
HETATM    4  C4  UNL     1      35.594  -3.777  11.821  1.00  0.00     0.290 A 
HETATM    5  O1  UNL     1      35.170  -3.478  10.660  1.00  0.00    -0.265 OA
HETATM    6  C5  UNL     1      35.479  -5.074  12.250  1.00  0.00     0.147 A 
HETATM    7  N3  UNL     1      34.940  -6.065  11.516  1.00  0.00    -0.344 N 
ATOM      8  H3  UNL     1      34.591  -5.853  10.581  1.00  0.00     0.166 HD
HETATM    9  C6  UNL     1      34.846  -7.336  11.978  1.00  0.00     0.095 A 
HETATM   10  C9  UNL     1      35.320  -7.624  13.254  1.00  0.00     0.123 A 
HETATM   11  N11 UNL     1      35.861  -6.645  13.998  1.00  0.00    -0.348 N 
ATOM     12  H11 UNL     1      36.209  -6.853  14.934  1.00  0.00     0.167 HD
HETATM   13  C10 UNL     1      35.945  -5.381  13.513  1.00  0.00     0.153 A 
HETATM   14  N12 UNL     1      36.482  -4.389  14.241  1.00  0.00    -0.174 N 
ATOM     15  H12 UNL     1      36.830  -4.605  15.176  1.00  0.00     0.186 HD
ENDROOT
BRANCH   9  16
HETATM   16  C7  UNL     1      34.253  -8.325  11.118  1.00  0.00     0.163 C 
HETATM   17  N4  UNL     1      34.860  -8.823  10.093  1.00  0.00    -0.274 N 
ATOM     18  H4  UNL     1      34.365  -9.520   9.538  1.00  0.00     0.189 HD
BRANCH  17  19
HETATM   19  N5  UNL     1      36.144  -8.469   9.700  1.00  0.00    -0.248 N 
ATOM     20  H5  UNL     1      36.960  -8.777  10.227  1.00  0.00     0.198 HD
BRANCH  19  21
HETATM   21  C8  UNL     1      36.266  -7.747   8.660  1.00  0.00     0.085 C 
BRANCH  21  22
HETATM   22  N6  UNL     1      36.322  -7.022   7.631  1.00  0.00    -0.235 N 
ATOM     23  H6  UNL     1      36.731  -7.390   6.773  1.00  0.00     0.200 HD
BRANCH  22  24
HETATM   24  N7  UNL     1      35.835  -5.735   7.658  1.00  0.00    -0.241 N 
HETATM   25  N8  UNL     1      34.911  -5.375   8.438  1.00  0.00    -0.330 N 
ATOM     26  H82 UNL     1      34.522  -6.078   9.068  1.00  0.00     0.178 HD
ATOM     27  H81 UNL     1      34.550  -4.421   8.458  1.00  0.00     0.178 HD
ATOM     28  H7  UNL     1      36.235  -5.045   7.022  1.00  0.00     0.208 HD
ENDBRANCH  22  24
ENDBRANCH  21  22
ENDBRANCH  19  21
ENDBRANCH  17  19
BRANCH  16  29
HETATM   29  N9  UNL     1      32.942  -8.791  11.388  1.00  0.00    -0.289 N 
ATOM     30  H9  UNL     1      32.266  -8.185  11.854  1.00  0.00     0.188 HD
BRANCH  29  31
HETATM   31  N10 UNL     1      32.587 -10.069  11.018  1.00  0.00    -0.344 N 
ATOM     32 2H10 UNL     1      31.822 -10.535  11.505  1.00  0.00     0.176 HD
ATOM     33 1H10 UNL     1      33.093 -10.533  10.263  1.00  0.00     0.176 HD
ENDBRANCH  29  31
ENDBRANCH  16  29
ENDBRANCH   9  16
BRANCH   1  34
HETATM   34  N1  UNL     1      37.103  -2.224  14.539  1.00  0.00    -0.226 N 
ATOM     35  H1  UNL     1      36.740  -2.093  15.483  1.00  0.00     0.177 HD
BRANCH  34  36
HETATM   36  C2  UNL     1      38.191  -1.392  14.085  1.00  0.00     0.133 C 
HETATM   37  C1  UNL     1      39.424  -2.223  13.824  1.00  0.00     0.027 C 
ENDBRANCH  34  36
ENDBRANCH   1  34
TORSDOF 9
ENDMDL
MODEL 3
REMARK VINA RESULT: -6.432449659      1.184      1.340
REMARK  9 active torsions:
REMARK  status: ('A' for Active; 'I' for Inactive)
REMARK    1  A    between atoms: C2_2  and  N1_3 
REMARK    2  A    between atoms: N1_3  and  C3_5 
REMARK    3  A    between atoms: C6_13  and  C7_14 
REMARK    4  A    between atoms: C7_14  and  N9_27 
REMARK    5  A    between atoms: N4_15  and  N5_17 
REMARK    6  A    between atoms: N5_17  and  C8_19 
REMARK    7  A    between atoms: C8_19  and  N6_20 
REMARK    8  A    between atoms: N6_20  and  N7_22 
REMARK    9  A    between atoms: N9_27  and  N10_29 
ROOT
HETATM    1  C3  UNL     1      36.747  -1.765  13.091  1.00  0.00     0.682 A 
HETATM    2  N2  UNL     1      36.339  -1.895  11.814  1.00  0.00    -0.154 N 
ATOM      3  H2  UNL     1      36.393  -1.115  11.159  1.00  0.00     0.187 HD
HETATM    4  C4  UNL     1      35.855  -3.093  11.434  1.00  0.00     0.290 A 
HETATM    5  O1  UNL     1      35.468  -3.221  10.230  1.00  0.00    -0.265 OA
HETATM    6  C5  UNL     1      35.760  -4.172  12.274  1.00  0.00     0.147 A 
HETATM    7  N3  UNL     1      35.278  -5.374  11.906  1.00  0.00    -0.344 N 
ATOM      8  H3  UNL     1      34.960  -5.505  10.946  1.00  0.00     0.166 HD
HETATM    9  C6  UNL     1      35.202  -6.416  12.769  1.00  0.00     0.095 A 
HETATM   10  C9  UNL     1      35.635  -6.237  14.079  1.00  0.00     0.123 A 
HETATM   11  N11 UNL     1      36.118  -5.042  14.461  1.00  0.00    -0.348 N 
ATOM     12  H11 UNL     1      36.436  -4.908  15.421  1.00  0.00     0.167 HD
HETATM   13  C10 UNL     1      36.185  -4.015  13.579  1.00  0.00     0.153 A 
HETATM   14  N12 UNL     1      36.665  -2.814  13.941  1.00  0.00    -0.174 N 
ATOM     15  H12 UNL     1      36.982  -2.687  14.902  1.00  0.00     0.186 HD
ENDROOT
BRANCH   9  16
HETATM   16  C7  UNL     1      34.672  -7.661  12.280  1.00  0.00     0.163 C 
HETATM   17  N4  UNL     1      35.243  -8.355  11.354  1.00  0.00    -0.274 N 
ATOM     18  H4  UNL     1      34.798  -9.226  11.068  1.00  0.00     0.189 HD
BRANCH  17  19
HETATM   19  N5  UNL     1      36.425  -7.990  10.724  1.00  0.00    -0.248 N 
ATOM     20  H5  UNL     1      37.308  -7.963  11.233  1.00  0.00     0.198 HD
BRANCH  19  21
HETATM   21  C8  UNL     1      36.368  -7.690   9.488  1.00  0.00     0.085 C 
BRANCH  21  22
HETATM   22  N6  UNL     1      36.375  -7.409   8.260  1.00  0.00    -0.235 N 
ATOM     23  H6  UNL     1      36.731  -8.088   7.587  1.00  0.00     0.200 HD
BRANCH  22  24
HETATM   24  N7  UNL     1      35.904  -6.193   7.820  1.00  0.00    -0.241 N 
HETATM   25  N8  UNL     1      35.072  -5.510   8.477  1.00  0.00    -0.330 N 
ATOM     26  H82 UNL     1      34.745  -5.888   9.366  1.00  0.00     0.178 HD
ATOM     27  H81 UNL     1      34.723  -4.609   8.150  1.00  0.00     0.178 HD
ATOM     28  H7  UNL     1      36.242  -5.830   6.929  1.00  0.00     0.208 HD
ENDBRANCH  22  24
ENDBRANCH  21  22
ENDBRANCH  19  21
ENDBRANCH  17  19
BRANCH  16  29
HETATM   29  N9  UNL     1      33.467  -8.170  12.826  1.00  0.00    -0.289 N 
ATOM     30  H9  UNL     1      32.567  -7.799  12.520  1.00  0.00     0.188 HD
BRANCH  29  31
HETATM   31  N10 UNL     1      33.520  -9.168  13.773  1.00  0.00    -0.344 N 
ATOM     32 2H10 UNL     1      33.913  -8.963  14.691  1.00  0.00     0.176 HD
ATOM     33 1H10 UNL     1      33.167 -10.097  13.544  1.00  0.00     0.176 HD
ENDBRANCH  29  31
ENDBRANCH  16  29
ENDBRANCH   9  16
BRANCH   1  34
HETATM   34  N1  UNL     1      37.212  -0.653  13.503  1.00  0.00    -0.226 N 
ATOM     35  H1  UNL     1      37.397  -0.531  14.499  1.00  0.00     0.177 HD
BRANCH  34  36
HETATM   36  C2  UNL     1      37.485   0.439  12.601  1.00  0.00     0.133 C 
HETATM   37  C1  UNL     1      36.965   1.739  13.168  1.00  0.00     0.027 C 
ENDBRANCH  34  36
ENDBRANCH   1  34
TORSDOF 9
ENDMDL
MODEL 4
REMARK VINA RESULT: -6.429689385      1.623      2.110
REMARK  9 active torsions:
REMARK  status: ('A' for Active; 'I' for Inactive)
REMARK    1  A    between atoms: C2_2  and  N1_3 
REMARK    2  A    between atoms: N1_3  and  C3_5 
REMARK    3  A    between atoms: C6_13  and  C7_14 
REMARK    4  A    between atoms: C7_14  and  N9_27 
REMARK    5  A    between atoms: N4_15  and  N5_17 
REMARK    6  A    between atoms: N5_17  and  C8_19 
REMARK    7  A    between atoms: C8_19  and  N6_20 
REMARK    8  A    between atoms: N6_20  and  N7_22 
REMARK    9  A    between atoms: N9_27  and  N10_29 
ROOT
HETATM    1  C3  UNL     1      36.377  -2.778  13.110  1.00  0.00     0.682 A 
HETATM    2  N2  UNL     1      36.245  -2.757  11.769  1.00  0.00    -0.154 N 
ATOM      3  H2  UNL     1      36.480  -1.926  11.227  1.00  0.00     0.187 HD
HETATM    4  C4  UNL     1      35.790  -3.874  11.171  1.00  0.00     0.290 A 
HETATM    5  O1  UNL     1      35.664  -3.860   9.906  1.00  0.00    -0.265 OA
HETATM    6  C5  UNL     1      35.459  -5.017  11.852  1.00  0.00     0.147 A 
HETATM    7  N3  UNL     1      35.004  -6.139  11.265  1.00  0.00    -0.344 N 
ATOM      8  H3  UNL     1      34.892  -6.155  10.251  1.00  0.00     0.166 HD
HETATM    9  C6  UNL     1      34.689  -7.249  11.977  1.00  0.00     0.095 A 
HETATM   10  C9  UNL     1      34.840  -7.226  13.359  1.00  0.00     0.123 A 
HETATM   11  N11 UNL     1      35.293  -6.112  13.960  1.00  0.00    -0.348 N 
ATOM     12  H11 UNL     1      35.405  -6.093  14.973  1.00  0.00     0.167 HD
HETATM   13  C10 UNL     1      35.603  -5.015  13.226  1.00  0.00     0.153 A 
HETATM   14  N12 UNL     1      36.058  -3.893  13.807  1.00  0.00    -0.174 N 
ATOM     15  H12 UNL     1      36.168  -3.881  14.820  1.00  0.00     0.186 HD
ENDROOT
BRANCH   9  16
HETATM   16  C7  UNL     1      34.209  -8.399  11.257  1.00  0.00     0.163 C 
HETATM   17  N4  UNL     1      34.968  -9.132  10.514  1.00  0.00    -0.274 N 
ATOM     18  H4  UNL     1      34.545  -9.930  10.040  1.00  0.00     0.189 HD
BRANCH  17  19
HETATM   19  N5  UNL     1      36.324  -8.904  10.320  1.00  0.00    -0.248 N 
ATOM     20  H5  UNL     1      36.991  -9.008  11.085  1.00  0.00     0.198 HD
BRANCH  19  21
HETATM   21  C8  UNL     1      36.705  -8.560   9.156  1.00  0.00     0.085 C 
BRANCH  21  22
HETATM   22  N6  UNL     1      37.030  -8.250   7.979  1.00  0.00    -0.235 N 
ATOM     23  H6  UNL     1      37.777  -8.760   7.508  1.00  0.00     0.200 HD
BRANCH  22  24
HETATM   24  N7  UNL     1      36.382  -7.227   7.323  1.00  0.00    -0.241 N 
HETATM   25  N8  UNL     1      35.901  -6.231   7.929  1.00  0.00    -0.330 N 
ATOM     26  H82 UNL     1      36.004  -6.198   8.944  1.00  0.00     0.178 HD
ATOM     27  H81 UNL     1      35.421  -5.474   7.443  1.00  0.00     0.178 HD
ATOM     28  H7  UNL     1      36.288  -7.277   6.309  1.00  0.00     0.208 HD
ENDBRANCH  22  24
ENDBRANCH  21  22
ENDBRANCH  19  21
ENDBRANCH  17  19
BRANCH  16  29
HETATM   29  N9  UNL     1      32.843  -8.764  11.354  1.00  0.00    -0.289 N 
ATOM     30  H9  UNL     1      32.154  -8.091  11.690  1.00  0.00     0.188 HD
BRANCH  29  31
HETATM   31  N10 UNL     1      32.454 -10.034  10.993  1.00  0.00    -0.344 N 
ATOM     32 2H10 UNL     1      32.863 -10.837  11.471  1.00  0.00     0.176 HD
ATOM     33 1H10 UNL     1      31.763 -10.157  10.252  1.00  0.00     0.176 HD
ENDBRANCH  29  31
ENDBRANCH  16  29
ENDBRANCH   9  16
BRANCH   1  34
HETATM   34  N1  UNL     1      36.802  -1.748  13.726  1.00  0.00    -0.226 N 
ATOM     35  H1  UNL     1      36.479  -1.571  14.678  1.00  0.00     0.177 HD
BRANCH  34  36
HETATM   36  C2  UNL     1      37.726  -0.823  13.117  1.00  0.00     0.133 C 
HETATM   37  C1  UNL     1      37.103   0.547  12.992  1.00  0.00     0.027 C 
ENDBRANCH  34  36
ENDBRANCH   1  34
TORSDOF 9
ENDMDL
MODEL 5
REMARK VINA RESULT: -6.351921080      1.515      3.201
REMARK  9 active torsions:
REMARK  status: ('A' for Active; 'I' for Inactive)
REMARK    1  A    between atoms: C2_2  and  N1_3 
REMARK    2  A    between atoms: N1_3  and  C3_5 
REMARK    3  A    between atoms: C6_13  and  C7_14 
REMARK    4  A    between atoms: C7_14  and  N9_27 
REMARK    5  A    between atoms: N4_15  and  N5_17 
REMARK    6  A    between atoms: N5_17  and  C8_19 
REMARK    7  A    between atoms: C8_19  and  N6_20 
REMARK    8  A    between atoms: N6_20  and  N7_22 
REMARK    9  A    between atoms: N9_27  and  N10_29 
ROOT
HETATM    1  C3  UNL     1      37.356  -0.839  13.170  1.00  0.00     0.682 A 
HETATM    2  N2  UNL     1      36.325  -0.504  12.368  1.00  0.00    -0.154 N 
ATOM      3  H2  UNL     1      36.060   0.470  12.226  1.00  0.00     0.187 HD
HETATM    4  C4  UNL     1      35.660  -1.505  11.762  1.00  0.00     0.290 A 
HETATM    5  O1  UNL     1      34.686  -1.196  11.004  1.00  0.00    -0.265 OA
HETATM    6  C5  UNL     1      35.976  -2.829  11.919  1.00  0.00     0.147 A 
HETATM    7  N3  UNL     1      35.317  -3.838  11.318  1.00  0.00    -0.344 N 
ATOM      8  H3  UNL     1      34.532  -3.618  10.705  1.00  0.00     0.166 HD
HETATM    9  C6  UNL     1      35.664  -5.136  11.500  1.00  0.00     0.095 A 
HETATM   10  C9  UNL     1      36.734  -5.435  12.337  1.00  0.00     0.123 A 
HETATM   11  N11 UNL     1      37.401  -4.438  12.944  1.00  0.00    -0.348 N 
ATOM     12  H11 UNL     1      38.186  -4.655  13.558  1.00  0.00     0.167 HD
HETATM   13  C10 UNL     1      37.036  -3.148  12.745  1.00  0.00     0.153 A 
HETATM   14  N12 UNL     1      37.690  -2.138  13.342  1.00  0.00    -0.174 N 
ATOM     15  H12 UNL     1      38.474  -2.361  13.954  1.00  0.00     0.186 HD
ENDROOT
BRANCH   9  16
HETATM   16  C7  UNL     1      34.897  -6.142  10.813  1.00  0.00     0.163 C 
HETATM   17  N4  UNL     1      33.907  -6.765  11.356  1.00  0.00    -0.274 N 
ATOM     18  H4  UNL     1      33.418  -7.463  10.797  1.00  0.00     0.189 HD
BRANCH  17  19
HETATM   19  N5  UNL     1      33.464  -6.545  12.654  1.00  0.00    -0.248 N 
ATOM     20  H5  UNL     1      32.755  -5.840  12.857  1.00  0.00     0.198 HD
BRANCH  19  21
HETATM   21  C8  UNL     1      33.973  -7.253  13.581  1.00  0.00     0.085 C 
BRANCH  21  22
HETATM   22  N6  UNL     1      34.475  -8.005  14.458  1.00  0.00    -0.235 N 
ATOM     23  H6  UNL     1      35.314  -7.710  14.958  1.00  0.00     0.200 HD
BRANCH  22  24
HETATM   24  N7  UNL     1      33.899  -9.221  14.746  1.00  0.00    -0.241 N 
HETATM   25  N8  UNL     1      33.269  -9.894  13.886  1.00  0.00    -0.330 N 
ATOM     26  H82 UNL     1      33.192  -9.507  12.944  1.00  0.00     0.178 HD
ATOM     27  H81 UNL     1      32.841 -10.795  14.099  1.00  0.00     0.178 HD
ATOM     28  H7  UNL     1      33.986  -9.593  15.692  1.00  0.00     0.208 HD
ENDBRANCH  22  24
ENDBRANCH  21  22
ENDBRANCH  19  21
ENDBRANCH  17  19
BRANCH  16  29
HETATM   29  N9  UNL     1      35.227  -6.480   9.477  1.00  0.00    -0.289 N 
ATOM     30  H9  UNL     1      35.536  -7.425   9.247  1.00  0.00     0.188 HD
BRANCH  29  31
HETATM   31  N10 UNL     1      35.126  -5.524   8.491  1.00  0.00    -0.344 N 
ATOM     32 2H10 UNL     1      34.478  -5.671   7.718  1.00  0.00     0.176 HD
ATOM     33 1H10 UNL     1      35.699  -4.682   8.547  1.00  0.00     0.176 HD
ENDBRANCH  29  31
ENDBRANCH  16  29
ENDBRANCH   9  16
BRANCH   1  34
HETATM   34  N1  UNL     1      38.019   0.070  13.769  1.00  0.00    -0.226 N 
ATOM     35  H1  UNL     1      38.570  -0.180  14.591  1.00  0.00     0.177 HD
BRANCH  34  36
HETATM   36  C2  UNL     1      38.014   1.440  13.318  1.00  0.00     0.133 C 
HETATM   37  C1  UNL     1      39.076   2.239  14.035  1.00  0.00     0.027 C 
ENDBRANCH  34  36
ENDBRANCH   1  34
TORSDOF 9
ENDMDL
