MODEL 1
REMARK VINA RESULT: -6.896591449      0.000      0.000
REMARK  7 active torsions:
REMARK  status: ('A' for Active; 'I' for Inactive)
REMARK       I    between atoms: C2_2  and  N1_4 
REMARK    1  A    between atoms: N1_4  and  N2_6 
REMARK    2  A    between atoms: C4_9  and  N4_10 
REMARK    3  A    between atoms: N4_10  and  O2_12 
REMARK    4  A    between atoms: C5_14  and  S1_15 
REMARK    5  A    between atoms: S1_15  and  N5_16 
REMARK    6  A    between atoms: S1_15  and  N6_19 
REMARK    7  A    between atoms: C6_23  and  C7_24 
ROOT
HETATM    1  N2  UNL     1      37.681  -0.733  13.102  1.00  0.00    -0.200 N 
HETATM    2  C3  UNL     1      38.165  -1.586  14.076  1.00  0.00     0.171 A 
HETATM    3  N3  UNL     1      39.050  -1.043  15.051  1.00  0.00    -0.078 NA
HETATM    4  C4  UNL     1      37.819  -2.920  14.129  1.00  0.00     0.120 A 
HETATM    5  C5  UNL     1      36.978  -3.411  13.196  1.00  0.00     0.112 A 
HETATM    6  C6  UNL     1      36.479  -2.628  12.224  1.00  0.00     0.134 A 
HETATM    7  C8  UNL     1      36.859  -1.273  12.209  1.00  0.00     0.286 A 
HETATM    8  O6  UNL     1      36.372  -0.586  11.293  1.00  0.00    -0.265 OA
ENDROOT
BRANCH   5   9
HETATM    9  S1  UNL     1      36.339  -5.348  13.383  1.00  0.00     0.134 S 
HETATM   10  O3  UNL     1      36.526  -5.635  14.280  1.00  0.00    -0.224 OA
BRANCH   9  11
HETATM   11  N5  UNL     1      37.322  -6.441  12.019  1.00  0.00    -0.341 N 
ATOM     12  H52 UNL     1      37.625  -6.110  11.102  1.00  0.00     0.167 HD
ATOM     13  H51 UNL     1      37.457  -7.372  12.411  1.00  0.00     0.167 HD
ENDBRANCH   9  11
BRANCH   9  14
HETATM   14  N6  UNL     1      34.420  -5.444  12.919  1.00  0.00    -0.341 N 
ATOM     15  H62 UNL     1      33.680  -5.713  13.567  1.00  0.00     0.167 HD
ATOM     16  H61 UNL     1      34.300  -5.185  11.941  1.00  0.00     0.167 HD
ENDBRANCH   9  14
ENDBRANCH   5   9
BRANCH   4  17
HETATM   17  N4  UNL     1      38.379  -3.700  15.176  1.00  0.00    -0.264 N 
ATOM     18  H4  UNL     1      39.224  -4.247  15.009  1.00  0.00     0.194 HD
BRANCH  17  19
HETATM   19  O2  UNL     1      37.831  -3.714  16.311  1.00  0.00    -0.289 OA
ATOM     20  H2  UNL     1      38.339  -3.499  17.085  1.00  0.00     0.244 HD
ENDBRANCH  17  19
ENDBRANCH   4  17
BRANCH   6  21
HETATM   21  C7  UNL     1      35.576  -3.087  11.176  1.00  0.00     0.216 C 
HETATM   22  O4  UNL     1      34.424  -2.585  11.126  1.00  0.00    -0.644 OA
HETATM   23  O5  UNL     1      35.980  -4.047  10.261  1.00  0.00    -0.644 OA
ENDBRANCH   6  21
BRANCH   1  24
HETATM   24  N1  UNL     1      38.100   0.597  13.153  1.00  0.00    -0.259 N 
HETATM   25  C2  UNL     1      37.447   1.783  13.400  1.00  0.00     0.232 C 
HETATM   26  C1  UNL     1      38.276   3.075  13.367  1.00  0.00     0.119 C 
HETATM   27  O1  UNL     1      36.255   1.957  13.652  1.00  0.00    -0.272 OA
ATOM     28  H1  UNL     1      39.097   0.715  12.969  1.00  0.00     0.190 HD
ENDBRANCH   1  24
TORSDOF 7
ENDMDL
MODEL 2
REMARK VINA RESULT: -6.620736019      1.987      3.872
REMARK  7 active torsions:
REMARK  status: ('A' for Active; 'I' for Inactive)
REMARK       I    between atoms: C2_2  and  N1_4 
REMARK    1  A    between atoms: N1_4  and  N2_6 
REMARK    2  A    between atoms: C4_9  and  N4_10 
REMARK    3  A    between atoms: N4_10  and  O2_12 
REMARK    4  A    between atoms: C5_14  and  S1_15 
REMARK    5  A    between atoms: S1_15  and  N5_16 
REMARK    6  A    between atoms: S1_15  and  N6_19 
REMARK    7  A    between atoms: C6_23  and  C7_24 
ROOT
HETATM    1  N2  UNL     1      36.878  -1.881  12.875  1.00  0.00    -0.200 N 
HETATM    2  C3  UNL     1      36.080  -2.560  11.974  1.00  0.00     0.171 A 
HETATM    3  N3  UNL     1      35.190  -1.792  11.170  1.00  0.00    -0.078 NA
HETATM    4  C4  UNL     1      36.122  -3.932  11.836  1.00  0.00     0.120 A 
HETATM    5  C5  UNL     1      36.974  -4.637  12.608  1.00  0.00     0.112 A 
HETATM    6  C6  UNL     1      37.772  -4.029  13.502  1.00  0.00     0.134 A 
HETATM    7  C8  UNL     1      37.696  -2.628  13.610  1.00  0.00     0.286 A 
HETATM    8  O6  UNL     1      38.453  -2.108  14.448  1.00  0.00    -0.265 OA
ENDROOT
BRANCH   5   9
HETATM    9  S1  UNL     1      37.149  -6.650  12.276  1.00  0.00     0.134 S 
HETATM   10  O3  UNL     1      36.607  -6.873  11.516  1.00  0.00    -0.224 OA
BRANCH   9  11
HETATM   11  N5  UNL     1      36.542  -7.590  13.940  1.00  0.00    -0.341 N 
ATOM     12  H52 UNL     1      37.079  -7.672  14.804  1.00  0.00     0.167 HD
ATOM     13  H51 UNL     1      35.610  -7.962  13.759  1.00  0.00     0.167 HD
ENDBRANCH   9  11
BRANCH   9  14
HETATM   14  N6  UNL     1      39.058  -7.101  12.029  1.00  0.00    -0.341 N 
ATOM     15  H62 UNL     1      39.702  -6.587  11.428  1.00  0.00     0.167 HD
ATOM     16  H61 UNL     1      39.283  -7.921  12.593  1.00  0.00     0.167 HD
ENDBRANCH   9  14
ENDBRANCH   5   9
BRANCH   4  17
HETATM   17  N4  UNL     1      35.253  -4.519  10.878  1.00  0.00    -0.264 N 
ATOM     18  H4  UNL     1      34.342  -4.877  11.166  1.00  0.00     0.194 HD
BRANCH  17  19
HETATM   19  O2  UNL     1      35.610  -4.598   9.671  1.00  0.00    -0.289 OA
ATOM     20  H2  UNL     1      35.290  -5.309   9.127  1.00  0.00     0.244 HD
ENDBRANCH  17  19
ENDBRANCH   4  17
BRANCH   6  21
HETATM   21  C7  UNL     1      38.708  -4.722  14.379  1.00  0.00     0.216 C 
HETATM   22  O4  UNL     1      38.272  -5.178  15.468  1.00  0.00    -0.644 OA
HETATM   23  O5  UNL     1      40.038  -4.874  14.020  1.00  0.00    -0.644 OA
ENDBRANCH   6  21
BRANCH   1  24
HETATM   24  N1  UNL     1      36.749  -0.493  12.923  1.00  0.00    -0.259 N 
HETATM   25  C2  UNL     1      37.609   0.546  12.640  1.00  0.00     0.232 C 
HETATM   26  C1  UNL     1      37.081   1.977  12.820  1.00  0.00     0.119 C 
HETATM   27  O1  UNL     1      38.774   0.484  12.252  1.00  0.00    -0.272 OA
ATOM     28  H1  UNL     1      35.827  -0.182  13.230  1.00  0.00     0.190 HD
ENDBRANCH   1  24
TORSDOF 7
ENDMDL
MODEL 3
REMARK VINA RESULT: -6.598285814      2.971      6.789
REMARK  7 active torsions:
REMARK  status: ('A' for Active; 'I' for Inactive)
REMARK       I    between atoms: C2_2  and  N1_4 
REMARK    1  A    between atoms: N1_4  and  N2_6 
REMARK    2  A    between atoms: C4_9  and  N4_10 
REMARK    3  A    between atoms: N4_10  and  O2_12 
REMARK    4  A    between atoms: C5_14  and  S1_15 
REMARK    5  A    between atoms: S1_15  and  N5_16 
REMARK    6  A    between atoms: S1_15  and  N6_19 
REMARK    7  A    between atoms: C6_23  and  C7_24 
ROOT
HETATM    1  N2  UNL     1      36.042  -6.638  12.752  1.00  0.00    -0.200 N 
HETATM    2  C3  UNL     1      35.688  -5.672  11.829  1.00  0.00     0.171 A 
HETATM    3  N3  UNL     1      34.701  -6.012  10.860  1.00  0.00    -0.078 NA
HETATM    4  C4  UNL     1      36.253  -4.414  11.824  1.00  0.00     0.120 A 
HETATM    5  C5  UNL     1      37.183  -4.115  12.752  1.00  0.00     0.112 A 
HETATM    6  C6  UNL     1      37.567  -5.016  13.672  1.00  0.00     0.134 A 
HETATM    7  C8  UNL     1      36.966  -6.288  13.640  1.00  0.00     0.286 A 
HETATM    8  O6  UNL     1      37.350  -7.089  14.510  1.00  0.00    -0.265 OA
ENDROOT
BRANCH   5   9
HETATM    9  S1  UNL     1      37.889  -2.194  12.840  1.00  0.00     0.134 S 
HETATM   10  O3  UNL     1      37.488  -1.698  12.123  1.00  0.00    -0.224 OA
BRANCH   9  11
HETATM   11  N5  UNL     1      39.886  -2.278  12.676  1.00  0.00    -0.341 N 
ATOM     12  H52 UNL     1      40.477  -1.560  12.255  1.00  0.00     0.167 HD
ATOM     13  H51 UNL     1      40.190  -3.159  13.088  1.00  0.00     0.167 HD
ENDBRANCH   9  11
BRANCH   9  14
HETATM   14  N6  UNL     1      37.493  -1.440  14.623  1.00  0.00    -0.341 N 
ATOM     15  H62 UNL     1      38.195  -1.079  15.270  1.00  0.00     0.167 HD
ATOM     16  H61 UNL     1      36.486  -1.473  14.783  1.00  0.00     0.167 HD
ENDBRANCH   9  14
ENDBRANCH   5   9
BRANCH   4  17
HETATM   17  N4  UNL     1      35.810  -3.503  10.827  1.00  0.00    -0.264 N 
ATOM     18  H4  UNL     1      36.296  -3.452   9.931  1.00  0.00     0.194 HD
BRANCH  17  19
HETATM   19  O2  UNL     1      34.817  -2.760  11.050  1.00  0.00    -0.289 OA
ATOM     20  H2  UNL     1      34.216  -2.970  11.756  1.00  0.00     0.244 HD
ENDBRANCH  17  19
ENDBRANCH   4  17
BRANCH   6  21
HETATM   21  C7  UNL     1      38.575  -4.772  14.697  1.00  0.00     0.216 C 
HETATM   22  O4  UNL     1      39.780  -4.980  14.404  1.00  0.00    -0.644 OA
HETATM   23  O5  UNL     1      38.211  -4.324  15.958  1.00  0.00    -0.644 OA
ENDBRANCH   6  21
BRANCH   1  24
HETATM   24  N1  UNL     1      35.400  -7.874  12.660  1.00  0.00    -0.259 N 
HETATM   25  C2  UNL     1      34.297  -8.414  13.282  1.00  0.00     0.232 C 
HETATM   26  C1  UNL     1      33.892  -9.846  12.902  1.00  0.00     0.119 C 
HETATM   27  O1  UNL     1      33.569  -7.892  14.125  1.00  0.00    -0.272 OA
ATOM     28  H1  UNL     1      35.840  -8.510  11.994  1.00  0.00     0.190 HD
ENDBRANCH   1  24
TORSDOF 7
ENDMDL
MODEL 4
REMARK VINA RESULT: -6.597045449      3.444      5.667
REMARK  7 active torsions:
REMARK  status: ('A' for Active; 'I' for Inactive)
REMARK       I    between atoms: C2_2  and  N1_4 
REMARK    1  A    between atoms: N1_4  and  N2_6 
REMARK    2  A    between atoms: C4_9  and  N4_10 
REMARK    3  A    between atoms: N4_10  and  O2_12 
REMARK    4  A    between atoms: C5_14  and  S1_15 
REMARK    5  A    between atoms: S1_15  and  N5_16 
REMARK    6  A    between atoms: S1_15  and  N6_19 
REMARK    7  A    between atoms: C6_23  and  C7_24 
ROOT
HETATM    1  N2  UNL     1      35.824  -4.766  12.534  1.00  0.00    -0.200 N 
HETATM    2  C3  UNL     1      35.723  -5.001  11.176  1.00  0.00     0.171 A 
HETATM    3  N3  UNL     1      36.029  -3.926  10.293  1.00  0.00    -0.078 NA
HETATM    4  C4  UNL     1      35.341  -6.224  10.664  1.00  0.00     0.120 A 
HETATM    5  C5  UNL     1      35.058  -7.227  11.519  1.00  0.00     0.112 A 
HETATM    6  C6  UNL     1      35.137  -7.054  12.850  1.00  0.00     0.134 A 
HETATM    7  C8  UNL     1      35.530  -5.790  13.328  1.00  0.00     0.286 A 
HETATM    8  O6  UNL     1      35.591  -5.675  14.565  1.00  0.00    -0.265 OA
ENDROOT
BRANCH   5   9
HETATM    9  S1  UNL     1      34.659  -9.082  10.747  1.00  0.00     0.134 S 
HETATM   10  O3  UNL     1      34.761  -9.033   9.794  1.00  0.00    -0.224 OA
BRANCH   9  11
HETATM   11  N5  UNL     1      32.789  -9.568  11.284  1.00  0.00    -0.341 N 
ATOM     12  H52 UNL     1      31.961  -9.478  10.695  1.00  0.00     0.167 HD
ATOM     13  H51 UNL     1      32.826  -9.917  12.242  1.00  0.00     0.167 HD
ENDBRANCH   9  11
BRANCH   9  14
HETATM   14  N6  UNL     1      35.859 -10.406  11.592  1.00  0.00    -0.341 N 
ATOM     15  H62 UNL     1      36.804 -10.206  11.921  1.00  0.00     0.167 HD
ATOM     16  H61 UNL     1      35.382 -11.306  11.640  1.00  0.00     0.167 HD
ENDBRANCH   9  14
ENDBRANCH   5   9
BRANCH   4  17
HETATM   17  N4  UNL     1      35.272  -6.348   9.250  1.00  0.00    -0.264 N 
ATOM     18  H4  UNL     1      35.583  -7.208   8.798  1.00  0.00     0.194 HD
BRANCH  17  19
HETATM   19  O2  UNL     1      34.826  -5.395   8.556  1.00  0.00    -0.289 OA
ATOM     20  H2  UNL     1      34.181  -5.563   7.878  1.00  0.00     0.244 HD
ENDBRANCH  17  19
ENDBRANCH   4  17
BRANCH   6  21
HETATM   21  C7  UNL     1      34.835  -8.084  13.836  1.00  0.00     0.216 C 
HETATM   22  O4  UNL     1      33.632  -8.259  14.159  1.00  0.00    -0.644 OA
HETATM   23  O5  UNL     1      35.846  -8.846  14.400  1.00  0.00    -0.644 OA
ENDBRANCH   6  21
BRANCH   1  24
HETATM   24  N1  UNL     1      36.221  -3.489  12.933  1.00  0.00    -0.259 N 
HETATM   25  C2  UNL     1      37.430  -2.955  13.319  1.00  0.00     0.232 C 
HETATM   26  C1  UNL     1      37.464  -1.465  13.693  1.00  0.00     0.119 C 
HETATM   27  O1  UNL     1      38.518  -3.521  13.408  1.00  0.00    -0.272 OA
ATOM     28  H1  UNL     1      35.458  -2.811  12.939  1.00  0.00     0.190 HD
ENDBRANCH   1  24
TORSDOF 7
ENDMDL
MODEL 5
REMARK VINA RESULT: -6.595795989      3.812      6.143
REMARK  7 active torsions:
REMARK  status: ('A' for Active; 'I' for Inactive)
REMARK       I    between atoms: C2_2  and  N1_4 
REMARK    1  A    between atoms: N1_4  and  N2_6 
REMARK    2  A    between atoms: C4_9  and  N4_10 
REMARK    3  A    between atoms: N4_10  and  O2_12 
REMARK    4  A    between atoms: C5_14  and  S1_15 
REMARK    5  A    between atoms: S1_15  and  N5_16 
REMARK    6  A    between atoms: S1_15  and  N6_19 
REMARK    7  A    between atoms: C6_23  and  C7_24 
ROOT
HETATM    1  N2  UNL     1      36.484  -5.264  12.037  1.00  0.00    -0.200 N 
HETATM    2  C3  UNL     1      35.913  -5.051  10.797  1.00  0.00     0.171 A 
HETATM    3  N3  UNL     1      35.551  -3.717  10.454  1.00  0.00    -0.078 NA
HETATM    4  C4  UNL     1      35.691  -6.076   9.900  1.00  0.00     0.120 A 
HETATM    5  C5  UNL     1      36.044  -7.330  10.246  1.00  0.00     0.112 A 
HETATM    6  C6  UNL     1      36.600  -7.595  11.441  1.00  0.00     0.134 A 
HETATM    7  C8  UNL     1      36.809  -6.519  12.324  1.00  0.00     0.286 A 
HETATM    8  O6  UNL     1      37.327  -6.810  13.417  1.00  0.00    -0.265 OA
ENDROOT
BRANCH   5   9
HETATM    9  S1  UNL     1      35.866  -8.813   8.845  1.00  0.00     0.134 S 
HETATM   10  O3  UNL     1      35.613  -8.406   8.014  1.00  0.00    -0.224 OA
BRANCH   9  11
HETATM   11  N5  UNL     1      34.482 -10.105   9.507  1.00  0.00    -0.341 N 
ATOM     12  H52 UNL     1      34.006 -10.053  10.408  1.00  0.00     0.167 HD
ATOM     13  H51 UNL     1      34.349 -10.809   8.782  1.00  0.00     0.167 HD
ENDBRANCH   9  11
BRANCH   9  14
HETATM   14  N6  UNL     1      37.571  -9.808   8.736  1.00  0.00    -0.341 N 
ATOM     15  H62 UNL     1      38.101 -10.141   9.542  1.00  0.00     0.167 HD
ATOM     16  H61 UNL     1      37.825  -9.928   7.756  1.00  0.00     0.167 HD
ENDBRANCH   9  14
ENDBRANCH   5   9
BRANCH   4  17
HETATM   17  N4  UNL     1      35.097  -5.737   8.655  1.00  0.00    -0.264 N 
ATOM     18  H4  UNL     1      34.082  -5.728   8.559  1.00  0.00     0.194 HD
BRANCH  17  19
HETATM   19  O2  UNL     1      35.827  -5.449   7.668  1.00  0.00    -0.289 OA
ATOM     20  H2  UNL     1      35.836  -6.013   6.904  1.00  0.00     0.244 HD
ENDBRANCH  17  19
ENDBRANCH   4  17
BRANCH   6  21
HETATM   21  C7  UNL     1      36.997  -8.924  11.891  1.00  0.00     0.216 C 
HETATM   22  O4  UNL     1      36.107  -9.678  12.364  1.00  0.00    -0.644 OA
HETATM   23  O5  UNL     1      38.315  -9.341  11.800  1.00  0.00    -0.644 OA
ENDBRANCH   6  21
BRANCH   1  24
HETATM   24  N1  UNL     1      36.661  -4.148  12.858  1.00  0.00    -0.259 N 
HETATM   25  C2  UNL     1      37.769  -3.564  13.430  1.00  0.00     0.232 C 
HETATM   26  C1  UNL     1      37.550  -2.312  14.291  1.00  0.00     0.119 C 
HETATM   27  O1  UNL     1      38.945  -3.916  13.343  1.00  0.00    -0.272 OA
ATOM     28  H1  UNL     1      35.790  -3.667  13.080  1.00  0.00     0.190 HD
ENDBRANCH   1  24
TORSDOF 7
ENDMDL
