MODEL 1
REMARK VINA RESULT: -7.790846518      0.000      0.000
REMARK  4 active torsions:
REMARK  status: ('A' for Active; 'I' for Inactive)
REMARK       I    between atoms: C1_4  and  N3_6 
REMARK    1  A    between atoms: N3_6  and  C2_8 
REMARK    2  A    between atoms: C2_8  and  C3_9 
REMARK    3  A    between atoms: C3_9  and  N4_10 
REMARK    4  A    between atoms: C7_22  and  C8_23 
ROOT
HETATM    1  N4  UNL     1      35.157  -2.425  11.735  1.00  0.00    -0.223 N 
ATOM      2  H4  UNL     1      34.150  -2.334  11.870  1.00  0.00     0.177 HD
HETATM    3  C4  UNL     1      35.909  -1.439  12.055  1.00  0.00     0.695 A 
HETATM    4  N5  UNL     1      35.593  -0.240  12.563  1.00  0.00    -0.170 N 
ATOM      5  H5  UNL     1      34.648   0.075  12.782  1.00  0.00     0.186 HD
HETATM    6  C5  UNL     1      36.702   0.477  12.739  1.00  0.00     0.187 A 
HETATM    7  C6  UNL     1      36.913   1.742  13.222  1.00  0.00     0.177 A 
HETATM    8  N6  UNL     1      35.870   2.584  13.661  1.00  0.00    -0.077 NA
HETATM    9  N7  UNL     1      38.165   2.209  13.285  1.00  0.00    -0.283 N 
ATOM     10  H7  UNL     1      38.353   3.147  13.640  1.00  0.00     0.188 HD
HETATM   11  N8  UNL     1      39.134   1.447  12.885  1.00  0.00    -0.281 N 
ATOM     12  H8  UNL     1      40.081   1.821  12.939  1.00  0.00     0.188 HD
HETATM   13  C7  UNL     1      38.983   0.176  12.394  1.00  0.00     0.172 A 
HETATM   14  N11 UNL     1      37.745  -0.302  12.326  1.00  0.00    -0.202 N 
HETATM   15  N12 UNL     1      37.270  -1.446  11.917  1.00  0.00    -0.122 N 
ATOM     16  H12 UNL     1      37.825  -2.221  11.553  1.00  0.00     0.206 HD
ENDROOT
BRANCH   1  17
HETATM   17  C3  UNL     1      35.672  -3.655  11.195  1.00  0.00     0.157 C 
BRANCH  17  18
HETATM   18  C2  UNL     1      35.331  -4.791  12.149  1.00  0.00     0.142 C 
BRANCH  18  19
HETATM   19  N3  UNL     1      33.912  -4.952  12.272  1.00  0.00    -0.363 N 
HETATM   20  C1  UNL     1      33.289  -6.212  12.471  1.00  0.00     0.181 C 
HETATM   21  N1  UNL     1      32.259  -6.578  11.779  1.00  0.00    -0.374 N 
HETATM   22  N2  UNL     1      33.788  -7.120  13.456  1.00  0.00    -0.064 NA
ATOM     23  H12 UNL     1      31.812  -7.483  11.922  1.00  0.00     0.158 HD
ATOM     24  H11 UNL     1      31.903  -5.930  11.076  1.00  0.00     0.158 HD
ATOM     25  H3  UNL     1      33.322  -4.122  12.213  1.00  0.00     0.162 HD
ENDBRANCH  18  19
ENDBRANCH  17  18
ENDBRANCH   1  17
BRANCH  13  26
HETATM   26  C8  UNL     1      40.197  -0.525  11.996  1.00  0.00     0.095 A 
HETATM   27  C9  UNL     1      40.941  -1.243  12.937  1.00  0.00     0.124 A 
HETATM   28  N9  UNL     1      42.059  -1.895  12.592  1.00  0.00    -0.340 N 
HETATM   29  C10 UNL     1      42.525  -1.894  11.324  1.00  0.00     0.203 A 
ATOM     30  H9  UNL     1      42.574  -2.409  13.307  1.00  0.00     0.167 HD
HETATM   31  F1  UNL     1      43.667  -2.564  10.987  1.00  0.00    -0.185 F 
HETATM   32  C11 UNL     1      41.797  -1.190  10.392  1.00  0.00     0.150 A 
HETATM   33  N10 UNL     1      40.680  -0.543  10.757  1.00  0.00    -0.357 N 
ATOM     34  H10 UNL     1      40.168  -0.032  10.037  1.00  0.00     0.165 HD
ENDBRANCH  13  26
TORSDOF 4
ENDMDL
MODEL 2
REMARK VINA RESULT: -7.282454405      3.488      6.900
REMARK  4 active torsions:
REMARK  status: ('A' for Active; 'I' for Inactive)
REMARK       I    between atoms: C1_4  and  N3_6 
REMARK    1  A    between atoms: N3_6  and  C2_8 
REMARK    2  A    between atoms: C2_8  and  C3_9 
REMARK    3  A    between atoms: C3_9  and  N4_10 
REMARK    4  A    between atoms: C7_22  and  C8_23 
ROOT
HETATM    1  N4  UNL     1      37.663   1.204  12.431  1.00  0.00    -0.223 N 
ATOM      2  H4  UNL     1      37.296   1.687  11.611  1.00  0.00     0.177 HD
HETATM    3  C4  UNL     1      37.306  -0.009  12.639  1.00  0.00     0.695 A 
HETATM    4  N5  UNL     1      36.489  -0.803  11.932  1.00  0.00    -0.170 N 
ATOM      5  H5  UNL     1      36.007  -0.535  11.074  1.00  0.00     0.186 HD
HETATM    6  C5  UNL     1      36.404  -1.994  12.523  1.00  0.00     0.187 A 
HETATM    7  C6  UNL     1      35.712  -3.132  12.202  1.00  0.00     0.177 A 
HETATM    8  N6  UNL     1      34.884  -3.237  11.064  1.00  0.00    -0.077 NA
HETATM    9  N7  UNL     1      35.821  -4.201  13.000  1.00  0.00    -0.283 N 
ATOM     10  H7  UNL     1      35.318  -5.062  12.786  1.00  0.00     0.188 HD
HETATM   11  N8  UNL     1      36.578  -4.119  14.049  1.00  0.00    -0.281 N 
ATOM     12  H8  UNL     1      36.647  -4.944  14.645  1.00  0.00     0.188 HD
HETATM   13  C7  UNL     1      37.293  -3.010  14.418  1.00  0.00     0.172 A 
HETATM   14  N11 UNL     1      37.195  -1.941  13.635  1.00  0.00    -0.202 N 
HETATM   15  N12 UNL     1      37.732  -0.754  13.704  1.00  0.00    -0.122 N 
ATOM     16  H12 UNL     1      38.368  -0.433  14.434  1.00  0.00     0.206 HD
ENDROOT
BRANCH   1  17
HETATM   17  C3  UNL     1      38.560   1.913  13.304  1.00  0.00     0.157 C 
BRANCH  17  18
HETATM   18  C2  UNL     1      38.537   3.390  12.937  1.00  0.00     0.142 C 
BRANCH  18  19
HETATM   19  N3  UNL     1      37.829   4.155  13.922  1.00  0.00    -0.363 N 
HETATM   20  C1  UNL     1      36.416   4.300  13.922  1.00  0.00     0.181 C 
HETATM   21  N1  UNL     1      35.852   5.453  14.078  1.00  0.00    -0.374 N 
HETATM   22  N2  UNL     1      35.570   3.161  13.748  1.00  0.00    -0.064 NA
ATOM     23  H12 UNL     1      34.838   5.557  14.078  1.00  0.00     0.158 HD
ATOM     24  H11 UNL     1      36.456   6.266  14.202  1.00  0.00     0.158 HD
ATOM     25  H3  UNL     1      38.365   4.615  14.656  1.00  0.00     0.162 HD
ENDBRANCH  18  19
ENDBRANCH  17  18
ENDBRANCH   1  17
BRANCH  13  26
HETATM   26  C8  UNL     1      38.089  -3.113  15.633  1.00  0.00     0.095 A 
HETATM   27  C9  UNL     1      39.215  -3.943  15.673  1.00  0.00     0.124 A 
HETATM   28  N9  UNL     1      39.961  -4.052  16.780  1.00  0.00    -0.340 N 
HETATM   29  C10 UNL     1      39.669  -3.372  17.910  1.00  0.00     0.203 A 
ATOM     30  H9  UNL     1      40.775  -4.667  16.770  1.00  0.00     0.167 HD
HETATM   31  F1  UNL     1      40.441  -3.494  19.031  1.00  0.00    -0.185 F 
HETATM   32  C11 UNL     1      38.563  -2.554  17.877  1.00  0.00     0.150 A 
HETATM   33  N10 UNL     1      37.827  -2.457  16.760  1.00  0.00    -0.357 N 
ATOM     34  H10 UNL     1      37.015  -1.840  16.775  1.00  0.00     0.165 HD
ENDBRANCH  13  26
TORSDOF 4
ENDMDL
MODEL 3
REMARK VINA RESULT: -7.160336784      4.322      8.172
REMARK  4 active torsions:
REMARK  status: ('A' for Active; 'I' for Inactive)
REMARK       I    between atoms: C1_4  and  N3_6 
REMARK    1  A    between atoms: N3_6  and  C2_8 
REMARK    2  A    between atoms: C2_8  and  C3_9 
REMARK    3  A    between atoms: C3_9  and  N4_10 
REMARK    4  A    between atoms: C7_22  and  C8_23 
ROOT
HETATM    1  N4  UNL     1      38.072  -8.865  11.688  1.00  0.00    -0.223 N 
ATOM      2  H4  UNL     1      38.201  -9.873  11.592  1.00  0.00     0.177 HD
HETATM    3  C4  UNL     1      36.879  -8.402  11.734  1.00  0.00     0.695 A 
HETATM    4  N5  UNL     1      35.701  -9.038  11.675  1.00  0.00    -0.170 N 
ATOM      5  H5  UNL     1      35.582 -10.047  11.580  1.00  0.00     0.186 HD
HETATM    6  C5  UNL     1      34.710  -8.152  11.759  1.00  0.00     0.187 A 
HETATM    7  C6  UNL     1      33.348  -8.292  11.748  1.00  0.00     0.177 A 
HETATM    8  N6  UNL     1      32.701  -9.541  11.632  1.00  0.00    -0.077 NA
HETATM    9  N7  UNL     1      32.584  -7.198  11.852  1.00  0.00    -0.283 N 
ATOM     10  H7  UNL     1      31.567  -7.271  11.847  1.00  0.00     0.188 HD
HETATM   11  N8  UNL     1      33.164  -6.043  11.960  1.00  0.00    -0.281 N 
ATOM     12  H8  UNL     1      32.566  -5.221  12.037  1.00  0.00     0.188 HD
HETATM   13  C7  UNL     1      34.520  -5.843  11.978  1.00  0.00     0.172 A 
HETATM   14  N11 UNL     1      35.290  -6.921  11.875  1.00  0.00    -0.202 N 
HETATM   15  N12 UNL     1      36.586  -7.071  11.859  1.00  0.00    -0.122 N 
ATOM     16  H12 UNL     1      37.270  -6.318  11.928  1.00  0.00     0.206 HD
ENDROOT
BRANCH   1  17
HETATM   17  C3  UNL     1      39.238  -8.027  11.766  1.00  0.00     0.157 C 
BRANCH  17  18
HETATM   18  C2  UNL     1      40.293  -8.561  10.806  1.00  0.00     0.142 C 
BRANCH  18  19
HETATM   19  N3  UNL     1      40.106  -8.029   9.488  1.00  0.00    -0.363 N 
HETATM   20  C1  UNL     1      41.117  -8.058   8.490  1.00  0.00     0.181 C 
HETATM   21  N1  UNL     1      41.403  -7.013   7.783  1.00  0.00    -0.374 N 
HETATM   22  N2  UNL     1      41.851  -9.257   8.237  1.00  0.00    -0.064 NA
ATOM     23  H12 UNL     1      42.129  -7.034   7.067  1.00  0.00     0.158 HD
ATOM     24  H11 UNL     1      40.879  -6.157   7.964  1.00  0.00     0.158 HD
ATOM     25  H3  UNL     1      39.206  -7.609   9.257  1.00  0.00     0.162 HD
ENDBRANCH  18  19
ENDBRANCH  17  18
ENDBRANCH   1  17
BRANCH  13  26
HETATM   26  C8  UNL     1      34.981  -4.468  12.107  1.00  0.00     0.095 A 
HETATM   27  C9  UNL     1      35.393  -3.973  13.349  1.00  0.00     0.124 A 
HETATM   28  N9  UNL     1      35.822  -2.711  13.490  1.00  0.00    -0.340 N 
HETATM   29  C10 UNL     1      35.878  -1.855  12.447  1.00  0.00     0.203 A 
ATOM     30  H9  UNL     1      36.115  -2.388  14.412  1.00  0.00     0.167 HD
HETATM   31  F1  UNL     1      36.317  -0.571  12.607  1.00  0.00    -0.185 F 
HETATM   32  C11 UNL     1      35.474  -2.335  11.222  1.00  0.00     0.150 A 
HETATM   33  N10 UNL     1      35.048  -3.601  11.100  1.00  0.00    -0.357 N 
ATOM     34  H10 UNL     1      34.757  -3.920  10.176  1.00  0.00     0.165 HD
ENDBRANCH  13  26
TORSDOF 4
ENDMDL
MODEL 4
REMARK VINA RESULT: -7.156368353      3.513      6.788
REMARK  4 active torsions:
REMARK  status: ('A' for Active; 'I' for Inactive)
REMARK       I    between atoms: C1_4  and  N3_6 
REMARK    1  A    between atoms: N3_6  and  C2_8 
REMARK    2  A    between atoms: C2_8  and  C3_9 
REMARK    3  A    between atoms: C3_9  and  N4_10 
REMARK    4  A    between atoms: C7_22  and  C8_23 
ROOT
HETATM    1  N4  UNL     1      38.857   0.792  11.997  1.00  0.00    -0.223 N 
ATOM      2  H4  UNL     1      38.609   1.266  11.128  1.00  0.00     0.177 HD
HETATM    3  C4  UNL     1      38.214  -0.267  12.321  1.00  0.00     0.695 A 
HETATM    4  N5  UNL     1      37.216  -0.900  11.689  1.00  0.00    -0.170 N 
ATOM      5  H5  UNL     1      36.803  -0.609  10.803  1.00  0.00     0.186 HD
HETATM    6  C5  UNL     1      36.847  -1.968  12.396  1.00  0.00     0.187 A 
HETATM    7  C6  UNL     1      35.890  -2.925  12.184  1.00  0.00     0.177 A 
HETATM    8  N6  UNL     1      35.045  -2.935  11.053  1.00  0.00    -0.077 NA
HETATM    9  N7  UNL     1      35.741  -3.902  13.086  1.00  0.00    -0.283 N 
ATOM     10  H7  UNL     1      35.038  -4.629  12.955  1.00  0.00     0.188 HD
HETATM   11  N8  UNL     1      36.510  -3.906  14.130  1.00  0.00    -0.281 N 
ATOM     12  H8  UNL     1      36.381  -4.657  14.807  1.00  0.00     0.188 HD
HETATM   13  C7  UNL     1      37.483  -2.976  14.394  1.00  0.00     0.172 A 
HETATM   14  N11 UNL     1      37.641  -2.001  13.506  1.00  0.00    -0.202 N 
HETATM   15  N12 UNL     1      38.457  -0.984  13.461  1.00  0.00    -0.122 N 
ATOM     16  H12 UNL     1      39.163  -0.759  14.162  1.00  0.00     0.206 HD
ENDROOT
BRANCH   1  17
HETATM   17  C3  UNL     1      39.914   1.341  12.804  1.00  0.00     0.157 C 
BRANCH  17  18
HETATM   18  C2  UNL     1      39.617   2.811  13.067  1.00  0.00     0.142 C 
BRANCH  18  19
HETATM   19  N3  UNL     1      38.491   2.960  13.941  1.00  0.00    -0.363 N 
HETATM   20  C1  UNL     1      37.256   3.524  13.524  1.00  0.00     0.181 C 
HETATM   21  N1  UNL     1      36.647   4.422  14.229  1.00  0.00    -0.374 N 
HETATM   22  N2  UNL     1      36.645   3.107  12.301  1.00  0.00    -0.064 NA
ATOM     23  H12 UNL     1      35.760   4.827  13.929  1.00  0.00     0.158 HD
ATOM     24  H11 UNL     1      37.083   4.719  15.102  1.00  0.00     0.158 HD
ATOM     25  H3  UNL     1      38.580   2.646  14.907  1.00  0.00     0.162 HD
ENDBRANCH  18  19
ENDBRANCH  17  18
ENDBRANCH   1  17
BRANCH  13  26
HETATM   26  C8  UNL     1      38.246  -3.152  15.622  1.00  0.00     0.095 A 
HETATM   27  C9  UNL     1      37.964  -2.370  16.748  1.00  0.00     0.124 A 
HETATM   28  N9  UNL     1      38.653  -2.516  17.888  1.00  0.00    -0.340 N 
HETATM   29  C10 UNL     1      39.650  -3.420  18.010  1.00  0.00     0.203 A 
ATOM     30  H9  UNL     1      38.418  -1.928  18.687  1.00  0.00     0.167 HD
HETATM   31  F1  UNL     1      40.343  -3.556  19.180  1.00  0.00    -0.185 F 
HETATM   32  C11 UNL     1      39.931  -4.192  16.907  1.00  0.00     0.150 A 
HETATM   33  N10 UNL     1      39.231  -4.032  15.774  1.00  0.00    -0.357 N 
ATOM     34  H10 UNL     1      39.470  -4.623  14.978  1.00  0.00     0.165 HD
ENDBRANCH  13  26
TORSDOF 4
ENDMDL
MODEL 5
REMARK VINA RESULT: -7.150880881      3.726      5.020
REMARK  4 active torsions:
REMARK  status: ('A' for Active; 'I' for Inactive)
REMARK       I    between atoms: C1_4  and  N3_6 
REMARK    1  A    between atoms: N3_6  and  C2_8 
REMARK    2  A    between atoms: C2_8  and  C3_9 
REMARK    3  A    between atoms: C3_9  and  N4_10 
REMARK    4  A    between atoms: C7_22  and  C8_23 
ROOT
HETATM    1  N4  UNL     1      34.540  -6.848  13.421  1.00  0.00    -0.223 N 
ATOM      2  H4  UNL     1      33.812  -7.170  12.783  1.00  0.00     0.177 HD
HETATM    3  C4  UNL     1      34.972  -5.648  13.302  1.00  0.00     0.695 A 
HETATM    4  N5  UNL     1      34.619  -4.683  12.442  1.00  0.00    -0.170 N 
ATOM      5  H5  UNL     1      33.910  -4.775  11.714  1.00  0.00     0.186 HD
HETATM    6  C5  UNL     1      35.335  -3.586  12.684  1.00  0.00     0.187 A 
HETATM    7  C6  UNL     1      35.352  -2.350  12.093  1.00  0.00     0.177 A 
HETATM    8  N6  UNL     1      34.517  -2.000  11.010  1.00  0.00    -0.077 NA
HETATM    9  N7  UNL     1      36.196  -1.422  12.558  1.00  0.00    -0.283 N 
ATOM     10  H7  UNL     1      36.230  -0.493  12.139  1.00  0.00     0.188 HD
HETATM   11  N8  UNL     1      36.970  -1.729  13.553  1.00  0.00    -0.281 N 
ATOM     12  H8  UNL     1      37.607  -1.010  13.893  1.00  0.00     0.188 HD
HETATM   13  C7  UNL     1      36.996  -2.946  14.182  1.00  0.00     0.172 A 
HETATM   14  N11 UNL     1      36.162  -3.877  13.730  1.00  0.00    -0.202 N 
HETATM   15  N12 UNL     1      35.945  -5.110  14.099  1.00  0.00    -0.122 N 
ATOM     16  H12 UNL     1      36.424  -5.594  14.858  1.00  0.00     0.206 HD
ENDROOT
BRANCH   1  17
HETATM   17  C3  UNL     1      35.038  -7.762  14.414  1.00  0.00     0.157 C 
BRANCH  17  18
HETATM   18  C2  UNL     1      34.076  -8.937  14.527  1.00  0.00     0.142 C 
BRANCH  18  19
HETATM   19  N3  UNL     1      33.062  -8.870  13.515  1.00  0.00    -0.363 N 
HETATM   20  C1  UNL     1      32.983  -9.791  12.437  1.00  0.00     0.181 C 
HETATM   21  N1  UNL     1      32.811  -9.396  11.217  1.00  0.00    -0.374 N 
HETATM   22  N2  UNL     1      33.091 -11.196  12.674  1.00  0.00    -0.064 NA
ATOM     23  H12 UNL     1      32.754 -10.057  10.443  1.00  0.00     0.158 HD
ATOM     24  H11 UNL     1      32.733  -8.393  11.048  1.00  0.00     0.158 HD
ATOM     25  H3  UNL     1      32.367  -8.127  13.572  1.00  0.00     0.162 HD
ENDBRANCH  18  19
ENDBRANCH  17  18
ENDBRANCH   1  17
BRANCH  13  26
HETATM   26  C8  UNL     1      37.937  -3.098  15.284  1.00  0.00     0.095 A 
HETATM   27  C9  UNL     1      39.117  -3.829  15.111  1.00  0.00     0.124 A 
HETATM   28  N9  UNL     1      39.996  -3.979  16.111  1.00  0.00    -0.340 N 
HETATM   29  C10 UNL     1      39.791  -3.438  17.331  1.00  0.00     0.203 A 
ATOM     30  H9  UNL     1      40.846  -4.519  15.946  1.00  0.00     0.167 HD
HETATM   31  F1  UNL     1      40.698  -3.601  18.340  1.00  0.00    -0.185 F 
HETATM   32  C11 UNL     1      38.632  -2.718  17.507  1.00  0.00     0.150 A 
HETATM   33  N10 UNL     1      37.763  -2.577  16.495  1.00  0.00    -0.357 N 
ATOM     34  H10 UNL     1      36.916  -2.036  16.665  1.00  0.00     0.165 HD
ENDBRANCH  13  26
TORSDOF 4
ENDMDL
