MODEL 1
REMARK VINA RESULT: -6.068500368      0.000      0.000
REMARK  8 active torsions:
REMARK  status: ('A' for Active; 'I' for Inactive)
REMARK    1  A    between atoms: C4_7  and  C5_8 
REMARK    2  A    between atoms: C5_8  and  N3_9 
REMARK    3  A    between atoms: C5_8  and  C6_13 
REMARK    4  A    between atoms: C5_8  and  C7_20 
REMARK       I    between atoms: C6_13  and  N4_15 
REMARK    5  A    between atoms: N4_15  and  N5_17 
REMARK    6  A    between atoms: C7_20  and  C8_22 
REMARK    7  A    between atoms: C8_22  and  O3_23 
REMARK    8  A    between atoms: C8_22  and  O4_25 
ROOT
HETATM    1  C5  UNL     1      38.189  -0.026  12.770  1.00  0.00     0.312 C 
ENDROOT
BRANCH   1   2
HETATM    2  C4  UNL     1      37.830  -1.188  13.577  1.00  0.00     0.096 A 
HETATM    3  C3  UNL     1      37.049  -2.200  13.102  1.00  0.00     0.104 A 
HETATM    4  N2  UNL     1      36.443  -2.454  11.940  1.00  0.00    -0.347 N 
HETATM    5  C10 UNL     1      36.727  -3.294  13.913  1.00  0.00     0.139 A 
HETATM    6  C2  UNL     1      35.789  -3.616  12.006  1.00  0.00     0.184 A 
ATOM      7  H2  UNL     1      36.475  -1.847  11.120  1.00  0.00     0.167 HD
HETATM    8  N1  UNL     1      35.946  -4.165  13.223  1.00  0.00    -0.332 N 
HETATM    9  C1  UNL     1      35.405  -5.420  13.717  1.00  0.00     0.158 C 
HETATM   10  N7  UNL     1      37.221  -3.291  15.160  1.00  0.00    -0.317 N 
HETATM   11  C9  UNL     1      37.992  -2.311  15.659  1.00  0.00     0.180 A 
ATOM     12  H7  UNL     1      36.998  -4.080  15.766  1.00  0.00     0.170 HD
HETATM   13  N6  UNL     1      38.270  -1.287  14.843  1.00  0.00    -0.331 N 
HETATM   14 CL1  UNL     1      38.620  -2.342  17.298  1.00  0.00    -0.045 Cl
ATOM     15  H6  UNL     1      38.855  -0.534  15.205  1.00  0.00     0.168 HD
ENDBRANCH   1   2
BRANCH   1  16
HETATM   16  N3  UNL     1      37.438   0.053  11.512  1.00  0.00    -0.048 N 
ATOM     17  H33 UNL     1      37.828   0.770  10.900  1.00  0.00     0.276 HD
ATOM     18  H32 UNL     1      37.609  -0.770  10.935  1.00  0.00     0.276 HD
ATOM     19  H31 UNL     1      36.439   0.198  11.652  1.00  0.00     0.276 HD
ENDBRANCH   1  16
BRANCH   1  20
HETATM   20  C6  UNL     1      39.618  -0.182  12.366  1.00  0.00     0.286 C 
HETATM   21  O1  UNL     1      40.115  -1.321  12.408  1.00  0.00    -0.268 OA
HETATM   22  N4  UNL     1      40.392   0.912  11.948  1.00  0.00    -0.274 N 
ATOM     23  H4  UNL     1      39.950   1.831  11.925  1.00  0.00     0.189 HD
BRANCH  22  24
HETATM   24  N5  UNL     1      41.726   0.816  11.563  1.00  0.00    -0.343 N 
ATOM     25  H52 UNL     1      42.396   0.537  12.279  1.00  0.00     0.176 HD
ATOM     26  H51 UNL     1      42.059   1.007  10.618  1.00  0.00     0.176 HD
ENDBRANCH  22  24
ENDBRANCH   1  20
BRANCH   1  27
HETATM   27  C7  UNL     1      38.007   1.216  13.570  1.00  0.00     0.232 C 
HETATM   28  O2  UNL     1      38.829   1.502  14.420  1.00  0.00    -0.289 OA
BRANCH  27  29
HETATM   29  C8  UNL     1      36.856   2.119  13.363  1.00  0.00     0.329 C 
BRANCH  29  30
HETATM   30  O3  UNL     1      35.653   1.387  13.429  1.00  0.00    -0.365 OA
ATOM     31  H3  UNL     1      35.768   0.539  13.017  1.00  0.00     0.213 HD
ENDBRANCH  29  30
BRANCH  29  32
HETATM   32  O4  UNL     1      36.852   2.812  12.181  1.00  0.00    -0.365 OA
ATOM     33  H4  UNL     1      36.414   3.654  12.202  1.00  0.00     0.213 HD
ENDBRANCH  29  32
ENDBRANCH  27  29
ENDBRANCH   1  27
TORSDOF 8
ENDMDL
MODEL 2
REMARK VINA RESULT: -5.832843851      5.550      7.769
REMARK  8 active torsions:
REMARK  status: ('A' for Active; 'I' for Inactive)
REMARK    1  A    between atoms: C4_7  and  C5_8 
REMARK    2  A    between atoms: C5_8  and  N3_9 
REMARK    3  A    between atoms: C5_8  and  C6_13 
REMARK    4  A    between atoms: C5_8  and  C7_20 
REMARK       I    between atoms: C6_13  and  N4_15 
REMARK    5  A    between atoms: N4_15  and  N5_17 
REMARK    6  A    between atoms: C7_20  and  C8_22 
REMARK    7  A    between atoms: C8_22  and  O3_23 
REMARK    8  A    between atoms: C8_22  and  O4_25 
ROOT
HETATM    1  C5  UNL     1      35.017  -6.254  12.716  1.00  0.00     0.312 C 
ENDROOT
BRANCH   1   2
HETATM    2  C4  UNL     1      35.730  -7.215  11.880  1.00  0.00     0.096 A 
HETATM    3  C3  UNL     1      37.084  -7.371  11.931  1.00  0.00     0.104 A 
HETATM    4  N2  UNL     1      38.069  -6.809  12.635  1.00  0.00    -0.347 N 
HETATM    5  C10 UNL     1      37.726  -8.303  11.107  1.00  0.00     0.139 A 
HETATM    6  C2  UNL     1      39.243  -7.341  12.289  1.00  0.00     0.184 A 
ATOM      7  H2  UNL     1      37.943  -6.079  13.337  1.00  0.00     0.167 HD
HETATM    8  N1  UNL     1      39.064  -8.275  11.339  1.00  0.00    -0.332 N 
HETATM    9  C1  UNL     1      40.071  -9.093  10.684  1.00  0.00     0.158 C 
HETATM   10  N7  UNL     1      36.949  -9.020  10.282  1.00  0.00    -0.317 N 
HETATM   11  C9  UNL     1      35.615  -8.892  10.207  1.00  0.00     0.180 A 
ATOM     12  H7  UNL     1      37.400  -9.705   9.675  1.00  0.00     0.170 HD
HETATM   13  N6  UNL     1      35.049  -7.987  11.015  1.00  0.00    -0.331 N 
HETATM   14 CL1  UNL     1      34.632  -9.850   9.114  1.00  0.00    -0.045 Cl
ATOM     15  H6  UNL     1      34.036  -7.876  10.972  1.00  0.00     0.168 HD
ENDBRANCH   1   2
BRANCH   1  16
HETATM   16  N3  UNL     1      35.364  -6.361  14.137  1.00  0.00    -0.048 N 
ATOM     17  H33 UNL     1      36.369  -6.484  14.257  1.00  0.00     0.276 HD
ATOM     18  H32 UNL     1      35.249  -5.463  14.607  1.00  0.00     0.276 HD
ATOM     19  H31 UNL     1      34.846  -7.094  14.621  1.00  0.00     0.276 HD
ENDBRANCH   1  16
BRANCH   1  20
HETATM   20  C6  UNL     1      33.562  -6.584  12.641  1.00  0.00     0.286 C 
HETATM   21  O1  UNL     1      33.137  -7.513  13.350  1.00  0.00    -0.268 OA
HETATM   22  N4  UNL     1      32.686  -5.877  11.803  1.00  0.00    -0.274 N 
ATOM     23  H4  UNL     1      33.069  -5.120  11.237  1.00  0.00     0.189 HD
BRANCH  22  24
HETATM   24  N5  UNL     1      31.324  -6.148  11.700  1.00  0.00    -0.343 N 
ATOM     25  H52 UNL     1      31.051  -7.127  11.623  1.00  0.00     0.176 HD
ATOM     26  H51 UNL     1      30.601  -5.429  11.699  1.00  0.00     0.176 HD
ENDBRANCH  22  24
ENDBRANCH   1  20
BRANCH   1  27
HETATM   27  C7  UNL     1      35.263  -4.874  12.216  1.00  0.00     0.232 C 
HETATM   28  O2  UNL     1      35.025  -4.612  11.052  1.00  0.00    -0.289 OA
BRANCH  27  29
HETATM   29  C8  UNL     1      35.788  -3.806  13.092  1.00  0.00     0.329 C 
BRANCH  29  30
HETATM   30  O3  UNL     1      37.054  -4.175  13.591  1.00  0.00    -0.365 OA
ATOM     31  H3  UNL     1      37.196  -5.105  13.459  1.00  0.00     0.213 HD
ENDBRANCH  29  30
BRANCH  29  32
HETATM   32  O4  UNL     1      35.001  -3.480  14.164  1.00  0.00    -0.365 OA
ATOM     33  H4  UNL     1      34.539  -2.653  14.096  1.00  0.00     0.213 HD
ENDBRANCH  29  32
ENDBRANCH  27  29
ENDBRANCH   1  27
TORSDOF 8
ENDMDL
MODEL 3
REMARK VINA RESULT: -5.774883462      3.605      4.930
REMARK  8 active torsions:
REMARK  status: ('A' for Active; 'I' for Inactive)
REMARK    1  A    between atoms: C4_7  and  C5_8 
REMARK    2  A    between atoms: C5_8  and  N3_9 
REMARK    3  A    between atoms: C5_8  and  C6_13 
REMARK    4  A    between atoms: C5_8  and  C7_20 
REMARK       I    between atoms: C6_13  and  N4_15 
REMARK    5  A    between atoms: N4_15  and  N5_17 
REMARK    6  A    between atoms: C7_20  and  C8_22 
REMARK    7  A    between atoms: C8_22  and  O3_23 
REMARK    8  A    between atoms: C8_22  and  O4_25 
ROOT
HETATM    1  C5  UNL     1      36.360  -3.461  13.155  1.00  0.00     0.312 C 
ENDROOT
BRANCH   1   2
HETATM    2  C4  UNL     1      36.359  -4.872  12.782  1.00  0.00     0.096 A 
HETATM    3  C3  UNL     1      35.211  -5.565  12.533  1.00  0.00     0.104 A 
HETATM    4  N2  UNL     1      33.910  -5.263  12.536  1.00  0.00    -0.347 N 
HETATM    5  C10 UNL     1      35.257  -6.919  12.181  1.00  0.00     0.139 A 
HETATM    6  C2  UNL     1      33.188  -6.337  12.211  1.00  0.00     0.184 A 
ATOM      7  H2  UNL     1      33.525  -4.343  12.754  1.00  0.00     0.167 HD
HETATM    8  N1  UNL     1      33.997  -7.386  11.984  1.00  0.00    -0.332 N 
HETATM    9  C1  UNL     1      33.626  -8.739  11.607  1.00  0.00     0.158 C 
HETATM   10  N7  UNL     1      36.471  -7.484  12.103  1.00  0.00    -0.317 N 
HETATM   11  C9  UNL     1      37.619  -6.832  12.342  1.00  0.00     0.180 A 
ATOM     12  H7  UNL     1      36.524  -8.470  11.848  1.00  0.00     0.170 HD
HETATM   13  N6  UNL     1      37.520  -5.538  12.675  1.00  0.00    -0.331 N 
HETATM   14 CL1  UNL     1      39.190  -7.607  12.230  1.00  0.00    -0.045 Cl
ATOM     15  H6  UNL     1      38.383  -5.026  12.859  1.00  0.00     0.168 HD
ENDBRANCH   1   2
BRANCH   1  16
HETATM   16  N3  UNL     1      35.275  -3.110  14.078  1.00  0.00    -0.048 N 
ATOM     17  H33 UNL     1      35.523  -2.294  14.637  1.00  0.00     0.276 HD
ATOM     18  H32 UNL     1      34.476  -2.729  13.571  1.00  0.00     0.276 HD
ATOM     19  H31 UNL     1      34.990  -3.887  14.673  1.00  0.00     0.276 HD
ENDBRANCH   1  16
BRANCH   1  20
HETATM   20  C6  UNL     1      36.096  -2.667  11.918  1.00  0.00     0.286 C 
HETATM   21  O1  UNL     1      35.454  -3.210  11.002  1.00  0.00    -0.268 OA
HETATM   22  N4  UNL     1      36.550  -1.347  11.776  1.00  0.00    -0.274 N 
ATOM     23  H4  UNL     1      37.072  -0.933  12.548  1.00  0.00     0.189 HD
BRANCH  22  24
HETATM   24  N5  UNL     1      36.329  -0.568  10.643  1.00  0.00    -0.343 N 
ATOM     25  H52 UNL     1      35.694  -0.945   9.939  1.00  0.00     0.176 HD
ATOM     26  H51 UNL     1      36.761   0.342  10.486  1.00  0.00     0.176 HD
ENDBRANCH  22  24
ENDBRANCH   1  20
BRANCH   1  27
HETATM   27  C7  UNL     1      37.682  -3.096  13.734  1.00  0.00     0.232 C 
HETATM   28  O2  UNL     1      38.600  -2.811  12.988  1.00  0.00    -0.289 OA
BRANCH  27  29
HETATM   29  C8  UNL     1      37.916  -3.068  15.193  1.00  0.00     0.329 C 
BRANCH  29  30
HETATM   30  O3  UNL     1      37.646  -4.336  15.747  1.00  0.00    -0.365 OA
ATOM     31  H3  UNL     1      37.224  -4.889  15.099  1.00  0.00     0.213 HD
ENDBRANCH  29  30
BRANCH  29  32
HETATM   32  O4  UNL     1      37.183  -2.148  15.892  1.00  0.00    -0.365 OA
ATOM     33  H4  UNL     1      36.240  -2.232  15.817  1.00  0.00     0.213 HD
ENDBRANCH  29  32
ENDBRANCH  27  29
ENDBRANCH   1  27
TORSDOF 8
ENDMDL
MODEL 4
REMARK VINA RESULT: -5.728079031      6.086      7.835
REMARK  8 active torsions:
REMARK  status: ('A' for Active; 'I' for Inactive)
REMARK    1  A    between atoms: C4_7  and  C5_8 
REMARK    2  A    between atoms: C5_8  and  N3_9 
REMARK    3  A    between atoms: C5_8  and  C6_13 
REMARK    4  A    between atoms: C5_8  and  C7_20 
REMARK       I    between atoms: C6_13  and  N4_15 
REMARK    5  A    between atoms: N4_15  and  N5_17 
REMARK    6  A    between atoms: C7_20  and  C8_22 
REMARK    7  A    between atoms: C8_22  and  O3_23 
REMARK    8  A    between atoms: C8_22  and  O4_25 
ROOT
HETATM    1  C5  UNL     1      38.002   5.686  14.587  1.00  0.00     0.312 C 
ENDROOT
BRANCH   1   2
HETATM    2  C4  UNL     1      38.077   5.527  16.036  1.00  0.00     0.096 A 
HETATM    3  C3  UNL     1      38.822   4.552  16.631  1.00  0.00     0.104 A 
HETATM    4  N2  UNL     1      39.612   3.571  16.188  1.00  0.00    -0.347 N 
HETATM    5  C10 UNL     1      38.862   4.435  18.025  1.00  0.00     0.139 A 
HETATM    6  C2  UNL     1      40.115   2.886  17.218  1.00  0.00     0.184 A 
ATOM      7  H2  UNL     1      39.804   3.373  15.206  1.00  0.00     0.167 HD
HETATM    8  N1  UNL     1      39.667   3.399  18.377  1.00  0.00    -0.332 N 
HETATM    9  C1  UNL     1      39.965   2.957  19.728  1.00  0.00     0.158 C 
HETATM   10  N7  UNL     1      38.140   5.320  18.729  1.00  0.00    -0.317 N 
HETATM   11  C9  UNL     1      37.396   6.291  18.175  1.00  0.00     0.180 A 
ATOM     12  H7  UNL     1      38.157   5.250  19.746  1.00  0.00     0.170 HD
HETATM   13  N6  UNL     1      37.392   6.359  16.838  1.00  0.00    -0.331 N 
HETATM   14 CL1  UNL     1      36.464   7.430  19.130  1.00  0.00    -0.045 Cl
ATOM     15  H6  UNL     1      36.832   7.091  16.400  1.00  0.00     0.168 HD
ENDBRANCH   1   2
BRANCH   1  16
HETATM   16  N3  UNL     1      39.288   6.047  13.981  1.00  0.00    -0.048 N 
ATOM     17  H33 UNL     1      39.164   6.339  13.012  1.00  0.00     0.276 HD
ATOM     18  H32 UNL     1      39.642   6.919  14.374  1.00  0.00     0.276 HD
ATOM     19  H31 UNL     1      39.985   5.307  14.052  1.00  0.00     0.276 HD
ENDBRANCH   1  16
BRANCH   1  20
HETATM   20  C6  UNL     1      37.096   6.840  14.306  1.00  0.00     0.286 C 
HETATM   21  O1  UNL     1      37.544   7.987  14.478  1.00  0.00    -0.268 OA
HETATM   22  N4  UNL     1      35.779   6.655  13.859  1.00  0.00    -0.274 N 
ATOM     23  H4  UNL     1      35.447   5.699  13.728  1.00  0.00     0.189 HD
BRANCH  22  24
HETATM   24  N5  UNL     1      34.899   7.698  13.585  1.00  0.00    -0.343 N 
ATOM     25  H52 UNL     1      34.915   8.080  12.640  1.00  0.00     0.176 HD
ATOM     26  H51 UNL     1      34.253   8.091  14.270  1.00  0.00     0.176 HD
ENDBRANCH  22  24
ENDBRANCH   1  20
BRANCH   1  27
HETATM   27  C7  UNL     1      37.462   4.441  13.973  1.00  0.00     0.232 C 
HETATM   28  O2  UNL     1      36.422   3.972  14.396  1.00  0.00    -0.289 OA
BRANCH  27  29
HETATM   29  C8  UNL     1      38.152   3.755  12.860  1.00  0.00     0.329 C 
BRANCH  29  30
HETATM   30  O3  UNL     1      39.370   3.211  13.314  1.00  0.00    -0.365 OA
ATOM     31  H3  UNL     1      39.210   2.616  14.036  1.00  0.00     0.213 HD
ENDBRANCH  29  30
BRANCH  29  32
HETATM   32  O4  UNL     1      38.428   4.532  11.767  1.00  0.00    -0.365 OA
ATOM     33  H4  UNL     1      38.663   5.433  11.954  1.00  0.00     0.213 HD
ENDBRANCH  29  32
ENDBRANCH  27  29
ENDBRANCH   1  27
TORSDOF 8
ENDMDL
MODEL 5
REMARK VINA RESULT: -5.676692405      7.802      9.696
REMARK  8 active torsions:
REMARK  status: ('A' for Active; 'I' for Inactive)
REMARK    1  A    between atoms: C4_7  and  C5_8 
REMARK    2  A    between atoms: C5_8  and  N3_9 
REMARK    3  A    between atoms: C5_8  and  C6_13 
REMARK    4  A    between atoms: C5_8  and  C7_20 
REMARK       I    between atoms: C6_13  and  N4_15 
REMARK    5  A    between atoms: N4_15  and  N5_17 
REMARK    6  A    between atoms: C7_20  and  C8_22 
REMARK    7  A    between atoms: C8_22  and  O3_23 
REMARK    8  A    between atoms: C8_22  and  O4_25 
ROOT
HETATM    1  C5  UNL     1      41.283   6.351   7.660  1.00  0.00     0.312 C 
ENDROOT
BRANCH   1   2
HETATM    2  C4  UNL     1      42.019   5.765   8.777  1.00  0.00     0.096 A 
HETATM    3  C3  UNL     1      41.397   5.191   9.847  1.00  0.00     0.104 A 
HETATM    4  N2  UNL     1      40.124   4.989  10.197  1.00  0.00    -0.347 N 
HETATM    5  C10 UNL     1      42.143   4.644  10.897  1.00  0.00     0.139 A 
HETATM    6  C2  UNL     1      40.066   4.363  11.374  1.00  0.00     0.184 A 
ATOM      7  H2  UNL     1      39.314   5.271   9.645  1.00  0.00     0.167 HD
HETATM    8  N1  UNL     1      41.306   4.134  11.838  1.00  0.00    -0.332 N 
HETATM    9  C1  UNL     1      41.695   3.482  13.077  1.00  0.00     0.158 C 
HETATM   10  N7  UNL     1      43.478   4.715  10.793  1.00  0.00    -0.317 N 
HETATM   11  C9  UNL     1      44.122   5.272   9.755  1.00  0.00     0.180 A 
ATOM     12  H7  UNL     1      44.038   4.321  11.549  1.00  0.00     0.170 HD
HETATM   13  N6  UNL     1      43.362   5.781   8.777  1.00  0.00    -0.331 N 
HETATM   14 CL1  UNL     1      45.872   5.347   9.656  1.00  0.00    -0.045 Cl
ATOM     15  H6  UNL     1      43.834   6.209   7.980  1.00  0.00     0.168 HD
ENDBRANCH   1   2
BRANCH   1  16
HETATM   16  N3  UNL     1      40.163   5.518   7.211  1.00  0.00    -0.048 N 
ATOM     17  H33 UNL     1      40.091   4.670   7.774  1.00  0.00     0.276 HD
ATOM     18  H32 UNL     1      39.270   5.951   7.445  1.00  0.00     0.276 HD
ATOM     19  H31 UNL     1      40.207   5.292   6.217  1.00  0.00     0.276 HD
ENDBRANCH   1  16
BRANCH   1  20
HETATM   20  C6  UNL     1      42.214   6.421   6.494  1.00  0.00     0.286 C 
HETATM   21  O1  UNL     1      42.935   7.428   6.384  1.00  0.00    -0.268 OA
HETATM   22  N4  UNL     1      42.286   5.392   5.543  1.00  0.00    -0.274 N 
ATOM     23  H4  UNL     1      41.680   4.581   5.667  1.00  0.00     0.189 HD
BRANCH  22  24
HETATM   24  N5  UNL     1      43.137   5.413   4.442  1.00  0.00    -0.343 N 
ATOM     25  H52 UNL     1      44.079   5.772   4.591  1.00  0.00     0.176 HD
ATOM     26  H51 UNL     1      42.869   5.092   3.511  1.00  0.00     0.176 HD
ENDBRANCH  22  24
ENDBRANCH   1  20
BRANCH   1  27
HETATM   27  C7  UNL     1      40.810   7.713   8.031  1.00  0.00     0.232 C 
HETATM   28  O2  UNL     1      41.339   8.294   8.959  1.00  0.00    -0.289 OA
BRANCH  27  29
HETATM   29  C8  UNL     1      39.714   8.386   7.302  1.00  0.00     0.329 C 
BRANCH  29  30
HETATM   30  O3  UNL     1      38.491   7.737   7.569  1.00  0.00    -0.365 OA
ATOM     31  H3  UNL     1      38.189   7.963   8.441  1.00  0.00     0.213 HD
ENDBRANCH  29  30
BRANCH  29  32
HETATM   32  O4  UNL     1      39.859   8.449   5.942  1.00  0.00    -0.365 OA
ATOM     33  H4  UNL     1      39.052   8.507   5.446  1.00  0.00     0.213 HD
ENDBRANCH  29  32
ENDBRANCH  27  29
ENDBRANCH   1  27
TORSDOF 8
ENDMDL
