MODEL 1
REMARK VINA RESULT: -1.951534427      0.000      0.000
REMARK  1 active torsions:
REMARK  status: ('A' for Active; 'I' for Inactive)
REMARK    1  A    between atoms: N1_2  and  C2_5 
ROOT
HETATM    1  C2  UNL     1      26.509 -15.848   8.140  1.00  0.00     0.215 C 
HETATM    2  C3  UNL     1      26.552 -14.337   8.107  1.00  0.00     0.065 C 
HETATM    3  C4  UNL     1      25.067 -14.093   8.444  1.00  0.00     0.274 C 
HETATM    4  N2  UNL     1      24.375 -15.090   7.690  1.00  0.00     0.086 N 
HETATM    5  C5  UNL     1      23.702 -14.486   6.567  1.00  0.00     0.310 C 
HETATM    6  C6  UNL     1      25.324 -16.108   7.268  1.00  0.00     0.304 C 
ENDROOT
BRANCH   1   7
HETATM    7  N1  UNL     1      27.705 -16.523   7.832  1.00  0.00    -0.073 N 
HETATM    8  C1  UNL     1      28.805 -15.579   7.843  1.00  0.00     0.267 C 
ATOM      9  H12 UNL     1      27.644 -17.036   6.953  1.00  0.00     0.277 HD
ATOM     10  H11 UNL     1      27.871 -17.317   8.451  1.00  0.00     0.277 HD
ENDBRANCH   1   7
TORSDOF 1
ENDMDL
MODEL 2
REMARK VINA RESULT: -1.823024990      1.227      1.415
REMARK  1 active torsions:
REMARK  status: ('A' for Active; 'I' for Inactive)
REMARK    1  A    between atoms: N1_2  and  C2_5 
ROOT
HETATM    1  C2  UNL     1      26.494 -14.454   8.149  1.00  0.00     0.215 C 
HETATM    2  C3  UNL     1      25.634 -13.599   7.245  1.00  0.00     0.065 C 
HETATM    3  C4  UNL     1      24.287 -14.282   7.555  1.00  0.00     0.274 C 
HETATM    4  N2  UNL     1      24.610 -15.673   7.605  1.00  0.00     0.086 N 
HETATM    5  C5  UNL     1      24.108 -16.343   6.430  1.00  0.00     0.310 C 
HETATM    6  C6  UNL     1      26.051 -15.820   7.738  1.00  0.00     0.304 C 
ENDROOT
BRANCH   1   7
HETATM    7  N1  UNL     1      27.876 -14.189   8.146  1.00  0.00    -0.073 N 
HETATM    8  C1  UNL     1      28.597 -15.412   7.853  1.00  0.00     0.267 C 
ATOM      9  H12 UNL     1      28.188 -13.755   9.014  1.00  0.00     0.277 HD
ATOM     10  H11 UNL     1      28.124 -13.432   7.509  1.00  0.00     0.277 HD
ENDBRANCH   1   7
TORSDOF 1
ENDMDL
MODEL 3
REMARK VINA RESULT: -1.354894699      1.291      2.041
REMARK  1 active torsions:
REMARK  status: ('A' for Active; 'I' for Inactive)
REMARK    1  A    between atoms: N1_2  and  C2_5 
ROOT
HETATM    1  C2  UNL     1      26.307 -15.721   7.782  1.00  0.00     0.215 C 
HETATM    2  C3  UNL     1      25.267 -15.610   8.874  1.00  0.00     0.065 C 
HETATM    3  C4  UNL     1      24.710 -14.229   8.472  1.00  0.00     0.274 C 
HETATM    4  N2  UNL     1      25.873 -13.478   8.120  1.00  0.00     0.086 N 
HETATM    5  C5  UNL     1      26.166 -12.505   9.142  1.00  0.00     0.310 C 
HETATM    6  C6  UNL     1      26.983 -14.395   7.910  1.00  0.00     0.304 C 
ENDROOT
BRANCH   1   7
HETATM    7  N1  UNL     1      27.119 -16.870   7.794  1.00  0.00    -0.073 N 
HETATM    8  C1  UNL     1      28.508 -16.476   7.662  1.00  0.00     0.267 C 
ATOM      9  H12 UNL     1      26.840 -17.548   7.086  1.00  0.00     0.277 HD
ATOM     10  H11 UNL     1      26.959 -17.449   8.619  1.00  0.00     0.277 HD
ENDBRANCH   1   7
TORSDOF 1
ENDMDL
MODEL 4
REMARK VINA RESULT: -0.739609928      0.757      3.649
REMARK  1 active torsions:
REMARK  status: ('A' for Active; 'I' for Inactive)
REMARK    1  A    between atoms: N1_2  and  C2_5 
ROOT
HETATM    1  C2  UNL     1      25.184 -14.952   8.004  1.00  0.00     0.215 C 
HETATM    2  C3  UNL     1      25.512 -16.254   7.308  1.00  0.00     0.065 C 
HETATM    3  C4  UNL     1      26.667 -16.684   8.234  1.00  0.00     0.274 C 
HETATM    4  N2  UNL     1      27.384 -15.471   8.474  1.00  0.00     0.086 N 
HETATM    5  C5  UNL     1      28.630 -15.477   7.748  1.00  0.00     0.310 C 
HETATM    6  C6  UNL     1      26.545 -14.343   8.102  1.00  0.00     0.304 C 
ENDROOT
BRANCH   1   7
HETATM    7  N1  UNL     1      24.161 -14.169   7.438  1.00  0.00    -0.073 N 
HETATM    8  C1  UNL     1      23.718 -14.782   6.201  1.00  0.00     0.267 C 
ATOM      9  H12 UNL     1      24.443 -13.198   7.309  1.00  0.00     0.277 HD
ATOM     10  H11 UNL     1      23.391 -14.011   8.088  1.00  0.00     0.277 HD
ENDBRANCH   1   7
TORSDOF 1
ENDMDL
MODEL 5
REMARK VINA RESULT: -0.714878208      1.680      2.542
REMARK  1 active torsions:
REMARK  status: ('A' for Active; 'I' for Inactive)
REMARK    1  A    between atoms: N1_2  and  C2_5 
ROOT
HETATM    1  C2  UNL     1      25.639 -15.406   7.459  1.00  0.00     0.215 C 
HETATM    2  C3  UNL     1      24.439 -14.495   7.334  1.00  0.00     0.065 C 
HETATM    3  C4  UNL     1      25.215 -13.180   7.118  1.00  0.00     0.274 C 
HETATM    4  N2  UNL     1      26.309 -13.272   8.032  1.00  0.00     0.086 N 
HETATM    5  C5  UNL     1      26.101 -12.381   9.147  1.00  0.00     0.310 C 
HETATM    6  C6  UNL     1      26.452 -14.654   8.463  1.00  0.00     0.304 C 
ENDROOT
BRANCH   1   7
HETATM    7  N1  UNL     1      25.380 -16.765   7.718  1.00  0.00    -0.073 N 
HETATM    8  C1  UNL     1      26.611 -17.421   8.112  1.00  0.00     0.267 C 
ATOM      9  H12 UNL     1      24.929 -17.229   6.930  1.00  0.00     0.277 HD
ATOM     10  H11 UNL     1      24.637 -16.893   8.406  1.00  0.00     0.277 HD
ENDBRANCH   1   7
TORSDOF 1
ENDMDL
