MODEL 1
REMARK VINA RESULT: -3.331011736      0.000      0.000
REMARK  2 active torsions:
REMARK  status: ('A' for Active; 'I' for Inactive)
REMARK    1  A    between atoms: C2_2  and  N1_3 
REMARK    2  A    between atoms: N2_6  and  N3_7 
ROOT
HETATM    1  N1  UNL     1      25.860 -14.873   8.693  1.00  0.00     0.103 N 
HETATM    2  C3  UNL     1      26.771 -14.017   7.944  1.00  0.00     0.290 C 
HETATM    3  C4  UNL     1      28.011 -14.919   8.090  1.00  0.00     0.145 C 
HETATM    4  N2  UNL     1      27.418 -16.086   7.421  1.00  0.00    -0.209 NA
HETATM    5  C5  UNL     1      26.111 -16.158   8.038  1.00  0.00     0.385 C 
ENDROOT
BRANCH   4   6
HETATM    6  N3  UNL     1      28.170 -17.209   7.431  1.00  0.00    -0.362 NA
ATOM      7  H32 UNL     1      28.487 -17.549   8.339  1.00  0.00     0.171 HD
ATOM      8  H31 UNL     1      29.042 -17.159   6.905  1.00  0.00     0.171 HD
ENDBRANCH   4   6
BRANCH   1   9
HETATM    9  C2  UNL     1      24.478 -14.468   8.492  1.00  0.00     0.269 C 
HETATM   10  C1  UNL     1      24.215 -14.641   7.002  1.00  0.00     0.037 C 
ENDBRANCH   1   9
TORSDOF 2
ENDMDL
MODEL 2
REMARK VINA RESULT: -3.110562726      1.284      1.770
REMARK  2 active torsions:
REMARK  status: ('A' for Active; 'I' for Inactive)
REMARK    1  A    between atoms: C2_2  and  N1_3 
REMARK    2  A    between atoms: N2_6  and  N3_7 
ROOT
HETATM    1  N1  UNL     1      25.957 -15.048   7.460  1.00  0.00     0.103 N 
HETATM    2  C3  UNL     1      26.312 -16.262   8.183  1.00  0.00     0.290 C 
HETATM    3  C4  UNL     1      27.751 -16.368   7.643  1.00  0.00     0.145 C 
HETATM    4  N2  UNL     1      28.195 -15.069   8.171  1.00  0.00    -0.209 NA
HETATM    5  C5  UNL     1      27.100 -14.199   7.798  1.00  0.00     0.385 C 
ENDROOT
BRANCH   4   6
HETATM    6  N3  UNL     1      29.439 -14.687   7.808  1.00  0.00    -0.362 NA
ATOM      7  H32 UNL     1      29.815 -15.081   6.946  1.00  0.00     0.171 HD
ATOM      8  H31 UNL     1      30.178 -14.897   8.480  1.00  0.00     0.171 HD
ENDBRANCH   4   6
BRANCH   1   9
HETATM    9  C2  UNL     1      24.729 -14.470   7.981  1.00  0.00     0.269 C 
HETATM   10  C1  UNL     1      23.675 -14.712   6.907  1.00  0.00     0.037 C 
ENDBRANCH   1   9
TORSDOF 2
ENDMDL
MODEL 3
REMARK VINA RESULT: -2.937037883      1.480      2.070
REMARK  2 active torsions:
REMARK  status: ('A' for Active; 'I' for Inactive)
REMARK    1  A    between atoms: C2_2  and  N1_3 
REMARK    2  A    between atoms: N2_6  and  N3_7 
ROOT
HETATM    1  N1  UNL     1      26.202 -14.957   7.639  1.00  0.00     0.103 N 
HETATM    2  C3  UNL     1      26.536 -16.252   8.218  1.00  0.00     0.290 C 
HETATM    3  C4  UNL     1      27.911 -16.393   7.538  1.00  0.00     0.145 C 
HETATM    4  N2  UNL     1      28.488 -15.177   8.131  1.00  0.00    -0.209 NA
HETATM    5  C5  UNL     1      27.426 -14.213   7.940  1.00  0.00     0.385 C 
ENDROOT
BRANCH   4   6
HETATM    6  N3  UNL     1      29.718 -14.839   7.686  1.00  0.00    -0.362 NA
ATOM      7  H32 UNL     1      30.282 -15.577   7.267  1.00  0.00     0.171 HD
ATOM      8  H31 UNL     1      30.352 -14.460   8.390  1.00  0.00     0.171 HD
ENDBRANCH   4   6
BRANCH   1   9
HETATM    9  C2  UNL     1      25.068 -14.357   8.323  1.00  0.00     0.269 C 
HETATM   10  C1  UNL     1      25.662 -13.313   9.261  1.00  0.00     0.037 C 
ENDBRANCH   1   9
TORSDOF 2
ENDMDL
MODEL 4
REMARK VINA RESULT: -2.898344731      1.246      1.345
REMARK  2 active torsions:
REMARK  status: ('A' for Active; 'I' for Inactive)
REMARK    1  A    between atoms: C2_2  and  N1_3 
REMARK    2  A    between atoms: N2_6  and  N3_7 
ROOT
HETATM    1  N1  UNL     1      25.531 -15.488   8.116  1.00  0.00     0.103 N 
HETATM    2  C3  UNL     1      25.778 -14.089   7.792  1.00  0.00     0.290 C 
HETATM    3  C4  UNL     1      27.134 -13.984   8.516  1.00  0.00     0.145 C 
HETATM    4  N2  UNL     1      27.800 -15.026   7.721  1.00  0.00    -0.209 NA
HETATM    5  C5  UNL     1      26.807 -16.080   7.710  1.00  0.00     0.385 C 
ENDROOT
BRANCH   4   6
HETATM    6  N3  UNL     1      29.047 -15.357   8.122  1.00  0.00    -0.362 NA
ATOM      7  H32 UNL     1      29.428 -14.855   8.923  1.00  0.00     0.171 HD
ATOM      8  H31 UNL     1      29.781 -15.234   7.424  1.00  0.00     0.171 HD
ENDBRANCH   4   6
BRANCH   1   9
HETATM    9  C2  UNL     1      24.448 -16.028   7.310  1.00  0.00     0.269 C 
HETATM   10  C1  UNL     1      23.854 -14.834   6.573  1.00  0.00     0.037 C 
ENDBRANCH   1   9
TORSDOF 2
ENDMDL
MODEL 5
REMARK VINA RESULT: -2.554445777      1.731      2.603
REMARK  2 active torsions:
REMARK  status: ('A' for Active; 'I' for Inactive)
REMARK    1  A    between atoms: C2_2  and  N1_3 
REMARK    2  A    between atoms: N2_6  and  N3_7 
ROOT
HETATM    1  N1  UNL     1      25.603 -14.252   7.191  1.00  0.00     0.103 N 
HETATM    2  C3  UNL     1      24.215 -14.667   7.032  1.00  0.00     0.290 C 
HETATM    3  C4  UNL     1      24.512 -16.157   6.774  1.00  0.00     0.145 C 
HETATM    4  N2  UNL     1      25.182 -16.393   8.062  1.00  0.00    -0.209 NA
HETATM    5  C5  UNL     1      26.065 -15.250   8.158  1.00  0.00     0.385 C 
ENDROOT
BRANCH   4   6
HETATM    6  N3  UNL     1      25.735 -17.616   8.216  1.00  0.00    -0.362 NA
ATOM      7  H32 UNL     1      25.677 -18.041   9.141  1.00  0.00     0.171 HD
ATOM      8  H31 UNL     1      26.733 -17.676   8.015  1.00  0.00     0.171 HD
ENDBRANCH   4   6
BRANCH   1   9
HETATM    9  C2  UNL     1      25.687 -12.919   7.765  1.00  0.00     0.269 C 
HETATM   10  C1  UNL     1      26.096 -13.126   9.219  1.00  0.00     0.037 C 
ENDBRANCH   1   9
TORSDOF 2
ENDMDL
