MODEL 1
REMARK VINA RESULT: -2.776980166      0.000      0.000
REMARK  2 active torsions:
REMARK  status: ('A' for Active; 'I' for Inactive)
REMARK    1  A    between atoms: N1_1  and  C1_5 
REMARK    2  A    between atoms: C1_5  and  C2_6 
ROOT
HETATM    1  C2  UNL     1      26.392 -14.994   8.556  1.00  0.00     0.041 C 
HETATM    2  C3  UNL     1      25.707 -13.717   8.086  1.00  0.00     0.045 C 
HETATM    3  C4  UNL     1      24.950 -14.166   6.869  1.00  0.00     0.251 A 
HETATM    4  C5  UNL     1      23.615 -14.797   7.166  1.00  0.00     0.308 A 
HETATM    5  N2  UNL     1      24.779 -15.576   6.936  1.00  0.00     0.097 N 
HETATM    6  C6  UNL     1      25.587 -16.107   7.972  1.00  0.00     0.279 C 
ENDROOT
BRANCH   1   7
HETATM    7  C1  UNL     1      27.807 -14.936   8.043  1.00  0.00     0.236 C 
BRANCH   7   8
HETATM    8  N1  UNL     1      28.327 -16.242   7.688  1.00  0.00    -0.079 N 
ATOM      9  H13 UNL     1      27.638 -16.971   7.870  1.00  0.00     0.274 HD
ATOM     10  H12 UNL     1      28.408 -16.341   6.676  1.00  0.00     0.274 HD
ATOM     11  H11 UNL     1      29.212 -16.451   8.149  1.00  0.00     0.274 HD
ENDBRANCH   7   8
ENDBRANCH   1   7
TORSDOF 2
ENDMDL
MODEL 2
REMARK VINA RESULT: -2.417551415      1.913      2.495
REMARK  2 active torsions:
REMARK  status: ('A' for Active; 'I' for Inactive)
REMARK    1  A    between atoms: N1_1  and  C1_5 
REMARK    2  A    between atoms: C1_5  and  C2_6 
ROOT
HETATM    1  C2  UNL     1      26.185 -14.052   7.843  1.00  0.00     0.041 C 
HETATM    2  C3  UNL     1      25.948 -15.523   8.153  1.00  0.00     0.045 C 
HETATM    3  C4  UNL     1      24.507 -15.721   7.783  1.00  0.00     0.251 A 
HETATM    4  C5  UNL     1      24.271 -15.972   6.316  1.00  0.00     0.308 A 
HETATM    5  N2  UNL     1      24.121 -14.682   6.890  1.00  0.00     0.097 N 
HETATM    6  C6  UNL     1      25.128 -13.684   6.856  1.00  0.00     0.279 C 
ENDROOT
BRANCH   1   7
HETATM    7  C1  UNL     1      26.076 -13.313   9.151  1.00  0.00     0.236 C 
BRANCH   7   8
HETATM    8  N1  UNL     1      26.525 -11.938   9.055  1.00  0.00    -0.079 N 
ATOM      9  H13 UNL     1      27.541 -11.888   8.993  1.00  0.00     0.274 HD
ATOM     10  H12 UNL     1      26.285 -11.536   8.149  1.00  0.00     0.274 HD
ATOM     11  H11 UNL     1      26.176 -11.356   9.817  1.00  0.00     0.274 HD
ENDBRANCH   7   8
ENDBRANCH   1   7
TORSDOF 2
ENDMDL
MODEL 3
REMARK VINA RESULT: -2.202242963      1.644      2.872
REMARK  2 active torsions:
REMARK  status: ('A' for Active; 'I' for Inactive)
REMARK    1  A    between atoms: N1_1  and  C1_5 
REMARK    2  A    between atoms: C1_5  and  C2_6 
ROOT
HETATM    1  C2  UNL     1      24.371 -14.538   7.339  1.00  0.00     0.041 C 
HETATM    2  C3  UNL     1      24.561 -14.583   8.849  1.00  0.00     0.045 C 
HETATM    3  C4  UNL     1      25.972 -14.101   9.028  1.00  0.00     0.251 A 
HETATM    4  C5  UNL     1      26.118 -12.601   9.035  1.00  0.00     0.308 A 
HETATM    5  N2  UNL     1      26.353 -13.372   7.867  1.00  0.00     0.097 N 
HETATM    6  C6  UNL     1      25.389 -13.565   6.845  1.00  0.00     0.279 C 
ENDROOT
BRANCH   1   7
HETATM    7  C1  UNL     1      24.580 -15.943   6.836  1.00  0.00     0.236 C 
BRANCH   7   8
HETATM    8  N1  UNL     1      25.465 -16.714   7.687  1.00  0.00    -0.079 N 
ATOM      9  H13 UNL     1      24.936 -17.332   8.301  1.00  0.00     0.274 HD
ATOM     10  H12 UNL     1      25.974 -17.414   7.148  1.00  0.00     0.274 HD
ATOM     11  H11 UNL     1      26.106 -16.127   8.222  1.00  0.00     0.274 HD
ENDBRANCH   7   8
ENDBRANCH   1   7
TORSDOF 2
ENDMDL
MODEL 4
REMARK VINA RESULT: -2.039518203      1.070      3.330
REMARK  2 active torsions:
REMARK  status: ('A' for Active; 'I' for Inactive)
REMARK    1  A    between atoms: N1_1  and  C1_5 
REMARK    2  A    between atoms: C1_5  and  C2_6 
ROOT
HETATM    1  C2  UNL     1      25.390 -14.762   8.383  1.00  0.00     0.041 C 
HETATM    2  C3  UNL     1      25.910 -16.171   8.133  1.00  0.00     0.045 C 
HETATM    3  C4  UNL     1      27.217 -15.932   7.435  1.00  0.00     0.251 A 
HETATM    4  C5  UNL     1      28.372 -15.648   8.361  1.00  0.00     0.308 A 
HETATM    5  N2  UNL     1      27.649 -14.607   7.722  1.00  0.00     0.097 N 
HETATM    6  C6  UNL     1      26.598 -13.886   8.341  1.00  0.00     0.279 C 
ENDROOT
BRANCH   1   7
HETATM    7  C1  UNL     1      24.393 -14.472   7.291  1.00  0.00     0.236 C 
BRANCH   7   8
HETATM    8  N1  UNL     1      24.073 -15.644   6.501  1.00  0.00    -0.079 N 
ATOM      9  H13 UNL     1      24.573 -16.464   6.844  1.00  0.00     0.274 HD
ATOM     10  H12 UNL     1      23.116 -15.952   6.672  1.00  0.00     0.274 HD
ATOM     11  H11 UNL     1      24.239 -15.504   5.505  1.00  0.00     0.274 HD
ENDBRANCH   7   8
ENDBRANCH   1   7
TORSDOF 2
ENDMDL
MODEL 5
REMARK VINA RESULT: -1.732848039      1.754      1.938
REMARK  2 active torsions:
REMARK  status: ('A' for Active; 'I' for Inactive)
REMARK    1  A    between atoms: N1_1  and  C1_5 
REMARK    2  A    between atoms: C1_5  and  C2_6 
ROOT
HETATM    1  C2  UNL     1      25.584 -14.582   8.699  1.00  0.00     0.041 C 
HETATM    2  C3  UNL     1      24.501 -14.086   7.750  1.00  0.00     0.045 C 
HETATM    3  C4  UNL     1      24.623 -15.017   6.579  1.00  0.00     0.251 A 
HETATM    4  C5  UNL     1      23.900 -16.328   6.750  1.00  0.00     0.308 A 
HETATM    5  N2  UNL     1      25.290 -16.199   7.006  1.00  0.00     0.097 N 
HETATM    6  C6  UNL     1      25.836 -15.998   8.299  1.00  0.00     0.279 C 
ENDROOT
BRANCH   1   7
HETATM    7  C1  UNL     1      26.773 -13.678   8.507  1.00  0.00     0.236 C 
BRANCH   7   8
HETATM    8  N1  UNL     1      26.471 -12.290   8.798  1.00  0.00    -0.079 N 
ATOM      9  H13 UNL     1      26.926 -11.989   9.659  1.00  0.00     0.274 HD
ATOM     10  H12 UNL     1      26.939 -11.667   8.139  1.00  0.00     0.274 HD
ATOM     11  H11 UNL     1      25.469 -12.103   8.828  1.00  0.00     0.274 HD
ENDBRANCH   7   8
ENDBRANCH   1   7
TORSDOF 2
ENDMDL
