MODEL 1
REMARK VINA RESULT: -0.762889301      0.000      0.000
REMARK  4 active torsions:
REMARK  status: ('A' for Active; 'I' for Inactive)
REMARK    1  A    between atoms: N1_2  and  C3_4 
REMARK    2  A    between atoms: C3_4  and  C4_5 
REMARK    3  A    between atoms: C5_6  and  C6_7 
REMARK    4  A    between atoms: C6_7  and  N2_8 
ROOT
HETATM    1  C4  UNL     1      26.386 -14.935   8.310  1.00  0.00    -0.086 C 
HETATM    2  C5  UNL     1      27.563 -15.224   8.137  1.00  0.00    -0.078 C 
ENDROOT
BRANCH   2   3
HETATM    3  C6  UNL     1      28.983 -15.545   7.901  1.00  0.00     0.323 C 
BRANCH   3   4
HETATM    4  N2  UNL     1      29.703 -14.306   7.542  1.00  0.00    -0.069 N 
ATOM      5  H23 UNL     1      29.824 -14.205   6.534  1.00  0.00     0.275 HD
ATOM      6  H22 UNL     1      29.141 -13.470   7.704  1.00  0.00     0.275 HD
ATOM      7  H21 UNL     1      30.590 -14.281   8.044  1.00  0.00     0.275 HD
ENDBRANCH   3   4
ENDBRANCH   2   3
BRANCH   1   8
HETATM    8  C3  UNL     1      24.999 -14.573   8.481  1.00  0.00     0.210 C 
BRANCH   8   9
HETATM    9  N1  UNL     1      24.361 -14.266   7.248  1.00  0.00    -0.411 N 
HETATM   10  C1  UNL     1      25.020 -13.253   6.497  1.00  0.00     0.143 C 
HETATM   11  C2  UNL     1      23.800 -15.345   6.525  1.00  0.00     0.143 C 
ENDBRANCH   8   9
ENDBRANCH   1   8
TORSDOF 4
ENDMDL
MODEL 2
REMARK VINA RESULT: -0.372047260      0.920      1.067
REMARK  4 active torsions:
REMARK  status: ('A' for Active; 'I' for Inactive)
REMARK    1  A    between atoms: N1_2  and  C3_4 
REMARK    2  A    between atoms: C3_4  and  C4_5 
REMARK    3  A    between atoms: C5_6  and  C6_7 
REMARK    4  A    between atoms: C6_7  and  N2_8 
ROOT
HETATM    1  C4  UNL     1      26.448 -16.055   7.914  1.00  0.00    -0.086 C 
HETATM    2  C5  UNL     1      27.665 -15.929   7.911  1.00  0.00    -0.078 C 
ENDROOT
BRANCH   2   3
HETATM    3  C6  UNL     1      29.130 -15.765   7.869  1.00  0.00     0.323 C 
BRANCH   3   4
HETATM    4  N2  UNL     1      29.448 -14.334   7.680  1.00  0.00    -0.069 N 
ATOM      5  H23 UNL     1      28.757 -13.857   7.101  1.00  0.00     0.275 HD
ATOM      6  H22 UNL     1      29.319 -13.792   8.534  1.00  0.00     0.275 HD
ATOM      7  H21 UNL     1      30.392 -14.251   7.305  1.00  0.00     0.275 HD
ENDBRANCH   3   4
ENDBRANCH   2   3
BRANCH   1   8
HETATM    8  C3  UNL     1      25.011 -16.199   7.879  1.00  0.00     0.210 C 
BRANCH   8   9
HETATM    9  N1  UNL     1      24.351 -14.984   7.553  1.00  0.00    -0.411 N 
HETATM   10  C1  UNL     1      24.945 -13.832   8.141  1.00  0.00     0.143 C 
HETATM   11  C2  UNL     1      23.852 -14.852   6.236  1.00  0.00     0.143 C 
ENDBRANCH   8   9
ENDBRANCH   1   8
TORSDOF 4
ENDMDL
MODEL 3
REMARK VINA RESULT: 0.030479970      0.884      1.449
REMARK  4 active torsions:
REMARK  status: ('A' for Active; 'I' for Inactive)
REMARK    1  A    between atoms: N1_2  and  C3_4 
REMARK    2  A    between atoms: C3_4  and  C4_5 
REMARK    3  A    between atoms: C5_6  and  C6_7 
REMARK    4  A    between atoms: C6_7  and  N2_8 
ROOT
HETATM    1  C4  UNL     1      26.558 -15.910   7.813  1.00  0.00    -0.086 C 
HETATM    2  C5  UNL     1      27.775 -15.797   7.876  1.00  0.00    -0.078 C 
ENDROOT
BRANCH   2   3
HETATM    3  C6  UNL     1      29.238 -15.622   7.940  1.00  0.00     0.323 C 
BRANCH   3   4
HETATM    4  N2  UNL     1      29.571 -14.226   7.587  1.00  0.00    -0.069 N 
ATOM      5  H23 UNL     1      28.875 -13.563   7.927  1.00  0.00     0.275 HD
ATOM      6  H22 UNL     1      30.372 -13.874   8.111  1.00  0.00     0.275 HD
ATOM      7  H21 UNL     1      29.708 -14.163   6.579  1.00  0.00     0.275 HD
ENDBRANCH   3   4
ENDBRANCH   2   3
BRANCH   1   8
HETATM    8  C3  UNL     1      25.121 -16.011   7.721  1.00  0.00     0.210 C 
BRANCH   8   9
HETATM    9  N1  UNL     1      24.548 -14.945   6.975  1.00  0.00    -0.411 N 
HETATM   10  C1  UNL     1      23.134 -15.035   6.838  1.00  0.00     0.143 C 
HETATM   11  C2  UNL     1      25.098 -13.656   7.163  1.00  0.00     0.143 C 
ENDBRANCH   8   9
ENDBRANCH   1   8
TORSDOF 4
ENDMDL
MODEL 4
REMARK VINA RESULT: 0.414037933      1.398      4.394
REMARK  4 active torsions:
REMARK  status: ('A' for Active; 'I' for Inactive)
REMARK    1  A    between atoms: N1_2  and  C3_4 
REMARK    2  A    between atoms: C3_4  and  C4_5 
REMARK    3  A    between atoms: C5_6  and  C6_7 
REMARK    4  A    between atoms: C6_7  and  N2_8 
ROOT
HETATM    1  C4  UNL     1      25.951 -14.271   7.900  1.00  0.00    -0.086 C 
HETATM    2  C5  UNL     1      24.854 -14.480   7.398  1.00  0.00    -0.078 C 
ENDROOT
BRANCH   2   3
HETATM    3  C6  UNL     1      23.548 -14.765   6.776  1.00  0.00     0.323 C 
BRANCH   3   4
HETATM    4  N2  UNL     1      23.613 -16.075   6.097  1.00  0.00    -0.069 N 
ATOM      5  H23 UNL     1      23.766 -15.985   5.093  1.00  0.00     0.275 HD
ATOM      6  H22 UNL     1      24.465 -16.589   6.326  1.00  0.00     0.275 HD
ATOM      7  H21 UNL     1      22.770 -16.605   6.316  1.00  0.00     0.275 HD
ENDBRANCH   3   4
ENDBRANCH   2   3
BRANCH   1   8
HETATM    8  C3  UNL     1      27.259 -14.052   8.469  1.00  0.00     0.210 C 
BRANCH   8   9
HETATM    9  N1  UNL     1      28.144 -15.139   8.234  1.00  0.00    -0.411 N 
HETATM   10  C1  UNL     1      27.493 -16.322   7.782  1.00  0.00     0.143 C 
HETATM   11  C2  UNL     1      29.402 -14.837   7.663  1.00  0.00     0.143 C 
ENDBRANCH   8   9
ENDBRANCH   1   8
TORSDOF 4
ENDMDL
MODEL 5
REMARK VINA RESULT: 0.645168778      0.863      1.247
REMARK  4 active torsions:
REMARK  status: ('A' for Active; 'I' for Inactive)
REMARK    1  A    between atoms: N1_2  and  C3_4 
REMARK    2  A    between atoms: C3_4  and  C4_5 
REMARK    3  A    between atoms: C5_6  and  C6_7 
REMARK    4  A    between atoms: C6_7  and  N2_8 
ROOT
HETATM    1  C4  UNL     1      26.228 -14.621   7.952  1.00  0.00    -0.086 C 
HETATM    2  C5  UNL     1      27.400 -14.969   8.025  1.00  0.00    -0.078 C 
ENDROOT
BRANCH   2   3
HETATM    3  C6  UNL     1      28.817 -15.373   8.075  1.00  0.00     0.323 C 
BRANCH   3   4
HETATM    4  N2  UNL     1      29.650 -14.272   7.551  1.00  0.00    -0.069 N 
ATOM      5  H23 UNL     1      30.469 -14.611   7.045  1.00  0.00     0.275 HD
ATOM      6  H22 UNL     1      29.200 -13.778   6.780  1.00  0.00     0.275 HD
ATOM      7  H21 UNL     1      29.899 -13.649   8.318  1.00  0.00     0.275 HD
ENDBRANCH   3   4
ENDBRANCH   2   3
BRANCH   1   8
HETATM    8  C3  UNL     1      24.851 -14.206   7.829  1.00  0.00     0.210 C 
BRANCH   8   9
HETATM    9  N1  UNL     1      24.131 -14.986   6.884  1.00  0.00    -0.411 N 
HETATM   10  C1  UNL     1      24.707 -16.264   6.636  1.00  0.00     0.143 C 
HETATM   11  C2  UNL     1      22.719 -14.911   6.926  1.00  0.00     0.143 C 
ENDBRANCH   8   9
ENDBRANCH   1   8
TORSDOF 4
ENDMDL
