MODEL 1
REMARK VINA RESULT: -6.400281133      0.000      0.000
REMARK  8 active torsions:
REMARK  status: ('A' for Active; 'I' for Inactive)
REMARK    1  A    between atoms: N2_4  and  C1_5 
REMARK    2  A    between atoms: N2_4  and  N8_20 
REMARK    3  A    between atoms: N5_10  and  N6_11 
REMARK    4  A    between atoms: C4_21  and  O3_22 
REMARK    5  A    between atoms: C5_24  and  C6_25 
REMARK    6  A    between atoms: C8_29  and  O6_30 
REMARK    7  A    between atoms: C8_29  and  C9_32 
REMARK    8  A    between atoms: C9_32  and  O7_33 
ROOT
HETATM    1  N1  UNL     1      -0.165  57.968  28.552  1.00  0.00    -0.322 N 
ATOM      2  H11 UNL     1      -0.468  58.941  28.585  1.00  0.00     0.179 HD
ATOM      3  H12 UNL     1      -0.298  57.296  29.308  1.00  0.00     0.179 HD
HETATM    4  N2  UNL     1       0.413  57.587  27.488  1.00  0.00    -0.176 N 
ENDROOT
BRANCH   4   5
HETATM    5  C1  UNL     1       0.836  56.227  27.442  1.00  0.00     0.229 C 
HETATM    6  N3  UNL     1       1.882  55.896  28.113  1.00  0.00    -0.262 N 
HETATM    7  N4  UNL     1       2.564  54.691  28.294  1.00  0.00    -0.216 N 
ATOM      8  H3  UNL     1       2.300  56.676  28.620  1.00  0.00     0.190 HD
HETATM    9  N5  UNL     1       2.417  53.513  27.547  1.00  0.00    -0.134 N 
ATOM     10  H4  UNL     1       3.244  54.665  29.053  1.00  0.00     0.210 HD
HETATM   11  C2  UNL     1       1.462  53.205  26.542  1.00  0.00     0.364 C 
HETATM   12  O1  UNL     1       1.645  52.089  25.991  1.00  0.00    -0.243 OA
HETATM   13  N7  UNL     1       0.373  54.019  26.132  1.00  0.00    -0.269 N 
HETATM   14  C3  UNL     1       0.025  55.326  26.620  1.00  0.00     0.298 C 
ATOM     15  H7  UNL     1      -0.233  53.632  25.408  1.00  0.00     0.174 HD
HETATM   16  O2  UNL     1      -1.113  55.730  26.294  1.00  0.00    -0.264 OA
BRANCH   9  17
HETATM   17  N6  UNL     1       3.329  52.491  27.819  1.00  0.00    -0.319 N 
ATOM     18  H62 UNL     1       3.043  51.851  28.560  1.00  0.00     0.179 HD
ATOM     19  H61 UNL     1       4.179  52.485  27.258  1.00  0.00     0.179 HD
ENDBRANCH   9  17
ENDBRANCH   4   5
BRANCH   4  20
HETATM   20  N8  UNL     1       0.593  58.497  26.465  1.00  0.00    -0.232 N 
HETATM   21  C4  UNL     1       1.701  58.553  25.555  1.00  0.00     0.282 C 
HETATM   22  C5  UNL     1       1.821  60.032  25.320  1.00  0.00     0.069 C 
HETATM   23  C7  UNL     1       0.650  60.609  25.649  1.00  0.00     0.056 C 
HETATM   24  C8  UNL     1      -0.297  59.569  26.113  1.00  0.00     0.193 C 
BRANCH  21  25
HETATM   25  O3  UNL     1       1.471  57.875  24.365  1.00  0.00    -0.371 OA
ATOM     26  H3  UNL     1       1.097  57.011  24.488  1.00  0.00     0.212 HD
ENDBRANCH  21  25
BRANCH  22  27
HETATM   27  C6  UNL     1       3.013  60.690  24.823  1.00  0.00     0.209 C 
HETATM   28  O4  UNL     1       3.381  61.769  25.334  1.00  0.00    -0.644 OA
HETATM   29  O5  UNL     1       3.735  60.122  23.790  1.00  0.00    -0.644 OA
ENDBRANCH  22  27
BRANCH  24  30
HETATM   30  O6  UNL     1      -0.998  60.073  27.196  1.00  0.00    -0.364 OA
ATOM     31  H6  UNL     1      -1.687  59.493  27.498  1.00  0.00     0.213 HD
ENDBRANCH  24  30
BRANCH  24  32
HETATM   32  C9  UNL     1      -1.256  59.193  25.012  1.00  0.00     0.231 C 
BRANCH  32  33
HETATM   33  O7  UNL     1      -0.929  59.746  23.798  1.00  0.00    -0.396 OA
ATOM     34  H7  UNL     1      -1.445  60.515  23.586  1.00  0.00     0.209 HD
ENDBRANCH  32  33
ENDBRANCH  24  32
ENDBRANCH   4  20
TORSDOF 8
ENDMDL
MODEL 2
REMARK VINA RESULT: -6.012427658      0.989      1.057
REMARK  8 active torsions:
REMARK  status: ('A' for Active; 'I' for Inactive)
REMARK    1  A    between atoms: N2_4  and  C1_5 
REMARK    2  A    between atoms: N2_4  and  N8_20 
REMARK    3  A    between atoms: N5_10  and  N6_11 
REMARK    4  A    between atoms: C4_21  and  O3_22 
REMARK    5  A    between atoms: C5_24  and  C6_25 
REMARK    6  A    between atoms: C8_29  and  O6_30 
REMARK    7  A    between atoms: C8_29  and  C9_32 
REMARK    8  A    between atoms: C9_32  and  O7_33 
ROOT
HETATM    1  N1  UNL     1       0.306  57.589  28.612  1.00  0.00    -0.322 N 
ATOM      2  H11 UNL     1       0.307  58.588  28.814  1.00  0.00     0.179 HD
ATOM      3  H12 UNL     1       0.202  56.857  29.314  1.00  0.00     0.179 HD
HETATM    4  N2  UNL     1       0.443  57.254  27.394  1.00  0.00    -0.176 N 
ENDROOT
BRANCH   4   5
HETATM    5  C1  UNL     1       0.441  55.856  27.112  1.00  0.00     0.229 C 
HETATM    6  N3  UNL     1       1.548  55.213  27.234  1.00  0.00    -0.262 N 
HETATM    7  N4  UNL     1       1.906  53.877  27.045  1.00  0.00    -0.216 N 
ATOM      8  H3  UNL     1       2.326  55.802  27.532  1.00  0.00     0.190 HD
HETATM    9  N5  UNL     1       1.161  52.883  26.396  1.00  0.00    -0.134 N 
ATOM     10  H4  UNL     1       2.811  53.593  27.420  1.00  0.00     0.210 HD
HETATM   11  C2  UNL     1      -0.172  52.939  25.909  1.00  0.00     0.364 C 
HETATM   12  O1  UNL     1      -0.532  51.905  25.291  1.00  0.00    -0.243 OA
HETATM   13  N7  UNL     1      -1.082  54.019  26.059  1.00  0.00    -0.269 N 
HETATM   14  C3  UNL     1      -0.843  55.283  26.701  1.00  0.00     0.298 C 
ATOM     15  H7  UNL     1      -2.014  53.883  25.665  1.00  0.00     0.174 HD
HETATM   16  O2  UNL     1      -1.866  55.965  26.932  1.00  0.00    -0.264 OA
BRANCH   9  17
HETATM   17  N6  UNL     1       1.805  51.661  26.193  1.00  0.00    -0.319 N 
ATOM     18  H62 UNL     1       1.227  50.839  26.374  1.00  0.00     0.179 HD
ATOM     19  H61 UNL     1       2.776  51.708  25.888  1.00  0.00     0.179 HD
ENDBRANCH   9  17
ENDBRANCH   4   5
BRANCH   4  20
HETATM   20  N8  UNL     1       0.584  58.244  26.443  1.00  0.00    -0.232 N 
HETATM   21  C4  UNL     1       1.646  58.365  25.486  1.00  0.00     0.282 C 
HETATM   22  C5  UNL     1       1.775  59.858  25.368  1.00  0.00     0.069 C 
HETATM   23  C7  UNL     1       0.629  60.416  25.803  1.00  0.00     0.056 C 
HETATM   24  C8  UNL     1      -0.308  59.350  26.226  1.00  0.00     0.193 C 
BRANCH  21  25
HETATM   25  O3  UNL     1       1.349  57.791  24.256  1.00  0.00    -0.371 OA
ATOM     26  H3  UNL     1       2.054  57.258  23.908  1.00  0.00     0.212 HD
ENDBRANCH  21  25
BRANCH  22  27
HETATM   27  C6  UNL     1       2.949  60.544  24.868  1.00  0.00     0.209 C 
HETATM   28  O4  UNL     1       3.364  61.565  25.455  1.00  0.00    -0.644 OA
HETATM   29  O5  UNL     1       3.603  60.066  23.747  1.00  0.00    -0.644 OA
ENDBRANCH  22  27
BRANCH  24  30
HETATM   30  O6  UNL     1      -0.947  59.768  27.381  1.00  0.00    -0.364 OA
ATOM     31  H6  UNL     1      -1.516  59.106  27.754  1.00  0.00     0.213 HD
ENDBRANCH  24  30
BRANCH  24  32
HETATM   32  C9  UNL     1      -1.326  59.076  25.148  1.00  0.00     0.231 C 
BRANCH  32  33
HETATM   33  O7  UNL     1      -1.081  59.766  23.986  1.00  0.00    -0.396 OA
ATOM     34  H7  UNL     1      -1.677  60.493  23.851  1.00  0.00     0.209 HD
ENDBRANCH  32  33
ENDBRANCH  24  32
ENDBRANCH   4  20
TORSDOF 8
ENDMDL
MODEL 3
REMARK VINA RESULT: -5.982329595      4.388      6.948
REMARK  8 active torsions:
REMARK  status: ('A' for Active; 'I' for Inactive)
REMARK    1  A    between atoms: N2_4  and  C1_5 
REMARK    2  A    between atoms: N2_4  and  N8_20 
REMARK    3  A    between atoms: N5_10  and  N6_11 
REMARK    4  A    between atoms: C4_21  and  O3_22 
REMARK    5  A    between atoms: C5_24  and  C6_25 
REMARK    6  A    between atoms: C8_29  and  O6_30 
REMARK    7  A    between atoms: C8_29  and  C9_32 
REMARK    8  A    between atoms: C9_32  and  O7_33 
ROOT
HETATM    1  N1  UNL     1       0.065  53.512  29.756  1.00  0.00    -0.322 N 
ATOM      2  H11 UNL     1       0.187  53.659  30.757  1.00  0.00     0.179 HD
ATOM      3  H12 UNL     1      -0.838  53.428  29.289  1.00  0.00     0.179 HD
HETATM    4  N2  UNL     1       1.123  53.434  29.058  1.00  0.00    -0.176 N 
ENDROOT
BRANCH   4   5
HETATM    5  C1  UNL     1       0.953  53.229  27.658  1.00  0.00     0.229 C 
HETATM    6  N3  UNL     1       0.813  52.023  27.236  1.00  0.00    -0.262 N 
HETATM    7  N4  UNL     1       0.631  51.466  25.969  1.00  0.00    -0.216 N 
ATOM      8  H3  UNL     1       0.840  51.328  27.982  1.00  0.00     0.190 HD
HETATM    9  N5  UNL     1       0.811  52.098  24.730  1.00  0.00    -0.134 N 
ATOM     10  H4  UNL     1       0.334  50.491  25.941  1.00  0.00     0.210 HD
HETATM   11  C2  UNL     1       1.075  53.466  24.455  1.00  0.00     0.364 C 
HETATM   12  O1  UNL     1       1.275  53.710  23.237  1.00  0.00    -0.243 OA
HETATM   13  N7  UNL     1       1.127  54.525  25.400  1.00  0.00    -0.269 N 
HETATM   14  C3  UNL     1       0.956  54.434  26.825  1.00  0.00     0.298 C 
ATOM     15  H7  UNL     1       1.306  55.456  25.025  1.00  0.00     0.174 HD
HETATM   16  O2  UNL     1       0.791  55.527  27.412  1.00  0.00    -0.264 OA
BRANCH   9  17
HETATM   17  N6  UNL     1       0.723  51.282  23.601  1.00  0.00    -0.319 N 
ATOM     18  H62 UNL     1       1.489  50.616  23.494  1.00  0.00     0.179 HD
ATOM     19  H61 UNL     1      -0.089  51.428  23.001  1.00  0.00     0.179 HD
ENDBRANCH   9  17
ENDBRANCH   4   5
BRANCH   4  20
HETATM   20  N8  UNL     1       2.346  53.548  29.689  1.00  0.00    -0.232 N 
HETATM   21  C4  UNL     1       3.387  52.561  29.721  1.00  0.00     0.282 C 
HETATM   22  C5  UNL     1       3.978  52.792  31.083  1.00  0.00     0.069 C 
HETATM   23  C7  UNL     1       3.637  54.030  31.487  1.00  0.00     0.056 C 
HETATM   24  C8  UNL     1       2.815  54.680  30.440  1.00  0.00     0.193 C 
BRANCH  21  25
HETATM   25  O3  UNL     1       4.341  52.734  28.727  1.00  0.00    -0.371 OA
ATOM     26  H3  UNL     1       4.311  52.064  28.053  1.00  0.00     0.212 HD
ENDBRANCH  21  25
BRANCH  22  27
HETATM   27  C6  UNL     1       4.775  51.823  31.808  1.00  0.00     0.209 C 
HETATM   28  O4  UNL     1       5.810  51.360  31.284  1.00  0.00    -0.644 OA
HETATM   29  O5  UNL     1       4.388  51.418  33.072  1.00  0.00    -0.644 OA
ENDBRANCH  22  27
BRANCH  24  30
HETATM   30  O6  UNL     1       1.795  55.381  31.062  1.00  0.00    -0.364 OA
ATOM     31  H6  UNL     1       1.056  54.834  31.299  1.00  0.00     0.213 HD
ENDBRANCH  24  30
BRANCH  24  32
HETATM   32  C9  UNL     1       3.654  55.622  29.613  1.00  0.00     0.231 C 
BRANCH  32  33
HETATM   33  O7  UNL     1       4.779  56.059  30.267  1.00  0.00    -0.396 OA
ATOM     34  H7  UNL     1       5.560  56.033  29.726  1.00  0.00     0.209 HD
ENDBRANCH  32  33
ENDBRANCH  24  32
ENDBRANCH   4  20
TORSDOF 8
ENDMDL
MODEL 4
REMARK VINA RESULT: -5.784750359      1.642      2.670
REMARK  8 active torsions:
REMARK  status: ('A' for Active; 'I' for Inactive)
REMARK    1  A    between atoms: N2_4  and  C1_5 
REMARK    2  A    between atoms: N2_4  and  N8_20 
REMARK    3  A    between atoms: N5_10  and  N6_11 
REMARK    4  A    between atoms: C4_21  and  O3_22 
REMARK    5  A    between atoms: C5_24  and  C6_25 
REMARK    6  A    between atoms: C8_29  and  O6_30 
REMARK    7  A    between atoms: C8_29  and  C9_32 
REMARK    8  A    between atoms: C9_32  and  O7_33 
ROOT
HETATM    1  N1  UNL     1       1.024  56.020  28.194  1.00  0.00    -0.322 N 
ATOM      2  H11 UNL     1       1.008  56.900  28.709  1.00  0.00     0.179 HD
ATOM      3  H12 UNL     1       1.164  55.104  28.619  1.00  0.00     0.179 HD
HETATM    4  N2  UNL     1       0.853  56.093  26.937  1.00  0.00    -0.176 N 
ENDROOT
BRANCH   4   5
HETATM    5  C1  UNL     1       0.875  54.863  26.217  1.00  0.00     0.229 C 
HETATM    6  N3  UNL     1       0.102  54.746  25.196  1.00  0.00    -0.262 N 
HETATM    7  N4  UNL     1      -0.131  53.716  24.283  1.00  0.00    -0.216 N 
ATOM      8  H3  UNL     1      -0.456  55.580  25.015  1.00  0.00     0.190 HD
HETATM    9  N5  UNL     1       0.261  52.375  24.399  1.00  0.00    -0.134 N 
ATOM     10  H4  UNL     1      -0.644  53.967  23.438  1.00  0.00     0.210 HD
HETATM   11  C2  UNL     1       1.097  51.769  25.374  1.00  0.00     0.364 C 
HETATM   12  O1  UNL     1       1.190  50.520  25.260  1.00  0.00    -0.243 OA
HETATM   13  N7  UNL     1       1.800  52.432  26.415  1.00  0.00    -0.269 N 
HETATM   14  C3  UNL     1       1.792  53.837  26.720  1.00  0.00     0.298 C 
ATOM     15  H7  UNL     1       2.378  51.843  27.016  1.00  0.00     0.174 HD
HETATM   16  O2  UNL     1       2.682  54.215  27.514  1.00  0.00    -0.264 OA
BRANCH   9  17
HETATM   17  N6  UNL     1      -0.232  51.500  23.429  1.00  0.00    -0.319 N 
ATOM     18  H62 UNL     1      -0.350  51.914  22.503  1.00  0.00     0.179 HD
ATOM     19  H61 UNL     1      -0.423  50.547  23.735  1.00  0.00     0.179 HD
ENDBRANCH   9  17
ENDBRANCH   4   5
BRANCH   4  20
HETATM   20  N8  UNL     1       0.663  57.333  26.361  1.00  0.00    -0.232 N 
HETATM   21  C4  UNL     1       1.335  57.851  25.204  1.00  0.00     0.282 C 
HETATM   22  C5  UNL     1       1.419  59.314  25.536  1.00  0.00     0.069 C 
HETATM   23  C7  UNL     1       0.492  59.590  26.472  1.00  0.00     0.056 C 
HETATM   24  C8  UNL     1      -0.247  58.351  26.811  1.00  0.00     0.193 C 
BRANCH  21  25
HETATM   25  O3  UNL     1       0.635  57.646  24.022  1.00  0.00    -0.371 OA
ATOM     26  H3  UNL     1       0.909  56.868  23.551  1.00  0.00     0.212 HD
ENDBRANCH  21  25
BRANCH  22  27
HETATM   27  C6  UNL     1       2.354  60.241  24.929  1.00  0.00     0.209 C 
HETATM   28  O4  UNL     1       3.021  59.883  23.936  1.00  0.00    -0.644 OA
HETATM   29  O5  UNL     1       2.500  61.513  25.451  1.00  0.00    -0.644 OA
ENDBRANCH  22  27
BRANCH  24  30
HETATM   30  O6  UNL     1      -0.452  58.330  28.181  1.00  0.00    -0.364 OA
ATOM     31  H6  UNL     1      -1.272  57.921  28.430  1.00  0.00     0.213 HD
ENDBRANCH  24  30
BRANCH  24  32
HETATM   32  C9  UNL     1      -1.572  58.308  26.093  1.00  0.00     0.231 C 
BRANCH  32  33
HETATM   33  O7  UNL     1      -1.966  57.034  25.764  1.00  0.00    -0.396 OA
ATOM     34  H7  UNL     1      -2.286  56.961  24.873  1.00  0.00     0.209 HD
ENDBRANCH  32  33
ENDBRANCH  24  32
ENDBRANCH   4  20
TORSDOF 8
ENDMDL
MODEL 5
REMARK VINA RESULT: -5.752742336      4.231      6.665
REMARK  8 active torsions:
REMARK  status: ('A' for Active; 'I' for Inactive)
REMARK    1  A    between atoms: N2_4  and  C1_5 
REMARK    2  A    between atoms: N2_4  and  N8_20 
REMARK    3  A    between atoms: N5_10  and  N6_11 
REMARK    4  A    between atoms: C4_21  and  O3_22 
REMARK    5  A    between atoms: C5_24  and  C6_25 
REMARK    6  A    between atoms: C8_29  and  O6_30 
REMARK    7  A    between atoms: C8_29  and  C9_32 
REMARK    8  A    between atoms: C9_32  and  O7_33 
ROOT
HETATM    1  N1  UNL     1      -1.247  53.862  27.123  1.00  0.00    -0.322 N 
ATOM      2  H11 UNL     1      -2.054  53.769  26.507  1.00  0.00     0.179 HD
ATOM      3  H12 UNL     1      -1.264  54.322  28.033  1.00  0.00     0.179 HD
HETATM    4  N2  UNL     1      -0.155  53.360  26.711  1.00  0.00    -0.176 N 
ENDROOT
BRANCH   4   5
HETATM    5  C1  UNL     1       0.973  53.489  27.572  1.00  0.00     0.229 C 
HETATM    6  N3  UNL     1       1.192  52.553  28.427  1.00  0.00    -0.262 N 
HETATM    7  N4  UNL     1       2.173  52.354  29.400  1.00  0.00    -0.216 N 
ATOM      8  H3  UNL     1       0.506  51.800  28.385  1.00  0.00     0.190 HD
HETATM    9  N5  UNL     1       3.086  53.299  29.891  1.00  0.00    -0.134 N 
ATOM     10  H4  UNL     1       2.232  51.417  29.798  1.00  0.00     0.210 HD
HETATM   11  C2  UNL     1       3.337  54.620  29.434  1.00  0.00     0.364 C 
HETATM   12  O1  UNL     1       4.160  55.254  30.142  1.00  0.00    -0.243 OA
HETATM   13  N7  UNL     1       2.759  55.246  28.298  1.00  0.00    -0.269 N 
HETATM   14  C3  UNL     1       1.785  54.695  27.396  1.00  0.00     0.298 C 
ATOM     15  H7  UNL     1       3.071  56.197  28.100  1.00  0.00     0.174 HD
HETATM   16  O2  UNL     1       1.622  55.336  26.333  1.00  0.00    -0.264 OA
BRANCH   9  17
HETATM   17  N6  UNL     1       3.863  52.899  30.980  1.00  0.00    -0.319 N 
ATOM     18  H62 UNL     1       3.366  52.344  31.677  1.00  0.00     0.179 HD
ATOM     19  H61 UNL     1       4.837  53.198  30.972  1.00  0.00     0.179 HD
ENDBRANCH   9  17
ENDBRANCH   4   5
BRANCH   4  20
HETATM   20  N8  UNL     1      -0.132  52.737  25.480  1.00  0.00    -0.232 N 
HETATM   21  C4  UNL     1      -0.400  53.345  24.208  1.00  0.00     0.282 C 
HETATM   22  C5  UNL     1      -1.047  52.211  23.464  1.00  0.00     0.069 C 
HETATM   23  C7  UNL     1      -0.708  51.058  24.071  1.00  0.00     0.056 C 
HETATM   24  C8  UNL     1       0.166  51.353  25.231  1.00  0.00     0.193 C 
BRANCH  21  25
HETATM   25  O3  UNL     1       0.745  53.782  23.554  1.00  0.00    -0.371 OA
ATOM     26  H3  UNL     1       0.661  54.656  23.189  1.00  0.00     0.212 HD
ENDBRANCH  21  25
BRANCH  22  27
HETATM   27  C6  UNL     1      -1.888  52.370  22.294  1.00  0.00     0.209 C 
HETATM   28  O4  UNL     1      -2.005  51.425  21.486  1.00  0.00    -0.644 OA
HETATM   29  O5  UNL     1      -2.555  53.561  22.081  1.00  0.00    -0.644 OA
ENDBRANCH  22  27
BRANCH  24  30
HETATM   30  O6  UNL     1      -0.204  50.521  26.275  1.00  0.00    -0.364 OA
ATOM     31  H6  UNL     1      -0.917  49.935  26.050  1.00  0.00     0.213 HD
ENDBRANCH  24  30
BRANCH  24  32
HETATM   32  C9  UNL     1       1.614  51.121  24.880  1.00  0.00     0.231 C 
BRANCH  32  33
HETATM   33  O7  UNL     1       1.799  50.746  23.572  1.00  0.00    -0.396 OA
ATOM     34  H7  UNL     1       2.695  50.855  23.275  1.00  0.00     0.209 HD
ENDBRANCH  32  33
ENDBRANCH  24  32
ENDBRANCH   4  20
TORSDOF 8
ENDMDL
