MODEL 1
REMARK VINA RESULT: -6.048383393      0.000      0.000
REMARK  9 active torsions:
REMARK  status: ('A' for Active; 'I' for Inactive)
REMARK    1  A    between atoms: C2_2  and  N1_3 
REMARK    2  A    between atoms: C2_2  and  C3_7 
REMARK    3  A    between atoms: C4_11  and  N3_12 
REMARK    4  A    between atoms: C5_18  and  C6_19 
REMARK    5  A    between atoms: C6_19  and  N5_20 
REMARK    6  A    between atoms: C7_23  and  C8_24 
REMARK    7  A    between atoms: C9_27  and  N8_28 
REMARK    8  A    between atoms: N8_28  and  O2_30 
REMARK    9  A    between atoms: C11_36  and  O4_37 
ROOT
HETATM    1  C3  UNL     1       2.799  52.967  30.298  1.00  0.00     0.254 C 
HETATM    2  N2  UNL     1       1.516  53.078  30.927  1.00  0.00    -0.020 N 
ATOM      3  H21 UNL     1       1.450  53.936  31.474  1.00  0.00     0.282 HD
ATOM      4  H22 UNL     1       1.418  52.395  31.679  1.00  0.00     0.282 HD
HETATM    5  C4  UNL     1       0.421  52.976  29.989  1.00  0.00     0.483 C 
HETATM    6  N4  UNL     1       0.573  54.076  29.048  1.00  0.00    -0.344 N 
ATOM      7  H4  UNL     1      -0.238  54.649  28.813  1.00  0.00     0.163 HD
HETATM    8  C5  UNL     1       1.705  54.339  28.510  1.00  0.00     0.036 C 
HETATM    9  C11 UNL     1       2.854  53.472  28.889  1.00  0.00     0.198 C 
ENDROOT
BRANCH   8  10
HETATM   10  C6  UNL     1       1.899  55.457  27.544  1.00  0.00     0.209 C 
BRANCH  10  11
HETATM   11  N5  UNL     1       1.467  55.091  26.210  1.00  0.00    -0.236 N 
HETATM   12  N6  UNL     1       1.208  53.811  25.903  1.00  0.00    -0.286 N 
HETATM   13  C7  UNL     1       0.807  53.439  24.676  1.00  0.00     0.159 A 
ATOM     14  H6  UNL     1       1.319  53.098  26.623  1.00  0.00     0.187 HD
HETATM   15  C9  UNL     1       0.668  54.433  23.732  1.00  0.00     0.163 A 
HETATM   16  N9  UNL     1       0.938  55.724  24.068  1.00  0.00    -0.290 N 
HETATM   17  C10 UNL     1       1.339  56.078  25.303  1.00  0.00     0.343 A 
ATOM     18  H9  UNL     1       0.832  56.450  23.359  1.00  0.00     0.172 HD
HETATM   19  O3  UNL     1       1.578  57.285  25.574  1.00  0.00    -0.245 OA
BRANCH  13  20
HETATM   20  C8  UNL     1       0.521  52.046  24.332  1.00  0.00     0.286 C 
HETATM   21  N7  UNL     1       1.536  51.209  23.786  1.00  0.00    -0.056 NA
HETATM   22  O1  UNL     1      -0.610  51.564  24.506  1.00  0.00    -0.269 OA
ENDBRANCH  13  20
BRANCH  15  23
HETATM   23  N8  UNL     1       0.283  54.095  22.546  1.00  0.00    -0.251 N 
ATOM     24  H8  UNL     1      -0.301  53.273  22.390  1.00  0.00     0.196 HD
BRANCH  23  25
HETATM   25  O2  UNL     1       0.694  54.890  21.503  1.00  0.00    -0.288 OA
ATOM     26  H2  UNL     1       1.051  54.452  20.739  1.00  0.00     0.244 HD
ENDBRANCH  23  25
ENDBRANCH  15  23
ENDBRANCH  10  11
ENDBRANCH   8  10
BRANCH   9  27
HETATM   27  O4  UNL     1       2.959  52.363  28.034  1.00  0.00    -0.388 OA
ATOM     28  H4  UNL     1       3.785  51.929  28.216  1.00  0.00     0.210 HD
ENDBRANCH   9  27
BRANCH   5  29
HETATM   29  N3  UNL     1       0.321  51.708  29.343  1.00  0.00    -0.033 N 
ATOM     30  H33 UNL     1       1.034  51.620  28.619  1.00  0.00     0.278 HD
ATOM     31  H32 UNL     1       0.619  50.962  29.971  1.00  0.00     0.278 HD
ATOM     32  H31 UNL     1      -0.603  51.506  28.961  1.00  0.00     0.278 HD
ENDBRANCH   5  29
BRANCH   1  33
HETATM   33  C2  UNL     1       3.836  53.677  31.164  1.00  0.00     0.213 C 
HETATM   34  C1  UNL     1       4.448  52.751  32.171  1.00  0.00     0.042 C 
BRANCH  33  35
HETATM   35  N1  UNL     1       3.332  54.876  31.761  1.00  0.00    -0.073 N 
ATOM     36  H13 UNL     1       3.002  55.529  31.050  1.00  0.00     0.274 HD
ATOM     37  H12 UNL     1       2.451  54.702  32.245  1.00  0.00     0.274 HD
ATOM     38  H11 UNL     1       4.011  55.319  32.379  1.00  0.00     0.274 HD
ENDBRANCH  33  35
ENDBRANCH   1  33
TORSDOF 9
ENDMDL
MODEL 2
REMARK VINA RESULT: -5.809463482      1.418      2.582
REMARK  9 active torsions:
REMARK  status: ('A' for Active; 'I' for Inactive)
REMARK    1  A    between atoms: C2_2  and  N1_3 
REMARK    2  A    between atoms: C2_2  and  C3_7 
REMARK    3  A    between atoms: C4_11  and  N3_12 
REMARK    4  A    between atoms: C5_18  and  C6_19 
REMARK    5  A    between atoms: C6_19  and  N5_20 
REMARK    6  A    between atoms: C7_23  and  C8_24 
REMARK    7  A    between atoms: C9_27  and  N8_28 
REMARK    8  A    between atoms: N8_28  and  O2_30 
REMARK    9  A    between atoms: C11_36  and  O4_37 
ROOT
HETATM    1  C3  UNL     1       0.889  53.160  29.766  1.00  0.00     0.254 C 
HETATM    2  N2  UNL     1       2.037  52.380  29.407  1.00  0.00    -0.020 N 
ATOM      3  H21 UNL     1       1.902  51.924  28.505  1.00  0.00     0.282 HD
ATOM      4  H22 UNL     1       2.116  51.553  29.999  1.00  0.00     0.282 HD
HETATM    5  C4  UNL     1       3.263  53.146  29.422  1.00  0.00     0.483 C 
HETATM    6  N4  UNL     1       3.101  54.211  28.443  1.00  0.00    -0.344 N 
ATOM      7  H4  UNL     1       3.850  54.396  27.775  1.00  0.00     0.163 HD
HETATM    8  C5  UNL     1       2.035  54.921  28.402  1.00  0.00     0.036 C 
HETATM    9  C11 UNL     1       0.975  54.609  29.398  1.00  0.00     0.198 C 
ENDROOT
BRANCH   8  10
HETATM   10  C6  UNL     1       1.834  56.019  27.414  1.00  0.00     0.209 C 
BRANCH  10  11
HETATM   11  N5  UNL     1       1.423  55.506  26.123  1.00  0.00    -0.236 N 
HETATM   12  N6  UNL     1       1.170  54.199  25.955  1.00  0.00    -0.286 N 
HETATM   13  C7  UNL     1       0.789  53.692  24.771  1.00  0.00     0.159 A 
ATOM     14  H6  UNL     1       1.271  53.571  26.752  1.00  0.00     0.187 HD
HETATM   15  C9  UNL     1       0.665  54.576  23.720  1.00  0.00     0.163 A 
HETATM   16  N9  UNL     1       0.928  55.896  23.916  1.00  0.00    -0.290 N 
HETATM   17  C10 UNL     1       1.310  56.386  25.110  1.00  0.00     0.343 A 
ATOM     18  H9  UNL     1       0.833  56.539  23.129  1.00  0.00     0.172 HD
HETATM   19  O3  UNL     1       1.544  57.616  25.249  1.00  0.00    -0.245 OA
BRANCH  13  20
HETATM   20  C8  UNL     1       0.510  52.269  24.579  1.00  0.00     0.286 C 
HETATM   21  N7  UNL     1       1.375  51.459  23.789  1.00  0.00    -0.056 NA
HETATM   22  O1  UNL     1      -0.485  51.737  25.097  1.00  0.00    -0.269 OA
ENDBRANCH  13  20
BRANCH  15  23
HETATM   23  N8  UNL     1       0.299  54.107  22.573  1.00  0.00    -0.251 N 
ATOM     24  H8  UNL     1      -0.242  53.245  22.498  1.00  0.00     0.196 HD
BRANCH  23  25
HETATM   25  O2  UNL     1       0.670  54.819  21.458  1.00  0.00    -0.288 OA
ATOM     26  H2  UNL     1       0.662  54.358  20.628  1.00  0.00     0.244 HD
ENDBRANCH  23  25
ENDBRANCH  15  23
ENDBRANCH  10  11
ENDBRANCH   8  10
BRANCH   9  27
HETATM   27  O4  UNL     1       1.152  55.347  30.580  1.00  0.00    -0.388 OA
ATOM     28  H4  UNL     1       1.449  56.218  30.341  1.00  0.00     0.210 HD
ENDBRANCH   9  27
BRANCH   5  29
HETATM   29  N3  UNL     1       3.632  53.634  30.710  1.00  0.00    -0.033 N 
ATOM     30  H33 UNL     1       3.420  54.629  30.789  1.00  0.00     0.278 HD
ATOM     31  H32 UNL     1       3.004  53.267  31.425  1.00  0.00     0.278 HD
ATOM     32  H31 UNL     1       4.604  53.455  30.962  1.00  0.00     0.278 HD
ENDBRANCH   5  29
BRANCH   1  33
HETATM   33  C2  UNL     1      -0.353  52.521  29.150  1.00  0.00     0.213 C 
HETATM   34  C1  UNL     1      -1.224  51.884  30.189  1.00  0.00     0.042 C 
BRANCH  33  35
HETATM   35  N1  UNL     1      -0.041  51.627  28.077  1.00  0.00    -0.073 N 
ATOM     36  H13 UNL     1      -0.368  50.682  28.278  1.00  0.00     0.274 HD
ATOM     37  H12 UNL     1      -0.612  51.826  27.256  1.00  0.00     0.274 HD
ATOM     38  H11 UNL     1       0.952  51.630  27.844  1.00  0.00     0.274 HD
ENDBRANCH  33  35
ENDBRANCH   1  33
TORSDOF 9
ENDMDL
MODEL 3
REMARK VINA RESULT: -5.779140849      2.885      5.908
REMARK  9 active torsions:
REMARK  status: ('A' for Active; 'I' for Inactive)
REMARK    1  A    between atoms: C2_2  and  N1_3 
REMARK    2  A    between atoms: C2_2  and  C3_7 
REMARK    3  A    between atoms: C4_11  and  N3_12 
REMARK    4  A    between atoms: C5_18  and  C6_19 
REMARK    5  A    between atoms: C6_19  and  N5_20 
REMARK    6  A    between atoms: C7_23  and  C8_24 
REMARK    7  A    between atoms: C9_27  and  N8_28 
REMARK    8  A    between atoms: N8_28  and  O2_30 
REMARK    9  A    between atoms: C11_36  and  O4_37 
ROOT
HETATM    1  C3  UNL     1       0.998  59.596  26.038  1.00  0.00     0.254 C 
HETATM    2  N2  UNL     1      -0.420  59.756  26.178  1.00  0.00    -0.020 N 
ATOM      3  H21 UNL     1      -0.829  60.148  25.331  1.00  0.00     0.282 HD
ATOM      4  H22 UNL     1      -0.640  60.507  26.832  1.00  0.00     0.282 HD
HETATM    5  C4  UNL     1      -1.087  58.530  26.555  1.00  0.00     0.483 C 
HETATM    6  N4  UNL     1      -0.831  57.570  25.491  1.00  0.00    -0.344 N 
ATOM      7  H4  UNL     1      -1.604  57.019  25.117  1.00  0.00     0.163 HD
HETATM    8  C5  UNL     1       0.347  57.405  25.014  1.00  0.00     0.036 C 
HETATM    9  C11 UNL     1       1.436  58.234  25.596  1.00  0.00     0.198 C 
ENDROOT
BRANCH   8  10
HETATM   10  C6  UNL     1       0.646  56.433  23.924  1.00  0.00     0.209 C 
BRANCH  10  11
HETATM   11  N5  UNL     1       0.812  55.088  24.439  1.00  0.00    -0.236 N 
HETATM   12  N6  UNL     1       1.331  54.882  25.659  1.00  0.00    -0.286 N 
HETATM   13  C7  UNL     1       1.499  53.649  26.164  1.00  0.00     0.159 A 
ATOM     14  H6  UNL     1       1.608  55.687  26.220  1.00  0.00     0.187 HD
HETATM   15  C9  UNL     1       1.112  52.588  25.373  1.00  0.00     0.163 A 
HETATM   16  N9  UNL     1       0.589  52.824  24.139  1.00  0.00    -0.290 N 
HETATM   17  C10 UNL     1       0.429  54.067  23.649  1.00  0.00     0.343 A 
ATOM     18  H9  UNL     1       0.308  52.029  23.564  1.00  0.00     0.172 HD
HETATM   19  O3  UNL     1      -0.060  54.242  22.502  1.00  0.00    -0.245 OA
BRANCH  13  20
HETATM   20  C8  UNL     1       2.063  53.414  27.493  1.00  0.00     0.286 C 
HETATM   21  N7  UNL     1       1.410  53.910  28.658  1.00  0.00    -0.056 NA
HETATM   22  O1  UNL     1       3.121  52.780  27.636  1.00  0.00    -0.269 OA
ENDBRANCH  13  20
BRANCH  15  23
HETATM   23  N8  UNL     1       1.265  51.394  25.841  1.00  0.00    -0.251 N 
ATOM     24  H8  UNL     1       0.604  50.995  26.509  1.00  0.00     0.196 HD
BRANCH  23  25
HETATM   25  O2  UNL     1       2.356  50.683  25.402  1.00  0.00    -0.288 OA
ATOM     26  H2  UNL     1       2.412  49.771  25.661  1.00  0.00     0.244 HD
ENDBRANCH  23  25
ENDBRANCH  15  23
ENDBRANCH  10  11
ENDBRANCH   8  10
BRANCH   9  27
HETATM   27  O4  UNL     1       2.034  57.593  26.694  1.00  0.00    -0.388 OA
ATOM     28  H4  UNL     1       1.346  57.352  27.303  1.00  0.00     0.210 HD
ENDBRANCH   9  27
BRANCH   5  29
HETATM   29  N3  UNL     1      -0.720  58.036  27.841  1.00  0.00    -0.033 N 
ATOM     30  H33 UNL     1       0.278  57.829  27.873  1.00  0.00     0.278 HD
ATOM     31  H32 UNL     1      -0.765  58.781  28.536  1.00  0.00     0.278 HD
ATOM     32  H31 UNL     1      -1.262  57.228  28.149  1.00  0.00     0.278 HD
ENDBRANCH   5  29
BRANCH   1  33
HETATM   33  C2  UNL     1       1.522  60.666  25.084  1.00  0.00     0.213 C 
HETATM   34  C1  UNL     1       3.015  60.782  25.144  1.00  0.00     0.042 C 
BRANCH  33  35
HETATM   35  N1  UNL     1       0.869  61.927  25.254  1.00  0.00    -0.073 N 
ATOM     36  H13 UNL     1       1.530  62.647  25.545  1.00  0.00     0.274 HD
ATOM     37  H12 UNL     1       0.587  62.319  24.355  1.00  0.00     0.274 HD
ATOM     38  H11 UNL     1       0.079  61.873  25.897  1.00  0.00     0.274 HD
ENDBRANCH  33  35
ENDBRANCH   1  33
TORSDOF 9
ENDMDL
MODEL 4
REMARK VINA RESULT: -5.710875442      4.472      7.244
REMARK  9 active torsions:
REMARK  status: ('A' for Active; 'I' for Inactive)
REMARK    1  A    between atoms: C2_2  and  N1_3 
REMARK    2  A    between atoms: C2_2  and  C3_7 
REMARK    3  A    between atoms: C4_11  and  N3_12 
REMARK    4  A    between atoms: C5_18  and  C6_19 
REMARK    5  A    between atoms: C6_19  and  N5_20 
REMARK    6  A    between atoms: C7_23  and  C8_24 
REMARK    7  A    between atoms: C9_27  and  N8_28 
REMARK    8  A    between atoms: N8_28  and  O2_30 
REMARK    9  A    between atoms: C11_36  and  O4_37 
ROOT
HETATM    1  C3  UNL     1      -0.465  62.223  25.344  1.00  0.00     0.254 C 
HETATM    2  N2  UNL     1      -0.518  61.821  23.969  1.00  0.00    -0.020 N 
ATOM      3  H21 UNL     1       0.402  61.535  23.636  1.00  0.00     0.282 HD
ATOM      4  H22 UNL     1      -0.672  62.625  23.360  1.00  0.00     0.282 HD
HETATM    5  C4  UNL     1      -1.502  60.790  23.724  1.00  0.00     0.483 C 
HETATM    6  N4  UNL     1      -1.112  59.642  24.529  1.00  0.00    -0.344 N 
ATOM      7  H4  UNL     1      -1.102  58.714  24.104  1.00  0.00     0.163 HD
HETATM    8  C5  UNL     1      -0.781  59.773  25.759  1.00  0.00     0.036 C 
HETATM    9  C11 UNL     1      -0.813  61.147  26.327  1.00  0.00     0.198 C 
ENDROOT
BRANCH   8  10
HETATM   10  C6  UNL     1      -0.376  58.620  26.613  1.00  0.00     0.209 C 
BRANCH  10  11
HETATM   11  N5  UNL     1       0.028  57.480  25.815  1.00  0.00    -0.236 N 
HETATM   12  N6  UNL     1      -0.710  56.360  25.801  1.00  0.00    -0.286 N 
HETATM   13  C7  UNL     1      -0.363  55.286  25.073  1.00  0.00     0.159 A 
ATOM     14  H6  UNL     1      -1.561  56.322  26.361  1.00  0.00     0.187 HD
HETATM   15  C9  UNL     1       0.795  55.378  24.329  1.00  0.00     0.163 A 
HETATM   16  N9  UNL     1       1.526  56.525  24.361  1.00  0.00    -0.290 N 
HETATM   17  C10 UNL     1       1.162  57.591  25.097  1.00  0.00     0.343 A 
ATOM     18  H9  UNL     1       2.381  56.579  23.807  1.00  0.00     0.172 HD
HETATM   19  O3  UNL     1       1.867  58.635  25.099  1.00  0.00    -0.245 OA
BRANCH  13  20
HETATM   20  C8  UNL     1      -1.161  54.060  25.051  1.00  0.00     0.286 C 
HETATM   21  N7  UNL     1      -2.037  53.783  23.962  1.00  0.00    -0.056 NA
HETATM   22  O1  UNL     1      -1.093  53.236  25.977  1.00  0.00    -0.269 OA
ENDBRANCH  13  20
BRANCH  15  23
HETATM   23  N8  UNL     1       1.145  54.355  23.622  1.00  0.00    -0.251 N 
ATOM     24  H8  UNL     1       1.669  53.580  24.030  1.00  0.00     0.196 HD
BRANCH  23  25
HETATM   25  O2  UNL     1       0.782  54.356  22.296  1.00  0.00    -0.288 OA
ATOM     26  H2  UNL     1       0.854  55.179  21.829  1.00  0.00     0.244 HD
ENDBRANCH  23  25
ENDBRANCH  15  23
ENDBRANCH  10  11
ENDBRANCH   8  10
BRANCH   9  27
HETATM   27  O4  UNL     1      -2.075  61.446  26.868  1.00  0.00    -0.388 OA
ATOM     28  H4  UNL     1      -2.220  60.871  27.610  1.00  0.00     0.210 HD
ENDBRANCH   9  27
BRANCH   5  29
HETATM   29  N3  UNL     1      -2.848  61.198  23.962  1.00  0.00    -0.033 N 
ATOM     30  H33 UNL     1      -2.888  62.198  24.161  1.00  0.00     0.278 HD
ATOM     31  H32 UNL     1      -3.387  61.172  23.097  1.00  0.00     0.278 HD
ATOM     32  H31 UNL     1      -3.322  60.669  24.694  1.00  0.00     0.278 HD
ENDBRANCH   5  29
BRANCH   1  33
HETATM   33  C2  UNL     1       0.921  62.791  25.638  1.00  0.00     0.213 C 
HETATM   34  C1  UNL     1       1.042  64.218  25.196  1.00  0.00     0.042 C 
BRANCH  33  35
HETATM   35  N1  UNL     1       1.976  61.971  25.126  1.00  0.00    -0.073 N 
ATOM     36  H13 UNL     1       2.790  61.993  25.740  1.00  0.00     0.274 HD
ATOM     37  H12 UNL     1       1.741  60.981  25.203  1.00  0.00     0.274 HD
ATOM     38  H11 UNL     1       2.231  62.216  24.170  1.00  0.00     0.274 HD
ENDBRANCH  33  35
ENDBRANCH   1  33
TORSDOF 9
ENDMDL
MODEL 5
REMARK VINA RESULT: -5.624452271      3.572      5.719
REMARK  9 active torsions:
REMARK  status: ('A' for Active; 'I' for Inactive)
REMARK    1  A    between atoms: C2_2  and  N1_3 
REMARK    2  A    between atoms: C2_2  and  C3_7 
REMARK    3  A    between atoms: C4_11  and  N3_12 
REMARK    4  A    between atoms: C5_18  and  C6_19 
REMARK    5  A    between atoms: C6_19  and  N5_20 
REMARK    6  A    between atoms: C7_23  and  C8_24 
REMARK    7  A    between atoms: C9_27  and  N8_28 
REMARK    8  A    between atoms: N8_28  and  O2_30 
REMARK    9  A    between atoms: C11_36  and  O4_37 
ROOT
HETATM    1  C3  UNL     1       1.482  54.032  26.431  1.00  0.00     0.254 C 
HETATM    2  N2  UNL     1       0.282  53.281  26.207  1.00  0.00    -0.020 N 
ATOM      3  H21 UNL     1      -0.143  52.999  27.090  1.00  0.00     0.282 HD
ATOM      4  H22 UNL     1       0.493  52.360  25.823  1.00  0.00     0.282 HD
HETATM    5  C4  UNL     1      -0.671  53.982  25.375  1.00  0.00     0.483 C 
HETATM    6  N4  UNL     1      -1.014  55.210  26.078  1.00  0.00    -0.344 N 
ATOM      7  H4  UNL     1      -1.995  55.480  26.164  1.00  0.00     0.163 HD
HETATM    8  C5  UNL     1      -0.110  55.959  26.590  1.00  0.00     0.036 C 
HETATM    9  C11 UNL     1       1.303  55.519  26.434  1.00  0.00     0.198 C 
ENDROOT
BRANCH   8  10
HETATM   10  C6  UNL     1      -0.424  57.222  27.316  1.00  0.00     0.209 C 
BRANCH  10  11
HETATM   11  N5  UNL     1      -0.332  58.376  26.445  1.00  0.00    -0.236 N 
HETATM   12  N6  UNL     1       0.863  58.894  26.121  1.00  0.00    -0.286 N 
HETATM   13  C7  UNL     1       0.983  59.963  25.318  1.00  0.00     0.159 A 
ATOM     14  H6  UNL     1       1.707  58.462  26.498  1.00  0.00     0.187 HD
HETATM   15  C9  UNL     1      -0.182  60.517  24.830  1.00  0.00     0.163 A 
HETATM   16  N9  UNL     1      -1.381  59.973  25.174  1.00  0.00    -0.290 N 
HETATM   17  C10 UNL     1      -1.481  58.902  25.982  1.00  0.00     0.343 A 
ATOM     18  H9  UNL     1      -2.235  60.394  24.807  1.00  0.00     0.172 HD
HETATM   19  O3  UNL     1      -2.611  58.429  26.276  1.00  0.00    -0.245 OA
BRANCH  13  20
HETATM   20  C8  UNL     1       2.280  60.535  24.958  1.00  0.00     0.286 C 
HETATM   21  N7  UNL     1       2.676  61.810  25.453  1.00  0.00    -0.056 NA
HETATM   22  O1  UNL     1       3.064  59.923  24.214  1.00  0.00    -0.269 OA
ENDBRANCH  13  20
BRANCH  15  23
HETATM   23  N8  UNL     1      -0.087  61.546  24.055  1.00  0.00    -0.251 N 
ATOM     24  H8  UNL     1       0.220  62.452  24.409  1.00  0.00     0.196 HD
BRANCH  23  25
HETATM   25  O2  UNL     1      -0.420  61.368  22.734  1.00  0.00    -0.288 OA
ATOM     26  H2  UNL     1      -1.278  61.007  22.548  1.00  0.00     0.244 HD
ENDBRANCH  23  25
ENDBRANCH  15  23
ENDBRANCH  10  11
ENDBRANCH   8  10
BRANCH   9  27
HETATM   27  O4  UNL     1       1.868  56.027  25.253  1.00  0.00    -0.388 OA
ATOM     28  H4  UNL     1       2.237  56.881  25.448  1.00  0.00     0.210 HD
ENDBRANCH   9  27
BRANCH   5  29
HETATM   29  N3  UNL     1      -0.221  54.218  24.043  1.00  0.00    -0.033 N 
ATOM     30  H33 UNL     1       0.747  54.540  24.044  1.00  0.00     0.278 HD
ATOM     31  H32 UNL     1      -0.109  53.336  23.542  1.00  0.00     0.278 HD
ATOM     32  H31 UNL     1      -0.809  54.859  23.510  1.00  0.00     0.278 HD
ENDBRANCH   5  29
BRANCH   1  33
HETATM   33  C2  UNL     1       2.119  53.563  27.737  1.00  0.00     0.213 C 
HETATM   34  C1  UNL     1       2.829  54.680  28.440  1.00  0.00     0.042 C 
BRANCH  33  35
HETATM   35  N1  UNL     1       2.949  52.411  27.566  1.00  0.00    -0.073 N 
ATOM     36  H13 UNL     1       3.824  52.653  27.102  1.00  0.00     0.274 HD
ATOM     37  H12 UNL     1       3.321  52.090  28.460  1.00  0.00     0.274 HD
ATOM     38  H11 UNL     1       2.470  51.656  27.075  1.00  0.00     0.274 HD
ENDBRANCH  33  35
ENDBRANCH   1  33
TORSDOF 9
ENDMDL
