MODEL 1
REMARK VINA RESULT: -5.931003536      0.000      0.000
REMARK  10 active torsions:
REMARK  status: ('A' for Active; 'I' for Inactive)
REMARK    1  A    between atoms: C3_3  and  O1_4 
REMARK    2  A    between atoms: C5_11  and  O2_12 
REMARK    3  A    between atoms: C6_14  and  N4_15 
REMARK    4  A    between atoms: N4_15  and  N5_17 
REMARK    5  A    between atoms: C7_19  and  C8_20 
REMARK    6  A    between atoms: C8_20  and  O3_21 
REMARK    7  A    between atoms: C8_20  and  C9_23 
REMARK    8  A    between atoms: C9_23  and  N6_25 
REMARK    9  A    between atoms: C12_32  and  O4_33 
REMARK   10  A    between atoms: C12_32  and  O5_35 
ROOT
HETATM    1  C1  UNL     1       2.230  60.561  25.284  1.00  0.00     0.017 C 
HETATM    2  C2  UNL     1       1.379  59.710  25.361  1.00  0.00    -0.051 C 
HETATM    3  C3  UNL     1       0.325  58.667  25.457  1.00  0.00     0.262 C 
HETATM    4  N1  UNL     1      -0.314  58.847  26.705  1.00  0.00    -0.318 N 
ATOM      5  H1  UNL     1      -0.945  59.638  26.839  1.00  0.00     0.166 HD
HETATM    6  C4  UNL     1      -0.108  58.026  27.673  1.00  0.00     0.193 C 
HETATM    7  N2  UNL     1      -0.799  58.277  28.922  1.00  0.00    -0.063 NA
HETATM    8  N3  UNL     1       0.741  56.912  27.577  1.00  0.00    -0.295 N 
HETATM    9  C5  UNL     1       1.063  55.834  28.465  1.00  0.00     0.294 C 
HETATM   10  C6  UNL     1       1.242  54.726  27.477  1.00  0.00     0.143 C 
HETATM   11  N7  UNL     1       1.495  55.217  26.315  1.00  0.00    -0.349 N 
ATOM     12  H7  UNL     1       1.658  54.668  25.470  1.00  0.00     0.163 HD
HETATM   13  C11 UNL     1       1.517  56.662  26.382  1.00  0.00     0.260 C 
HETATM   14  C12 UNL     1       0.955  57.354  25.180  1.00  0.00     0.264 C 
ENDROOT
BRANCH   3  15
HETATM   15  O1  UNL     1      -0.572  58.941  24.415  1.00  0.00    -0.356 OA
ATOM     16  H1  UNL     1      -0.147  58.631  23.624  1.00  0.00     0.213 HD
ENDBRANCH   3  15
BRANCH  14  17
HETATM   17  O4  UNL     1       0.110  56.459  24.516  1.00  0.00    -0.358 OA
ATOM     18  H4  UNL     1       0.275  56.405  23.582  1.00  0.00     0.213 HD
ENDBRANCH  14  17
BRANCH  14  19
HETATM   19  O5  UNL     1       2.036  57.581  24.297  1.00  0.00    -0.358 OA
ATOM     20  H5  UNL     1       1.880  57.060  23.518  1.00  0.00     0.213 HD
ENDBRANCH  14  19
BRANCH   9  21
HETATM   21  O2  UNL     1       0.052  55.547  29.373  1.00  0.00    -0.369 OA
ATOM     22  H2  UNL     1       0.298  54.894  30.018  1.00  0.00     0.212 HD
ENDBRANCH   9  21
BRANCH  10  23
HETATM   23  N4  UNL     1       1.147  53.352  27.782  1.00  0.00    -0.286 N 
ATOM     24  H4  UNL     1       0.610  52.755  27.153  1.00  0.00     0.188 HD
BRANCH  23  25
HETATM   25  N5  UNL     1       1.747  52.766  28.897  1.00  0.00    -0.312 N 
HETATM   26  C7  UNL     1       2.991  52.972  29.203  1.00  0.00     0.113 C 
ATOM     27  H5  UNL     1       1.188  52.154  29.491  1.00  0.00     0.185 HD
BRANCH  26  28
HETATM   28  C8  UNL     1       3.602  52.344  30.384  1.00  0.00     0.188 C 
BRANCH  28  29
HETATM   29  O3  UNL     1       4.850  51.839  30.083  1.00  0.00    -0.388 OA
ATOM     30  H3  UNL     1       5.533  52.456  30.319  1.00  0.00     0.210 HD
ENDBRANCH  28  29
BRANCH  28  31
HETATM   31  C9  UNL     1       3.627  53.335  31.512  1.00  0.00     0.213 C 
HETATM   32  C10 UNL     1       4.762  53.108  32.464  1.00  0.00     0.043 C 
BRANCH  31  33
HETATM   33  N6  UNL     1       3.675  54.683  31.028  1.00  0.00    -0.073 N 
ATOM     34  H63 UNL     1       4.562  55.130  31.256  1.00  0.00     0.274 HD
ATOM     35  H62 UNL     1       3.741  54.711  30.010  1.00  0.00     0.274 HD
ATOM     36  H61 UNL     1       2.883  55.230  31.365  1.00  0.00     0.274 HD
ENDBRANCH  31  33
ENDBRANCH  28  31
ENDBRANCH  26  28
ENDBRANCH  23  25
ENDBRANCH  10  23
TORSDOF 10
ENDMDL
MODEL 2
REMARK VINA RESULT: -5.798187420      5.021     10.120
REMARK  10 active torsions:
REMARK  status: ('A' for Active; 'I' for Inactive)
REMARK    1  A    between atoms: C3_3  and  O1_4 
REMARK    2  A    between atoms: C5_11  and  O2_12 
REMARK    3  A    between atoms: C6_14  and  N4_15 
REMARK    4  A    between atoms: N4_15  and  N5_17 
REMARK    5  A    between atoms: C7_19  and  C8_20 
REMARK    6  A    between atoms: C8_20  and  O3_21 
REMARK    7  A    between atoms: C8_20  and  C9_23 
REMARK    8  A    between atoms: C9_23  and  N6_25 
REMARK    9  A    between atoms: C12_32  and  O4_33 
REMARK   10  A    between atoms: C12_32  and  O5_35 
ROOT
HETATM    1  C1  UNL     1       0.112  57.370  27.584  1.00  0.00     0.017 C 
HETATM    2  C2  UNL     1       0.267  57.947  26.537  1.00  0.00    -0.051 C 
HETATM    3  C3  UNL     1       0.462  58.653  25.245  1.00  0.00     0.262 C 
HETATM    4  N1  UNL     1       1.795  59.124  25.235  1.00  0.00    -0.318 N 
ATOM      5  H1  UNL     1       2.562  58.464  25.104  1.00  0.00     0.166 HD
HETATM    6  C4  UNL     1       2.051  60.375  25.391  1.00  0.00     0.193 C 
HETATM    7  N2  UNL     1       3.442  60.780  25.370  1.00  0.00    -0.063 NA
HETATM    8  N3  UNL     1       1.059  61.352  25.576  1.00  0.00    -0.295 N 
HETATM    9  C5  UNL     1       1.088  62.780  25.688  1.00  0.00     0.294 C 
HETATM   10  C6  UNL     1      -0.198  63.121  25.005  1.00  0.00     0.143 C 
HETATM   11  N7  UNL     1      -0.981  62.100  25.017  1.00  0.00    -0.349 N 
ATOM     12  H7  UNL     1      -1.918  62.076  24.615  1.00  0.00     0.163 HD
HETATM   13  C11 UNL     1      -0.336  60.991  25.687  1.00  0.00     0.260 C 
HETATM   14  C12 UNL     1      -0.629  59.647  25.098  1.00  0.00     0.264 C 
ENDROOT
BRANCH   3  15
HETATM   15  O1  UNL     1       0.291  57.678  24.253  1.00  0.00    -0.356 OA
ATOM     16  H1  UNL     1      -0.260  58.081  23.591  1.00  0.00     0.213 HD
ENDBRANCH   3  15
BRANCH  14  17
HETATM   17  O4  UNL     1      -1.040  59.831  23.774  1.00  0.00    -0.358 OA
ATOM     18  H4  UNL     1      -1.678  60.527  23.670  1.00  0.00     0.213 HD
ENDBRANCH  14  17
BRANCH  14  19
HETATM   19  O5  UNL     1      -1.759  59.139  25.779  1.00  0.00    -0.358 OA
ATOM     20  H5  UNL     1      -1.464  58.829  26.627  1.00  0.00     0.213 HD
ENDBRANCH  14  19
BRANCH   9  21
HETATM   21  O2  UNL     1       2.174  63.363  25.047  1.00  0.00    -0.369 OA
ATOM     22  H2  UNL     1       2.987  62.888  25.176  1.00  0.00     0.212 HD
ENDBRANCH   9  21
BRANCH  10  23
HETATM   23  N4  UNL     1      -0.500  64.376  24.437  1.00  0.00    -0.286 N 
ATOM     24  H4  UNL     1      -1.416  64.504  24.009  1.00  0.00     0.188 HD
BRANCH  23  25
HETATM   25  N5  UNL     1       0.388  65.453  24.428  1.00  0.00    -0.312 N 
HETATM   26  C7  UNL     1       0.470  66.277  23.430  1.00  0.00     0.113 C 
ATOM     27  H5  UNL     1       0.994  65.596  25.236  1.00  0.00     0.185 HD
BRANCH  26  28
HETATM   28  C8  UNL     1       1.413  67.404  23.444  1.00  0.00     0.188 C 
BRANCH  28  29
HETATM   29  O3  UNL     1       2.637  67.018  23.950  1.00  0.00    -0.388 OA
ATOM     30  H3  UNL     1       3.180  67.773  24.143  1.00  0.00     0.210 HD
ENDBRANCH  28  29
BRANCH  28  31
HETATM   31  C9  UNL     1       1.508  67.985  22.062  1.00  0.00     0.213 C 
HETATM   32  C10 UNL     1       2.876  68.503  21.738  1.00  0.00     0.043 C 
BRANCH  31  33
HETATM   33  N6  UNL     1       1.110  67.037  21.064  1.00  0.00    -0.073 N 
ATOM     34  H63 UNL     1       1.229  66.078  21.392  1.00  0.00     0.274 HD
ATOM     35  H62 UNL     1       0.099  67.034  20.934  1.00  0.00     0.274 HD
ATOM     36  H61 UNL     1       1.600  67.193  20.183  1.00  0.00     0.274 HD
ENDBRANCH  31  33
ENDBRANCH  28  31
ENDBRANCH  26  28
ENDBRANCH  23  25
ENDBRANCH  10  23
TORSDOF 10
ENDMDL
MODEL 3
REMARK VINA RESULT: -5.781600410      3.366      7.319
REMARK  10 active torsions:
REMARK  status: ('A' for Active; 'I' for Inactive)
REMARK    1  A    between atoms: C3_3  and  O1_4 
REMARK    2  A    between atoms: C5_11  and  O2_12 
REMARK    3  A    between atoms: C6_14  and  N4_15 
REMARK    4  A    between atoms: N4_15  and  N5_17 
REMARK    5  A    between atoms: C7_19  and  C8_20 
REMARK    6  A    between atoms: C8_20  and  O3_21 
REMARK    7  A    between atoms: C8_20  and  C9_23 
REMARK    8  A    between atoms: C9_23  and  N6_25 
REMARK    9  A    between atoms: C12_32  and  O4_33 
REMARK   10  A    between atoms: C12_32  and  O5_35 
ROOT
HETATM    1  C1  UNL     1      -2.296  51.708  24.576  1.00  0.00     0.017 C 
HETATM    2  C2  UNL     1      -1.157  52.099  24.525  1.00  0.00    -0.051 C 
HETATM    3  C3  UNL     1       0.249  52.575  24.462  1.00  0.00     0.262 C 
HETATM    4  N1  UNL     1       0.756  52.519  25.781  1.00  0.00    -0.318 N 
ATOM      5  H1  UNL     1       0.977  51.615  26.199  1.00  0.00     0.166 HD
HETATM    6  C4  UNL     1       0.942  53.596  26.460  1.00  0.00     0.193 C 
HETATM    7  N2  UNL     1       1.464  53.458  27.804  1.00  0.00    -0.063 NA
HETATM    8  N3  UNL     1       0.668  54.881  25.964  1.00  0.00    -0.295 N 
HETATM    9  C5  UNL     1       0.862  56.203  26.483  1.00  0.00     0.294 C 
HETATM   10  C6  UNL     1       1.180  56.936  25.219  1.00  0.00     0.143 C 
HETATM   11  N7  UNL     1       0.724  56.279  24.210  1.00  0.00    -0.349 N 
ATOM     12  H7  UNL     1       0.812  56.569  23.236  1.00  0.00     0.163 HD
HETATM   13  C11 UNL     1       0.070  55.070  24.661  1.00  0.00     0.260 C 
HETATM   14  C12 UNL     1       0.258  53.885  23.767  1.00  0.00     0.264 C 
ENDROOT
BRANCH   3  15
HETATM   15  O1  UNL     1       0.923  51.653  23.650  1.00  0.00    -0.356 OA
ATOM     16  H1  UNL     1       1.829  51.675  23.937  1.00  0.00     0.213 HD
ENDBRANCH   3  15
BRANCH  14  17
HETATM   17  O4  UNL     1       1.404  54.098  22.995  1.00  0.00    -0.358 OA
ATOM     18  H4  UNL     1       1.216  54.415  22.119  1.00  0.00     0.213 HD
ENDBRANCH  14  17
BRANCH  14  19
HETATM   19  O5  UNL     1      -0.821  53.887  22.854  1.00  0.00    -0.358 OA
ATOM     20  H5  UNL     1      -1.324  54.678  23.010  1.00  0.00     0.213 HD
ENDBRANCH  14  19
BRANCH   9  21
HETATM   21  O2  UNL     1       1.906  56.290  27.396  1.00  0.00    -0.369 OA
ATOM     22  H2  UNL     1       2.676  56.725  27.049  1.00  0.00     0.212 HD
ENDBRANCH   9  21
BRANCH  10  23
HETATM   23  N4  UNL     1       1.873  58.163  25.151  1.00  0.00    -0.286 N 
ATOM     24  H4  UNL     1       2.828  58.158  24.794  1.00  0.00     0.188 HD
BRANCH  23  25
HETATM   25  N5  UNL     1       1.321  59.382  25.546  1.00  0.00    -0.312 N 
HETATM   26  C7  UNL     1       1.848  60.521  25.217  1.00  0.00     0.113 C 
ATOM     27  H5  UNL     1       0.475  59.377  26.114  1.00  0.00     0.185 HD
BRANCH  26  28
HETATM   28  C8  UNL     1       1.249  61.793  25.644  1.00  0.00     0.188 C 
BRANCH  28  29
HETATM   29  O3  UNL     1       2.039  62.861  25.272  1.00  0.00    -0.388 OA
ATOM     30  H3  UNL     1       2.012  62.993  24.331  1.00  0.00     0.210 HD
ENDBRANCH  28  29
BRANCH  28  31
HETATM   31  C9  UNL     1      -0.151  61.885  25.106  1.00  0.00     0.213 C 
HETATM   32  C10 UNL     1      -1.187  61.966  26.186  1.00  0.00     0.043 C 
BRANCH  31  33
HETATM   33  N6  UNL     1      -0.301  62.999  24.218  1.00  0.00    -0.073 N 
ATOM     34  H63 UNL     1      -0.782  63.776  24.671  1.00  0.00     0.274 HD
ATOM     35  H62 UNL     1       0.594  63.453  24.035  1.00  0.00     0.274 HD
ATOM     36  H61 UNL     1      -0.766  62.727  23.351  1.00  0.00     0.274 HD
ENDBRANCH  31  33
ENDBRANCH  28  31
ENDBRANCH  26  28
ENDBRANCH  23  25
ENDBRANCH  10  23
TORSDOF 10
ENDMDL
MODEL 4
REMARK VINA RESULT: -5.772376947      2.942      4.431
REMARK  10 active torsions:
REMARK  status: ('A' for Active; 'I' for Inactive)
REMARK    1  A    between atoms: C3_3  and  O1_4 
REMARK    2  A    between atoms: C5_11  and  O2_12 
REMARK    3  A    between atoms: C6_14  and  N4_15 
REMARK    4  A    between atoms: N4_15  and  N5_17 
REMARK    5  A    between atoms: C7_19  and  C8_20 
REMARK    6  A    between atoms: C8_20  and  O3_21 
REMARK    7  A    between atoms: C8_20  and  C9_23 
REMARK    8  A    between atoms: C9_23  and  N6_25 
REMARK    9  A    between atoms: C12_32  and  O4_33 
REMARK   10  A    between atoms: C12_32  and  O5_35 
ROOT
HETATM    1  C1  UNL     1      -2.198  53.182  23.516  1.00  0.00     0.017 C 
HETATM    2  C2  UNL     1      -1.028  53.447  23.636  1.00  0.00    -0.051 C 
HETATM    3  C3  UNL     1       0.416  53.770  23.776  1.00  0.00     0.262 C 
HETATM    4  N1  UNL     1       1.081  52.551  24.043  1.00  0.00    -0.318 N 
ATOM      5  H1  UNL     1       1.205  51.870  23.294  1.00  0.00     0.166 HD
HETATM    6  C4  UNL     1       1.531  52.292  25.220  1.00  0.00     0.193 C 
HETATM    7  N2  UNL     1       2.201  51.022  25.416  1.00  0.00    -0.063 NA
HETATM    8  N3  UNL     1       1.406  53.171  26.308  1.00  0.00    -0.295 N 
HETATM    9  C5  UNL     1       1.883  53.145  27.660  1.00  0.00     0.294 C 
HETATM   10  C6  UNL     1       2.141  54.602  27.874  1.00  0.00     0.143 C 
HETATM   11  N7  UNL     1       1.452  55.293  27.035  1.00  0.00    -0.349 N 
ATOM     12  H7  UNL     1       1.452  56.312  26.976  1.00  0.00     0.163 HD
HETATM   13  C11 UNL     1       0.676  54.413  26.188  1.00  0.00     0.260 C 
HETATM   14  C12 UNL     1       0.544  54.865  24.768  1.00  0.00     0.264 C 
ENDROOT
BRANCH   3  15
HETATM   15  O1  UNL     1       0.813  54.270  22.530  1.00  0.00    -0.356 OA
ATOM     16  H1  UNL     1       1.747  54.105  22.474  1.00  0.00     0.213 HD
ENDBRANCH   3  15
BRANCH  14  17
HETATM   17  O4  UNL     1       1.594  55.746  24.491  1.00  0.00    -0.358 OA
ATOM     18  H4  UNL     1       1.573  56.537  25.017  1.00  0.00     0.213 HD
ENDBRANCH  14  17
BRANCH  14  19
HETATM   19  O5  UNL     1      -0.634  55.643  24.694  1.00  0.00    -0.358 OA
ATOM     20  H5  UNL     1      -1.146  55.316  23.964  1.00  0.00     0.213 HD
ENDBRANCH  14  19
BRANCH   9  21
HETATM   21  O2  UNL     1       3.041  52.394  27.822  1.00  0.00    -0.369 OA
ATOM     22  H2  UNL     1       3.388  52.424  28.706  1.00  0.00     0.212 HD
ENDBRANCH   9  21
BRANCH  10  23
HETATM   23  N4  UNL     1       3.009  55.131  28.851  1.00  0.00    -0.286 N 
ATOM     24  H4  UNL     1       3.127  56.143  28.895  1.00  0.00     0.188 HD
BRANCH  23  25
HETATM   25  N5  UNL     1       3.717  54.345  29.761  1.00  0.00    -0.312 N 
HETATM   26  C7  UNL     1       3.292  54.125  30.966  1.00  0.00     0.113 C 
ATOM     27  H5  UNL     1       4.600  53.928  29.467  1.00  0.00     0.185 HD
BRANCH  26  28
HETATM   28  C8  UNL     1       4.055  53.293  31.907  1.00  0.00     0.188 C 
BRANCH  28  29
HETATM   29  O3  UNL     1       3.333  53.063  33.060  1.00  0.00    -0.388 OA
ATOM     30  H3  UNL     1       3.097  52.145  33.137  1.00  0.00     0.210 HD
ENDBRANCH  28  29
BRANCH  28  31
HETATM   31  C9  UNL     1       4.475  52.026  31.216  1.00  0.00     0.213 C 
HETATM   32  C10 UNL     1       5.414  51.197  32.037  1.00  0.00     0.043 C 
BRANCH  31  33
HETATM   33  N6  UNL     1       3.343  51.232  30.841  1.00  0.00    -0.073 N 
ATOM     34  H63 UNL     1       2.498  51.533  31.328  1.00  0.00     0.274 HD
ATOM     35  H62 UNL     1       3.051  51.427  29.884  1.00  0.00     0.274 HD
ATOM     36  H61 UNL     1       3.520  50.237  30.982  1.00  0.00     0.274 HD
ENDBRANCH  31  33
ENDBRANCH  28  31
ENDBRANCH  26  28
ENDBRANCH  23  25
ENDBRANCH  10  23
TORSDOF 10
ENDMDL
MODEL 5
REMARK VINA RESULT: -5.740277321      2.386      7.612
REMARK  10 active torsions:
REMARK  status: ('A' for Active; 'I' for Inactive)
REMARK    1  A    between atoms: C3_3  and  O1_4 
REMARK    2  A    between atoms: C5_11  and  O2_12 
REMARK    3  A    between atoms: C6_14  and  N4_15 
REMARK    4  A    between atoms: N4_15  and  N5_17 
REMARK    5  A    between atoms: C7_19  and  C8_20 
REMARK    6  A    between atoms: C8_20  and  O3_21 
REMARK    7  A    between atoms: C8_20  and  C9_23 
REMARK    8  A    between atoms: C9_23  and  N6_25 
REMARK    9  A    between atoms: C12_32  and  O4_33 
REMARK   10  A    between atoms: C12_32  and  O5_35 
ROOT
HETATM    1  C1  UNL     1       3.739  52.770  28.292  1.00  0.00     0.017 C 
HETATM    2  C2  UNL     1       2.649  53.064  27.870  1.00  0.00    -0.051 C 
HETATM    3  C3  UNL     1       1.304  53.420  27.348  1.00  0.00     0.262 C 
HETATM    4  N1  UNL     1       1.339  53.202  25.951  1.00  0.00    -0.318 N 
ATOM      5  H1  UNL     1       1.335  52.248  25.590  1.00  0.00     0.166 HD
HETATM    6  C4  UNL     1       1.374  54.192  25.132  1.00  0.00     0.193 C 
HETATM    7  N2  UNL     1       1.409  53.889  23.716  1.00  0.00    -0.063 NA
HETATM    8  N3  UNL     1       1.380  55.536  25.541  1.00  0.00    -0.295 N 
HETATM    9  C5  UNL     1       1.337  56.784  24.837  1.00  0.00     0.294 C 
HETATM   10  C6  UNL     1       0.530  57.598  25.797  1.00  0.00     0.143 C 
HETATM   11  N7  UNL     1       0.598  57.077  26.972  1.00  0.00    -0.349 N 
ATOM     12  H7  UNL     1       0.134  57.444  27.803  1.00  0.00     0.163 HD
HETATM   13  C11 UNL     1       1.429  55.893  26.941  1.00  0.00     0.260 C 
HETATM   14  C12 UNL     1       0.971  54.782  27.832  1.00  0.00     0.264 C 
ENDROOT
BRANCH   3  15
HETATM   15  O1  UNL     1       0.415  52.520  27.952  1.00  0.00    -0.356 OA
ATOM     16  H1  UNL     1       0.787  52.328  28.805  1.00  0.00     0.213 HD
ENDBRANCH   3  15
BRANCH  14  17
HETATM   17  O4  UNL     1      -0.390  54.963  28.091  1.00  0.00    -0.358 OA
ATOM     18  H4  UNL     1      -0.927  54.974  27.307  1.00  0.00     0.213 HD
ENDBRANCH  14  17
BRANCH  14  19
HETATM   19  O5  UNL     1       1.621  54.960  29.075  1.00  0.00    -0.358 OA
ATOM     20  H5  UNL     1       0.959  54.894  29.753  1.00  0.00     0.213 HD
ENDBRANCH  14  19
BRANCH   9  21
HETATM   21  O2  UNL     1       0.715  56.697  23.597  1.00  0.00    -0.369 OA
ATOM     22  H2  UNL     1      -0.115  56.236  23.623  1.00  0.00     0.212 HD
ENDBRANCH   9  21
BRANCH  10  23
HETATM   23  N4  UNL     1      -0.193  58.761  25.459  1.00  0.00    -0.286 N 
ATOM     24  H4  UNL     1      -1.014  58.662  24.862  1.00  0.00     0.188 HD
BRANCH  23  25
HETATM   25  N5  UNL     1       0.155  60.039  25.896  1.00  0.00    -0.312 N 
HETATM   26  C7  UNL     1       0.838  60.862  25.163  1.00  0.00     0.113 C 
ATOM     27  H5  UNL     1      -0.138  60.336  26.827  1.00  0.00     0.185 HD
BRANCH  26  28
HETATM   28  C8  UNL     1       1.192  62.205  25.645  1.00  0.00     0.188 C 
BRANCH  28  29
HETATM   29  O3  UNL     1       2.452  62.568  25.215  1.00  0.00    -0.388 OA
ATOM     30  H3  UNL     1       3.122  62.058  25.656  1.00  0.00     0.210 HD
ENDBRANCH  28  29
BRANCH  28  31
HETATM   31  C9  UNL     1       0.127  63.177  25.225  1.00  0.00     0.213 C 
HETATM   32  C10 UNL     1       0.605  64.597  25.211  1.00  0.00     0.043 C 
BRANCH  31  33
HETATM   33  N6  UNL     1      -0.411  62.844  23.940  1.00  0.00    -0.073 N 
ATOM     34  H63 UNL     1      -0.751  61.882  23.915  1.00  0.00     0.274 HD
ATOM     35  H62 UNL     1      -1.293  63.327  23.768  1.00  0.00     0.274 HD
ATOM     36  H61 UNL     1       0.262  63.021  23.195  1.00  0.00     0.274 HD
ENDBRANCH  31  33
ENDBRANCH  28  31
ENDBRANCH  26  28
ENDBRANCH  23  25
ENDBRANCH  10  23
TORSDOF 10
ENDMDL
