MODEL 1
REMARK VINA RESULT: -7.952611698      0.000      0.000
REMARK  4 active torsions:
REMARK  status: ('A' for Active; 'I' for Inactive)
REMARK    1  A    between atoms: C5_5  and  C6_6 
REMARK    2  A    between atoms: C9_10  and  C10_11 
REMARK    3  A    between atoms: C10_11  and  C11_12 
REMARK    4  A    between atoms: C18_28  and  O7_29 
ROOT
HETATM    1  C6  UNL     1      18.164 -16.124  22.180  1.00  0.00     0.065 C 
HETATM    2  C7  UNL     1      16.973 -16.595  21.880  1.00  0.00     0.048 C 
HETATM    3  C8  UNL     1      16.636 -18.002  22.095  1.00  0.00     0.174 C 
HETATM    4  O1  UNL     1      17.466 -18.872  21.633  1.00  0.00    -0.292 OA
HETATM    5  C9  UNL     1      15.379 -18.377  22.812  1.00  0.00     0.162 C 
HETATM    6  C12 UNL     1      14.326 -17.747  21.943  1.00  0.00     0.231 C 
HETATM    7  O4  UNL     1      13.306 -18.391  21.649  1.00  0.00    -0.273 OA
HETATM    8  N1  UNL     1      14.562 -16.447  21.504  1.00  0.00    -0.335 N 
ATOM      9  H1  UNL     1      13.735 -15.902  21.258  1.00  0.00     0.164 HD
HETATM   10  C13 UNL     1      15.836 -15.769  21.352  1.00  0.00     0.225 C 
HETATM   11  N2  UNL     1      15.663 -14.517  22.043  1.00  0.00    -0.333 N 
ATOM     12  H2  UNL     1      16.103 -14.350  22.948  1.00  0.00     0.165 HD
HETATM   13  C14 UNL     1      14.856 -13.519  21.420  1.00  0.00     0.248 C 
HETATM   14  O5  UNL     1      14.137 -12.744  22.092  1.00  0.00    -0.271 OA
HETATM   15  C15 UNL     1      14.841 -13.358  19.927  1.00  0.00     0.209 C 
HETATM   16  C16 UNL     1      13.594 -12.578  19.519  1.00  0.00     0.049 C 
HETATM   17  O6  UNL     1      16.013 -12.706  19.506  1.00  0.00    -0.374 OA
HETATM   18  C17 UNL     1      16.599 -13.300  18.399  1.00  0.00     0.202 C 
HETATM   19  C18 UNL     1      18.108 -13.310  18.447  1.00  0.00     0.159 C 
HETATM   20  C19 UNL     1      18.655 -14.369  19.407  1.00  0.00     0.156 C 
HETATM   21  N3  UNL     1      18.427 -13.975  20.754  1.00  0.00    -0.354 N 
ATOM     22  H3  UNL     1      18.144 -13.003  20.876  1.00  0.00     0.162 HD
HETATM   23  C20 UNL     1      18.531 -14.714  21.943  1.00  0.00     0.253 C 
HETATM   24  O8  UNL     1      19.011 -14.057  22.945  1.00  0.00    -0.268 OA
ENDROOT
BRANCH   1  25
HETATM   25  C5  UNL     1      19.205 -16.979  22.771  1.00  0.00     0.052 A 
HETATM   26  C4  UNL     1      20.314 -17.409  22.193  1.00  0.00     0.023 A 
HETATM   27  C3  UNL     1      21.197 -18.214  22.923  1.00  0.00     0.018 A 
HETATM   28  C2  UNL     1      20.895 -18.505  24.161  1.00  0.00     0.010 A 
HETATM   29  C1  UNL     1      21.594 -19.321  25.179  1.00  0.00     0.059 C 
HETATM   30  S1  UNL     1      19.403 -17.583  24.449  1.00  0.00     0.081 S 
HETATM   31  O9  UNL     1      19.952 -16.314  25.187  1.00  0.00    -0.247 OA
ENDBRANCH   1  25
BRANCH   5  32
HETATM   32  C10 UNL     1      15.252 -19.853  22.928  1.00  0.00     0.135 C 
BRANCH  32  33
HETATM   33  C11 UNL     1      14.837 -20.238  24.288  1.00  0.00     0.173 C 
HETATM   34  O2  UNL     1      15.611 -20.155  25.269  1.00  0.00    -0.648 OA
HETATM   35  O3  UNL     1      13.518 -20.712  24.466  1.00  0.00    -0.648 OA
ENDBRANCH  32  33
ENDBRANCH   5  32
BRANCH  19  36
HETATM   36  O7  UNL     1      18.707 -13.370  17.211  1.00  0.00    -0.392 OA
ATOM     37  H7  UNL     1      19.558 -12.950  17.173  1.00  0.00     0.210 HD
ENDBRANCH  19  36
TORSDOF 4
ENDMDL
MODEL 2
REMARK VINA RESULT: -7.519569204      1.649      1.854
REMARK  4 active torsions:
REMARK  status: ('A' for Active; 'I' for Inactive)
REMARK    1  A    between atoms: C5_5  and  C6_6 
REMARK    2  A    between atoms: C9_10  and  C10_11 
REMARK    3  A    between atoms: C10_11  and  C11_12 
REMARK    4  A    between atoms: C18_28  and  O7_29 
ROOT
HETATM    1  C6  UNL     1      16.929 -16.872  21.595  1.00  0.00     0.065 C 
HETATM    2  C7  UNL     1      15.687 -17.011  21.184  1.00  0.00     0.048 C 
HETATM    3  C8  UNL     1      15.078 -18.334  21.043  1.00  0.00     0.174 C 
HETATM    4  O1  UNL     1      15.750 -19.212  20.382  1.00  0.00    -0.292 OA
HETATM    5  C9  UNL     1      13.737 -18.616  21.641  1.00  0.00     0.162 C 
HETATM    6  C12 UNL     1      12.870 -17.599  20.953  1.00  0.00     0.231 C 
HETATM    7  O4  UNL     1      11.762 -17.938  20.505  1.00  0.00    -0.273 OA
HETATM    8  N1  UNL     1      13.371 -16.305  20.850  1.00  0.00    -0.335 N 
ATOM      9  H1  UNL     1      12.677 -15.564  20.745  1.00  0.00     0.164 HD
HETATM   10  C13 UNL     1      14.757 -15.875  20.875  1.00  0.00     0.225 C 
HETATM   11  N2  UNL     1      14.790 -14.819  21.854  1.00  0.00    -0.333 N 
ATOM     12  H2  UNL     1      15.207 -14.967  22.773  1.00  0.00     0.165 HD
HETATM   13  C14 UNL     1      14.221 -13.561  21.496  1.00  0.00     0.248 C 
HETATM   14  O5  UNL     1      13.629 -12.846  22.337  1.00  0.00    -0.271 OA
HETATM   15  C15 UNL     1      14.314 -13.042  20.089  1.00  0.00     0.209 C 
HETATM   16  C16 UNL     1      13.261 -11.957  19.884  1.00  0.00     0.049 C 
HETATM   17  O6  UNL     1      15.608 -12.552  19.846  1.00  0.00    -0.374 OA
HETATM   18  C17 UNL     1      16.127 -12.964  18.628  1.00  0.00     0.202 C 
HETATM   19  C18 UNL     1      17.602 -13.283  18.676  1.00  0.00     0.159 C 
HETATM   20  C19 UNL     1      17.887 -14.629  19.345  1.00  0.00     0.156 C 
HETATM   21  N3  UNL     1      17.669 -14.537  20.747  1.00  0.00    -0.354 N 
ATOM     22  H3  UNL     1      17.570 -13.587  21.105  1.00  0.00     0.162 HD
HETATM   23  C20 UNL     1      17.569 -15.548  21.715  1.00  0.00     0.253 C 
HETATM   24  O8  UNL     1      18.114 -15.261  22.850  1.00  0.00    -0.268 OA
ENDROOT
BRANCH   1  25
HETATM   25  C5  UNL     1      17.756 -18.032  21.958  1.00  0.00     0.052 A 
HETATM   26  C4  UNL     1      18.808 -18.504  21.308  1.00  0.00     0.023 A 
HETATM   27  C3  UNL     1      19.480 -19.623  21.816  1.00  0.00     0.018 A 
HETATM   28  C2  UNL     1      19.045 -20.158  22.926  1.00  0.00     0.010 A 
HETATM   29  C1  UNL     1      19.515 -21.326  23.705  1.00  0.00     0.059 C 
HETATM   30  S1  UNL     1      17.726 -19.073  23.420  1.00  0.00     0.081 S 
HETATM   31  O9  UNL     1      18.442 -18.166  24.479  1.00  0.00    -0.247 OA
ENDBRANCH   1  25
BRANCH   5  32
HETATM   32  C10 UNL     1      13.326 -20.021  21.387  1.00  0.00     0.135 C 
BRANCH  32  33
HETATM   33  C11 UNL     1      13.161 -20.756  22.654  1.00  0.00     0.173 C 
HETATM   34  O2  UNL     1      12.399 -21.745  22.756  1.00  0.00    -0.648 OA
HETATM   35  O3  UNL     1      13.898 -20.311  23.775  1.00  0.00    -0.648 OA
ENDBRANCH  32  33
ENDBRANCH   5  32
BRANCH  19  36
HETATM   36  O7  UNL     1      18.242 -13.158  17.465  1.00  0.00    -0.392 OA
ATOM     37  H7  UNL     1      19.164 -13.382  17.490  1.00  0.00     0.210 HD
ENDBRANCH  19  36
TORSDOF 4
ENDMDL
MODEL 3
REMARK VINA RESULT: -7.332717150      2.676      6.737
REMARK  4 active torsions:
REMARK  status: ('A' for Active; 'I' for Inactive)
REMARK    1  A    between atoms: C5_5  and  C6_6 
REMARK    2  A    between atoms: C9_10  and  C10_11 
REMARK    3  A    between atoms: C10_11  and  C11_12 
REMARK    4  A    between atoms: C18_28  and  O7_29 
ROOT
HETATM    1  C6  UNL     1      16.369 -17.472  21.135  1.00  0.00     0.065 C 
HETATM    2  C7  UNL     1      16.789 -16.230  21.035  1.00  0.00     0.048 C 
HETATM    3  C8  UNL     1      16.256 -15.328  20.013  1.00  0.00     0.174 C 
HETATM    4  O1  UNL     1      16.236 -15.773  18.804  1.00  0.00    -0.292 OA
HETATM    5  C9  UNL     1      15.777 -13.962  20.386  1.00  0.00     0.162 C 
HETATM    6  C12 UNL     1      17.014 -13.352  20.984  1.00  0.00     0.231 C 
HETATM    7  O4  UNL     1      17.338 -12.192  20.677  1.00  0.00    -0.273 OA
HETATM    8  N1  UNL     1      17.746 -14.140  21.868  1.00  0.00    -0.335 N 
ATOM      9  H1  UNL     1      18.327 -13.637  22.538  1.00  0.00     0.164 HD
HETATM   10  C13 UNL     1      17.786 -15.588  21.955  1.00  0.00     0.225 C 
HETATM   11  N2  UNL     1      17.553 -15.872  23.348  1.00  0.00    -0.333 N 
ATOM     12  H2  UNL     1      16.659 -16.249  23.665  1.00  0.00     0.165 HD
HETATM   13  C14 UNL     1      18.611 -15.610  24.267  1.00  0.00     0.248 C 
HETATM   14  O5  UNL     1      18.384 -15.205  25.430  1.00  0.00    -0.271 OA
HETATM   15  C15 UNL     1      20.047 -15.813  23.872  1.00  0.00     0.209 C 
HETATM   16  C16 UNL     1      20.945 -15.040  24.834  1.00  0.00     0.049 C 
HETATM   17  O6  UNL     1      20.353 -17.184  23.875  1.00  0.00    -0.374 OA
HETATM   18  C17 UNL     1      21.067 -17.585  22.757  1.00  0.00     0.202 C 
HETATM   19  C18 UNL     1      20.666 -18.945  22.239  1.00  0.00     0.159 C 
HETATM   20  C19 UNL     1      19.338 -18.913  21.480  1.00  0.00     0.156 C 
HETATM   21  N3  UNL     1      18.258 -18.731  22.386  1.00  0.00    -0.354 N 
ATOM     22  H3  UNL     1      18.496 -18.859  23.370  1.00  0.00     0.162 HD
HETATM   23  C20 UNL     1      16.915 -18.404  22.140  1.00  0.00     0.253 C 
HETATM   24  O8  UNL     1      16.067 -19.007  22.903  1.00  0.00    -0.268 OA
ENDROOT
BRANCH   1  25
HETATM   25  C5  UNL     1      15.328 -18.008  20.246  1.00  0.00     0.052 A 
HETATM   26  C4  UNL     1      15.472 -18.916  19.295  1.00  0.00     0.023 A 
HETATM   27  C3  UNL     1      14.353 -19.312  18.552  1.00  0.00     0.018 A 
HETATM   28  C2  UNL     1      13.197 -18.772  18.833  1.00  0.00     0.010 A 
HETATM   29  C1  UNL     1      11.853 -18.962  18.243  1.00  0.00     0.059 C 
HETATM   30  S1  UNL     1      13.552 -17.746  20.241  1.00  0.00     0.081 S 
HETATM   31  O9  UNL     1      13.086 -18.661  21.425  1.00  0.00    -0.247 OA
ENDBRANCH   1  25
BRANCH   5  32
HETATM   32  C10 UNL     1      15.268 -13.233  19.196  1.00  0.00     0.135 C 
BRANCH  32  33
HETATM   33  C11 UNL     1      13.841 -12.899  19.357  1.00  0.00     0.173 C 
HETATM   34  O2  UNL     1      13.422 -11.721  19.296  1.00  0.00    -0.648 OA
HETATM   35  O3  UNL     1      12.937 -13.961  19.585  1.00  0.00    -0.648 OA
ENDBRANCH  32  33
ENDBRANCH   5  32
BRANCH  19  36
HETATM   36  O7  UNL     1      21.654 -19.589  21.532  1.00  0.00    -0.392 OA
ATOM     37  H7  UNL     1      21.351 -20.346  21.044  1.00  0.00     0.210 HD
ENDBRANCH  19  36
TORSDOF 4
ENDMDL
MODEL 4
REMARK VINA RESULT: -7.301962747      2.578      6.478
REMARK  4 active torsions:
REMARK  status: ('A' for Active; 'I' for Inactive)
REMARK    1  A    between atoms: C5_5  and  C6_6 
REMARK    2  A    between atoms: C9_10  and  C10_11 
REMARK    3  A    between atoms: C10_11  and  C11_12 
REMARK    4  A    between atoms: C18_28  and  O7_29 
ROOT
HETATM    1  C6  UNL     1      17.315 -16.818  21.618  1.00  0.00     0.065 C 
HETATM    2  C7  UNL     1      16.032 -16.527  21.636  1.00  0.00     0.048 C 
HETATM    3  C8  UNL     1      15.563 -15.152  21.466  1.00  0.00     0.174 C 
HETATM    4  O1  UNL     1      16.119 -14.256  22.207  1.00  0.00    -0.292 OA
HETATM    5  C9  UNL     1      14.484 -14.838  20.481  1.00  0.00     0.162 C 
HETATM    6  C12 UNL     1      13.349 -15.686  20.982  1.00  0.00     0.231 C 
HETATM    7  O4  UNL     1      12.206 -15.204  21.054  1.00  0.00    -0.273 OA
HETATM    8  N1  UNL     1      13.650 -16.994  21.349  1.00  0.00    -0.335 N 
ATOM      9  H1  UNL     1      12.874 -17.656  21.319  1.00  0.00     0.164 HD
HETATM   10  C13 UNL     1      14.929 -17.536  21.769  1.00  0.00     0.225 C 
HETATM   11  N2  UNL     1      15.113 -18.705  20.948  1.00  0.00    -0.333 N 
ATOM     12  H2  UNL     1      15.784 -18.708  20.179  1.00  0.00     0.165 HD
HETATM   13  C14 UNL     1      14.327 -19.857  21.244  1.00  0.00     0.248 C 
HETATM   14  O5  UNL     1      13.915 -20.620  20.340  1.00  0.00    -0.271 OA
HETATM   15  C15 UNL     1      13.963 -20.202  22.661  1.00  0.00     0.209 C 
HETATM   16  C16 UNL     1      12.778 -21.163  22.654  1.00  0.00     0.049 C 
HETATM   17  O6  UNL     1      15.073 -20.763  23.315  1.00  0.00    -0.374 OA
HETATM   18  C17 UNL     1      15.275 -20.247  24.585  1.00  0.00     0.202 C 
HETATM   19  C18 UNL     1      16.731 -20.059  24.937  1.00  0.00     0.159 C 
HETATM   20  C19 UNL     1      17.344 -18.834  24.254  1.00  0.00     0.156 C 
HETATM   21  N3  UNL     1      17.517 -19.082  22.865  1.00  0.00    -0.354 N 
ATOM     22  H3  UNL     1      17.414 -20.058  22.586  1.00  0.00     0.162 HD
HETATM   23  C20 UNL     1      17.808 -18.195  21.817  1.00  0.00     0.253 C 
HETATM   24  O8  UNL     1      18.610 -18.665  20.922  1.00  0.00    -0.268 OA
ENDROOT
BRANCH   1  25
HETATM   25  C5  UNL     1      18.338 -15.784  21.402  1.00  0.00     0.052 A 
HETATM   26  C4  UNL     1      19.272 -15.389  22.250  1.00  0.00     0.023 A 
HETATM   27  C3  UNL     1      20.171 -14.389  21.859  1.00  0.00     0.018 A 
HETATM   28  C2  UNL     1      20.058 -13.885  20.659  1.00  0.00     0.010 A 
HETATM   29  C1  UNL     1      20.826 -12.832  19.956  1.00  0.00     0.059 C 
HETATM   30  S1  UNL     1      18.754 -14.848  19.928  1.00  0.00     0.081 S 
HETATM   31  O9  UNL     1      19.566 -15.899  19.095  1.00  0.00    -0.247 OA
ENDBRANCH   1  25
BRANCH   5  32
HETATM   32  C10 UNL     1      14.182 -13.383  20.469  1.00  0.00     0.135 C 
BRANCH  32  33
HETATM   33  C11 UNL     1      14.537 -12.784  19.170  1.00  0.00     0.173 C 
HETATM   34  O2  UNL     1      13.686 -12.232  18.436  1.00  0.00    -0.648 OA
HETATM   35  O3  UNL     1      15.889 -12.848  18.763  1.00  0.00    -0.648 OA
ENDBRANCH  32  33
ENDBRANCH   5  32
BRANCH  19  36
HETATM   36  O7  UNL     1      16.989 -20.084  26.288  1.00  0.00    -0.392 OA
ATOM     37  H7  UNL     1      17.164 -20.952  26.632  1.00  0.00     0.210 HD
ENDBRANCH  19  36
TORSDOF 4
ENDMDL
MODEL 5
REMARK VINA RESULT: -7.283113674      2.507      6.803
REMARK  4 active torsions:
REMARK  status: ('A' for Active; 'I' for Inactive)
REMARK    1  A    between atoms: C5_5  and  C6_6 
REMARK    2  A    between atoms: C9_10  and  C10_11 
REMARK    3  A    between atoms: C10_11  and  C11_12 
REMARK    4  A    between atoms: C18_28  and  O7_29 
ROOT
HETATM    1  C6  UNL     1      15.938 -17.237  21.779  1.00  0.00     0.065 C 
HETATM    2  C7  UNL     1      16.507 -16.115  21.395  1.00  0.00     0.048 C 
HETATM    3  C8  UNL     1      15.908 -15.277  20.355  1.00  0.00     0.174 C 
HETATM    4  O1  UNL     1      15.564 -15.869  19.263  1.00  0.00    -0.292 OA
HETATM    5  C9  UNL     1      15.727 -13.810  20.577  1.00  0.00     0.162 C 
HETATM    6  C12 UNL     1      17.140 -13.357  20.821  1.00  0.00     0.231 C 
HETATM    7  O4  UNL     1      17.559 -12.326  20.269  1.00  0.00    -0.273 OA
HETATM    8  N1  UNL     1      17.918 -14.138  21.670  1.00  0.00    -0.335 N 
ATOM      9  H1  UNL     1      18.697 -13.662  22.125  1.00  0.00     0.164 HD
HETATM   10  C13 UNL     1      17.761 -15.545  21.990  1.00  0.00     0.225 C 
HETATM   11  N2  UNL     1      17.791 -15.593  23.429  1.00  0.00    -0.333 N 
ATOM     12  H2  UNL     1      16.940 -15.758  23.968  1.00  0.00     0.165 HD
HETATM   13  C14 UNL     1      19.048 -15.405  24.076  1.00  0.00     0.248 C 
HETATM   14  O5  UNL     1      19.136 -14.813  25.177  1.00  0.00    -0.271 OA
HETATM   15  C15 UNL     1      20.320 -15.912  23.458  1.00  0.00     0.209 C 
HETATM   16  C16 UNL     1      21.507 -15.192  24.090  1.00  0.00     0.049 C 
HETATM   17  O6  UNL     1      20.413 -17.303  23.633  1.00  0.00    -0.374 OA
HETATM   18  C17 UNL     1      20.805 -17.972  22.484  1.00  0.00     0.202 C 
HETATM   19  C18 UNL     1      20.105 -19.295  22.286  1.00  0.00     0.159 C 
HETATM   20  C19 UNL     1      18.666 -19.127  21.795  1.00  0.00     0.156 C 
HETATM   21  N3  UNL     1      17.843 -18.635  22.846  1.00  0.00    -0.354 N 
ATOM     22  H3  UNL     1      18.264 -18.670  23.774  1.00  0.00     0.162 HD
HETATM   23  C20 UNL     1      16.542 -18.109  22.805  1.00  0.00     0.253 C 
HETATM   24  O8  UNL     1      15.796 -18.442  23.804  1.00  0.00    -0.268 OA
ENDROOT
BRANCH   1  25
HETATM   25  C5  UNL     1      14.663 -17.692  21.204  1.00  0.00     0.052 A 
HETATM   26  C4  UNL     1      13.504 -17.055  21.216  1.00  0.00     0.023 A 
HETATM   27  C3  UNL     1      12.392 -17.648  20.604  1.00  0.00     0.018 A 
HETATM   28  C2  UNL     1      12.544 -18.813  20.033  1.00  0.00     0.010 A 
HETATM   29  C1  UNL     1      11.590 -19.693  19.322  1.00  0.00     0.059 C 
HETATM   30  S1  UNL     1      14.286 -19.131  20.201  1.00  0.00     0.081 S 
HETATM   31  O9  UNL     1      14.824 -18.696  18.794  1.00  0.00    -0.247 OA
ENDBRANCH   1  25
BRANCH   5  32
HETATM   32  C10 UNL     1      15.089 -13.168  19.399  1.00  0.00     0.135 C 
BRANCH  32  33
HETATM   33  C11 UNL     1      13.683 -12.832  19.683  1.00  0.00     0.173 C 
HETATM   34  O2  UNL     1      13.311 -11.658  19.909  1.00  0.00    -0.648 OA
HETATM   35  O3  UNL     1      12.743 -13.887  19.692  1.00  0.00    -0.648 OA
ENDBRANCH  32  33
ENDBRANCH   5  32
BRANCH  19  36
HETATM   36  O7  UNL     1      20.813 -20.195  21.524  1.00  0.00    -0.392 OA
ATOM     37  H7  UNL     1      21.444 -20.707  22.016  1.00  0.00     0.210 HD
ENDBRANCH  19  36
TORSDOF 4
ENDMDL
