MODEL 1
REMARK VINA RESULT: -8.139279526      0.000      0.000
REMARK  10 active torsions:
REMARK  status: ('A' for Active; 'I' for Inactive)
REMARK    1  A    between atoms: C2_2  and  N1_3 
REMARK       I    between atoms: N1_3  and  C3_5 
REMARK    2  A    between atoms: C3_5  and  C4_7 
REMARK    3  A    between atoms: C4_7  and  O3_9 
REMARK    4  A    between atoms: O3_9  and  C5_10 
REMARK    5  A    between atoms: C7_12  and  O4_13 
REMARK    6  A    between atoms: C7_12  and  C8_15 
REMARK    7  A    between atoms: C9_16  and  O5_17 
REMARK    8  A    between atoms: C13_25  and  N3_26 
REMARK    9  A    between atoms: N3_26  and  S1_28 
REMARK   10  A    between atoms: C18_35  and  O9_37 
ROOT
HETATM    1  C5  UNL     1      17.007 -16.613  22.038  1.00  0.00     0.169 C 
HETATM    2  C6  UNL     1      16.427 -16.469  20.653  1.00  0.00     0.074 C 
HETATM    3  C7  UNL     1      14.904 -16.405  20.695  1.00  0.00     0.072 C 
HETATM    4  C15 UNL     1      14.296 -17.427  21.580  1.00  0.00     0.019 C 
HETATM    5  C16 UNL     1      13.635 -18.578  20.793  1.00  0.00     0.013 C 
HETATM    6  C17 UNL     1      15.132 -18.007  22.669  1.00  0.00     0.047 C 
HETATM    7  C18 UNL     1      16.596 -18.001  22.503  1.00  0.00     0.084 C 
HETATM    8  C19 UNL     1      17.222 -18.159  23.898  1.00  0.00     0.049 C 
ENDROOT
BRANCH   3   9
HETATM    9  O4  UNL     1      14.546 -16.792  19.371  1.00  0.00    -0.389 OA
ATOM     10  H4  UNL     1      15.296 -17.309  19.100  1.00  0.00     0.210 HD
ENDBRANCH   3   9
BRANCH   3  11
HETATM   11  C8  UNL     1      14.484 -15.044  21.027  1.00  0.00     0.083 C 
HETATM   12  C9  UNL     1      13.140 -14.560  20.628  1.00  0.00     0.164 C 
HETATM   13  C10 UNL     1      13.241 -13.138  21.159  1.00  0.00     0.022 A 
HETATM   14  C11 UNL     1      12.582 -12.066  21.685  1.00  0.00     0.179 A 
HETATM   15  C12 UNL     1      14.563 -12.763  21.085  1.00  0.00     0.067 A 
HETATM   16  O6  UNL     1      13.455 -11.106  21.913  1.00  0.00    -0.249 OA
HETATM   17  N2  UNL     1      14.633 -11.524  21.555  1.00  0.00    -0.263 N 
ATOM     18  H2  UNL     1      15.490 -10.976  21.625  1.00  0.00     0.194 HD
HETATM   19  C13 UNL     1      15.355 -13.924  20.497  1.00  0.00     0.155 C 
BRANCH  12  20
HETATM   20  O5  UNL     1      12.796 -14.469  19.357  1.00  0.00    -0.390 OA
ATOM     21  H5  UNL     1      11.923 -14.194  19.102  1.00  0.00     0.210 HD
ENDBRANCH  12  20
BRANCH  19  22
HETATM   22  N3  UNL     1      15.311 -13.731  19.090  1.00  0.00    -0.309 N 
ATOM     23  H3  UNL     1      14.532 -13.998  18.487  1.00  0.00     0.172 HD
BRANCH  22  24
HETATM   24  S1  UNL     1      16.761 -12.984  18.551  1.00  0.00     0.223 S 
HETATM   25  C14 UNL     1      17.959 -14.228  18.068  1.00  0.00     0.185 C 
HETATM   26  O7  UNL     1      16.504 -12.015  17.449  1.00  0.00    -0.206 OA
HETATM   27  O8  UNL     1      17.402 -12.261  19.723  1.00  0.00    -0.206 OA
ENDBRANCH  22  24
ENDBRANCH  19  22
ENDBRANCH   3  11
BRANCH   1  28
HETATM   28  O3  UNL     1      18.358 -16.361  22.116  1.00  0.00    -0.305 OA
BRANCH  28  29
HETATM   29  C4  UNL     1      18.979 -15.190  22.470  1.00  0.00     0.351 C 
HETATM   30  O2  UNL     1      18.480 -14.127  22.037  1.00  0.00    -0.254 OA
BRANCH  29  31
HETATM   31  C3  UNL     1      20.163 -15.100  23.306  1.00  0.00     0.317 C 
HETATM   32  N1  UNL     1      20.094 -14.997  24.713  1.00  0.00    -0.353 N 
ATOM     33  H1  UNL     1      19.173 -14.987  25.151  1.00  0.00     0.162 HD
HETATM   34  O1  UNL     1      21.294 -15.112  22.768  1.00  0.00    -0.262 OA
BRANCH  32  35
HETATM   35  C2  UNL     1      21.244 -14.907  25.555  1.00  0.00     0.118 C 
HETATM   36  C1  UNL     1      21.134 -13.817  26.588  1.00  0.00     0.026 C 
ENDBRANCH  32  35
ENDBRANCH  29  31
ENDBRANCH  28  29
ENDBRANCH   1  28
BRANCH   7  37
HETATM   37  O9  UNL     1      17.109 -18.939  21.661  1.00  0.00    -0.383 OA
HETATM   38  C20 UNL     1      16.832 -20.240  21.944  1.00  0.00     0.202 C 
ENDBRANCH   7  37
TORSDOF 10
ENDMDL
MODEL 2
REMARK VINA RESULT: -7.959830806      1.373      1.913
REMARK  10 active torsions:
REMARK  status: ('A' for Active; 'I' for Inactive)
REMARK    1  A    between atoms: C2_2  and  N1_3 
REMARK       I    between atoms: N1_3  and  C3_5 
REMARK    2  A    between atoms: C3_5  and  C4_7 
REMARK    3  A    between atoms: C4_7  and  O3_9 
REMARK    4  A    between atoms: O3_9  and  C5_10 
REMARK    5  A    between atoms: C7_12  and  O4_13 
REMARK    6  A    between atoms: C7_12  and  C8_15 
REMARK    7  A    between atoms: C9_16  and  O5_17 
REMARK    8  A    between atoms: C13_25  and  N3_26 
REMARK    9  A    between atoms: N3_26  and  S1_28 
REMARK   10  A    between atoms: C18_35  and  O9_37 
ROOT
HETATM    1  C5  UNL     1      16.848 -16.717  22.056  1.00  0.00     0.169 C 
HETATM    2  C6  UNL     1      16.262 -16.525  20.680  1.00  0.00     0.074 C 
HETATM    3  C7  UNL     1      14.740 -16.447  20.732  1.00  0.00     0.072 C 
HETATM    4  C15 UNL     1      14.127 -17.490  21.589  1.00  0.00     0.019 C 
HETATM    5  C16 UNL     1      13.449 -18.610  20.771  1.00  0.00     0.013 C 
HETATM    6  C17 UNL     1      14.963 -18.110  22.655  1.00  0.00     0.047 C 
HETATM    7  C18 UNL     1      16.426 -18.115  22.481  1.00  0.00     0.084 C 
HETATM    8  C19 UNL     1      17.059 -18.321  23.867  1.00  0.00     0.049 C 
ENDROOT
BRANCH   3   9
HETATM    9  O4  UNL     1      14.371 -16.791  19.399  1.00  0.00    -0.389 OA
ATOM     10  H4  UNL     1      15.211 -16.827  18.958  1.00  0.00     0.210 HD
ENDBRANCH   3   9
BRANCH   3  11
HETATM   11  C8  UNL     1      14.336 -15.093  21.107  1.00  0.00     0.083 C 
HETATM   12  C9  UNL     1      12.977 -14.601  20.775  1.00  0.00     0.164 C 
HETATM   13  C10 UNL     1      13.102 -13.189  21.328  1.00  0.00     0.022 A 
HETATM   14  C11 UNL     1      12.466 -12.127  21.901  1.00  0.00     0.179 A 
HETATM   15  C12 UNL     1      14.420 -12.814  21.206  1.00  0.00     0.067 A 
HETATM   16  O6  UNL     1      13.350 -11.172  22.111  1.00  0.00    -0.249 OA
HETATM   17  N2  UNL     1      14.511 -11.583  21.696  1.00  0.00    -0.263 N 
ATOM     18  H2  UNL     1      15.371 -11.037  21.741  1.00  0.00     0.194 HD
HETATM   19  C13 UNL     1      15.185 -13.963  20.563  1.00  0.00     0.155 C 
BRANCH  12  20
HETATM   20  O5  UNL     1      12.580 -14.485  19.521  1.00  0.00    -0.390 OA
ATOM     21  H5  UNL     1      12.322 -13.644  19.162  1.00  0.00     0.210 HD
ENDBRANCH  12  20
BRANCH  19  22
HETATM   22  N3  UNL     1      15.083 -13.743  19.163  1.00  0.00    -0.309 N 
ATOM     23  H3  UNL     1      14.247 -13.917  18.604  1.00  0.00     0.172 HD
BRANCH  22  24
HETATM   24  S1  UNL     1      16.571 -13.144  18.549  1.00  0.00     0.223 S 
HETATM   25  C14 UNL     1      17.581 -14.496  17.940  1.00  0.00     0.185 C 
HETATM   26  O7  UNL     1      16.357 -12.107  17.502  1.00  0.00    -0.206 OA
HETATM   27  O8  UNL     1      17.368 -12.550  19.697  1.00  0.00    -0.206 OA
ENDBRANCH  22  24
ENDBRANCH  19  22
ENDBRANCH   3  11
BRANCH   1  28
HETATM   28  O3  UNL     1      18.203 -16.481  22.133  1.00  0.00    -0.305 OA
BRANCH  28  29
HETATM   29  C4  UNL     1      18.838 -15.367  22.619  1.00  0.00     0.351 C 
HETATM   30  O2  UNL     1      18.479 -14.952  23.744  1.00  0.00    -0.254 OA
BRANCH  29  31
HETATM   31  C3  UNL     1      19.890 -14.644  21.925  1.00  0.00     0.317 C 
HETATM   32  N1  UNL     1      19.627 -13.763  20.854  1.00  0.00    -0.353 N 
ATOM     33  H1  UNL     1      18.658 -13.633  20.562  1.00  0.00     0.162 HD
HETATM   34  O1  UNL     1      21.080 -14.803  22.283  1.00  0.00    -0.262 OA
BRANCH  32  35
HETATM   35  C2  UNL     1      20.644 -13.042  20.157  1.00  0.00     0.118 C 
HETATM   36  C1  UNL     1      20.555 -13.194  18.662  1.00  0.00     0.026 C 
ENDBRANCH  32  35
ENDBRANCH  29  31
ENDBRANCH  28  29
ENDBRANCH   1  28
BRANCH   7  37
HETATM   37  O9  UNL     1      16.925 -19.032  21.608  1.00  0.00    -0.383 OA
HETATM   38  C20 UNL     1      16.722 -20.343  21.907  1.00  0.00     0.202 C 
ENDBRANCH   7  37
TORSDOF 10
ENDMDL
MODEL 3
REMARK VINA RESULT: -7.886538384      1.022      1.102
REMARK  10 active torsions:
REMARK  status: ('A' for Active; 'I' for Inactive)
REMARK    1  A    between atoms: C2_2  and  N1_3 
REMARK       I    between atoms: N1_3  and  C3_5 
REMARK    2  A    between atoms: C3_5  and  C4_7 
REMARK    3  A    between atoms: C4_7  and  O3_9 
REMARK    4  A    between atoms: O3_9  and  C5_10 
REMARK    5  A    between atoms: C7_12  and  O4_13 
REMARK    6  A    between atoms: C7_12  and  C8_15 
REMARK    7  A    between atoms: C9_16  and  O5_17 
REMARK    8  A    between atoms: C13_25  and  N3_26 
REMARK    9  A    between atoms: N3_26  and  S1_28 
REMARK   10  A    between atoms: C18_35  and  O9_37 
ROOT
HETATM    1  C5  UNL     1      16.534 -16.925  22.490  1.00  0.00     0.169 C 
HETATM    2  C6  UNL     1      16.323 -16.530  21.050  1.00  0.00     0.074 C 
HETATM    3  C7  UNL     1      14.850 -16.617  20.663  1.00  0.00     0.072 C 
HETATM    4  C15 UNL     1      14.192 -17.862  21.126  1.00  0.00     0.019 C 
HETATM    5  C16 UNL     1      13.941 -18.864  19.980  1.00  0.00     0.013 C 
HETATM    6  C17 UNL     1      14.790 -18.589  22.281  1.00  0.00     0.047 C 
HETATM    7  C18 UNL     1      16.229 -18.413  22.547  1.00  0.00     0.084 C 
HETATM    8  C19 UNL     1      16.483 -18.819  24.008  1.00  0.00     0.049 C 
ENDROOT
BRANCH   3   9
HETATM    9  O4  UNL     1      14.914 -16.731  19.243  1.00  0.00    -0.389 OA
ATOM     10  H4  UNL     1      14.191 -17.317  19.053  1.00  0.00     0.210 HD
ENDBRANCH   3   9
BRANCH   3  11
HETATM   11  C8  UNL     1      14.158 -15.409  21.108  1.00  0.00     0.083 C 
HETATM   12  C9  UNL     1      12.777 -15.128  20.650  1.00  0.00     0.164 C 
HETATM   13  C10 UNL     1      12.571 -13.790  21.346  1.00  0.00     0.022 A 
HETATM   14  C11 UNL     1      11.687 -12.931  21.930  1.00  0.00     0.179 A 
HETATM   15  C12 UNL     1      13.800 -13.177  21.432  1.00  0.00     0.067 A 
HETATM   16  O6  UNL     1      12.345 -11.867  22.342  1.00  0.00    -0.249 OA
HETATM   17  N2  UNL     1      13.602 -12.016  22.044  1.00  0.00    -0.263 N 
ATOM     18  H2  UNL     1      14.333 -11.336  22.252  1.00  0.00     0.194 HD
HETATM   19  C13 UNL     1      14.834 -14.091  20.789  1.00  0.00     0.155 C 
BRANCH  12  20
HETATM   20  O5  UNL     1      12.506 -14.937  19.372  1.00  0.00    -0.390 OA
ATOM     21  H5  UNL     1      11.870 -15.478  18.918  1.00  0.00     0.210 HD
ENDBRANCH  12  20
BRANCH  19  22
HETATM   22  N3  UNL     1      14.847 -13.730  19.414  1.00  0.00    -0.309 N 
ATOM     23  H3  UNL     1      14.021 -13.667  18.818  1.00  0.00     0.172 HD
BRANCH  22  24
HETATM   24  S1  UNL     1      16.456 -13.418  18.901  1.00  0.00     0.223 S 
HETATM   25  C14 UNL     1      17.461 -12.893  20.292  1.00  0.00     0.185 C 
HETATM   26  O7  UNL     1      17.053 -14.595  18.210  1.00  0.00    -0.206 OA
HETATM   27  O8  UNL     1      16.446 -12.228  17.958  1.00  0.00    -0.206 OA
ENDBRANCH  22  24
ENDBRANCH  19  22
ENDBRANCH   3  11
BRANCH   1  28
HETATM   28  O3  UNL     1      17.764 -16.573  23.000  1.00  0.00    -0.305 OA
BRANCH  28  29
HETATM   29  C4  UNL     1      18.189 -15.331  23.396  1.00  0.00     0.351 C 
HETATM   30  O2  UNL     1      17.337 -14.413  23.403  1.00  0.00    -0.254 OA
BRANCH  29  31
HETATM   31  C3  UNL     1      19.545 -15.011  23.805  1.00  0.00     0.317 C 
HETATM   32  N1  UNL     1      19.860 -14.560  25.105  1.00  0.00    -0.353 N 
ATOM     33  H1  UNL     1      19.101 -14.459  25.778  1.00  0.00     0.162 HD
HETATM   34  O1  UNL     1      20.478 -15.134  22.978  1.00  0.00    -0.262 OA
BRANCH  32  35
HETATM   35  C2  UNL     1      21.185 -14.239  25.530  1.00  0.00     0.118 C 
HETATM   36  C1  UNL     1      21.265 -13.870  26.987  1.00  0.00     0.026 C 
ENDBRANCH  32  35
ENDBRANCH  29  31
ENDBRANCH  28  29
ENDBRANCH   1  28
BRANCH   7  37
HETATM   37  O9  UNL     1      17.079 -19.090  21.729  1.00  0.00    -0.383 OA
HETATM   38  C20 UNL     1      16.966 -20.445  21.704  1.00  0.00     0.202 C 
ENDBRANCH   7  37
TORSDOF 10
ENDMDL
MODEL 4
REMARK VINA RESULT: -7.696181521      2.221      5.669
REMARK  10 active torsions:
REMARK  status: ('A' for Active; 'I' for Inactive)
REMARK    1  A    between atoms: C2_2  and  N1_3 
REMARK       I    between atoms: N1_3  and  C3_5 
REMARK    2  A    between atoms: C3_5  and  C4_7 
REMARK    3  A    between atoms: C4_7  and  O3_9 
REMARK    4  A    between atoms: O3_9  and  C5_10 
REMARK    5  A    between atoms: C7_12  and  O4_13 
REMARK    6  A    between atoms: C7_12  and  C8_15 
REMARK    7  A    between atoms: C9_16  and  O5_17 
REMARK    8  A    between atoms: C13_25  and  N3_26 
REMARK    9  A    between atoms: N3_26  and  S1_28 
REMARK   10  A    between atoms: C18_35  and  O9_37 
ROOT
HETATM    1  C5  UNL     1      17.166 -17.466  20.970  1.00  0.00     0.169 C 
HETATM    2  C6  UNL     1      17.295 -16.044  21.455  1.00  0.00     0.074 C 
HETATM    3  C7  UNL     1      18.698 -15.499  21.205  1.00  0.00     0.072 C 
HETATM    4  C15 UNL     1      19.773 -16.445  21.588  1.00  0.00     0.019 C 
HETATM    5  C16 UNL     1      20.490 -16.035  22.892  1.00  0.00     0.013 C 
HETATM    6  C17 UNL     1      19.447 -17.897  21.653  1.00  0.00     0.047 C 
HETATM    7  C18 UNL     1      18.047 -18.288  21.897  1.00  0.00     0.084 C 
HETATM    8  C19 UNL     1      17.881 -19.741  21.425  1.00  0.00     0.049 C 
ENDROOT
BRANCH   3   9
HETATM    9  O4  UNL     1      18.783 -14.432  22.145  1.00  0.00    -0.389 OA
ATOM     10  H4  UNL     1      19.396 -13.839  21.725  1.00  0.00     0.210 HD
ENDBRANCH   3   9
BRANCH   3  11
HETATM   11  C8  UNL     1      18.804 -15.050  19.817  1.00  0.00     0.083 C 
HETATM   12  C9  UNL     1      19.965 -14.236  19.384  1.00  0.00     0.164 C 
HETATM   13  C10 UNL     1      19.565 -14.019  17.932  1.00  0.00     0.022 A 
HETATM   14  C11 UNL     1      19.984 -13.834  16.647  1.00  0.00     0.179 A 
HETATM   15  C12 UNL     1      18.189 -14.008  17.881  1.00  0.00     0.067 A 
HETATM   16  O6  UNL     1      18.925 -13.718  15.872  1.00  0.00    -0.249 OA
HETATM   17  N2  UNL     1      17.858 -13.822  16.609  1.00  0.00    -0.263 N 
ATOM     18  H2  UNL     1      16.902 -13.769  16.258  1.00  0.00     0.194 HD
HETATM   19  C13 UNL     1      17.659 -14.207  19.294  1.00  0.00     0.155 C 
BRANCH  12  20
HETATM   20  O5  UNL     1      20.193 -13.042  19.898  1.00  0.00    -0.390 OA
ATOM     21  H5  UNL     1      19.933 -12.251  19.439  1.00  0.00     0.210 HD
ENDBRANCH  12  20
BRANCH  19  22
HETATM   22  N3  UNL     1      17.563 -12.900  19.845  1.00  0.00    -0.309 N 
ATOM     23  H3  UNL     1      18.319 -12.215  19.859  1.00  0.00     0.172 HD
BRANCH  22  24
HETATM   24  S1  UNL     1      15.989 -12.643  20.483  1.00  0.00     0.223 S 
HETATM   25  C14 UNL     1      14.747 -13.223  19.325  1.00  0.00     0.185 C 
HETATM   26  O7  UNL     1      15.827 -13.278  21.821  1.00  0.00    -0.206 OA
HETATM   27  O8  UNL     1      15.747 -11.149  20.597  1.00  0.00    -0.206 OA
ENDBRANCH  22  24
ENDBRANCH  19  22
ENDBRANCH   3  11
BRANCH   1  28
HETATM   28  O3  UNL     1      15.868 -17.914  20.869  1.00  0.00    -0.305 OA
BRANCH  28  29
HETATM   29  C4  UNL     1      14.779 -17.518  21.603  1.00  0.00     0.351 C 
HETATM   30  O2  UNL     1      14.625 -18.050  22.725  1.00  0.00    -0.254 OA
BRANCH  29  31
HETATM   31  C3  UNL     1      13.803 -16.533  21.172  1.00  0.00     0.317 C 
HETATM   32  N1  UNL     1      13.423 -15.437  21.976  1.00  0.00    -0.353 N 
ATOM     33  H1  UNL     1      13.856 -15.340  22.895  1.00  0.00     0.162 HD
HETATM   34  O1  UNL     1      13.271 -16.652  20.043  1.00  0.00    -0.262 OA
BRANCH  32  35
HETATM   35  C2  UNL     1      12.466 -14.456  21.574  1.00  0.00     0.118 C 
HETATM   36  C1  UNL     1      12.481 -13.226  22.442  1.00  0.00     0.026 C 
ENDBRANCH  32  35
ENDBRANCH  29  31
ENDBRANCH  28  29
ENDBRANCH   1  28
BRANCH   7  37
HETATM   37  O9  UNL     1      17.605 -18.169  23.179  1.00  0.00    -0.383 OA
HETATM   38  C20 UNL     1      18.298 -18.841  24.136  1.00  0.00     0.202 C 
ENDBRANCH   7  37
TORSDOF 10
ENDMDL
MODEL 5
REMARK VINA RESULT: -7.634007239      1.636      2.236
REMARK  10 active torsions:
REMARK  status: ('A' for Active; 'I' for Inactive)
REMARK    1  A    between atoms: C2_2  and  N1_3 
REMARK       I    between atoms: N1_3  and  C3_5 
REMARK    2  A    between atoms: C3_5  and  C4_7 
REMARK    3  A    between atoms: C4_7  and  O3_9 
REMARK    4  A    between atoms: O3_9  and  C5_10 
REMARK    5  A    between atoms: C7_12  and  O4_13 
REMARK    6  A    between atoms: C7_12  and  C8_15 
REMARK    7  A    between atoms: C9_16  and  O5_17 
REMARK    8  A    between atoms: C13_25  and  N3_26 
REMARK    9  A    between atoms: N3_26  and  S1_28 
REMARK   10  A    between atoms: C18_35  and  O9_37 
ROOT
HETATM    1  C5  UNL     1      16.588 -16.689  22.636  1.00  0.00     0.169 C 
HETATM    2  C6  UNL     1      16.440 -16.305  21.185  1.00  0.00     0.074 C 
HETATM    3  C7  UNL     1      14.984 -16.387  20.737  1.00  0.00     0.072 C 
HETATM    4  C15 UNL     1      14.301 -17.624  21.182  1.00  0.00     0.019 C 
HETATM    5  C16 UNL     1      14.092 -18.635  20.035  1.00  0.00     0.013 C 
HETATM    6  C17 UNL     1      14.845 -18.346  22.366  1.00  0.00     0.047 C 
HETATM    7  C18 UNL     1      16.273 -18.175  22.692  1.00  0.00     0.084 C 
HETATM    8  C19 UNL     1      16.463 -18.571  24.165  1.00  0.00     0.049 C 
ENDROOT
BRANCH   3   9
HETATM    9  O4  UNL     1      15.107 -16.513  19.323  1.00  0.00    -0.389 OA
ATOM     10  H4  UNL     1      14.324 -17.000  19.093  1.00  0.00     0.210 HD
ENDBRANCH   3   9
BRANCH   3  11
HETATM   11  C8  UNL     1      14.281 -15.171  21.144  1.00  0.00     0.083 C 
HETATM   12  C9  UNL     1      12.891 -14.926  20.690  1.00  0.00     0.164 C 
HETATM   13  C10 UNL     1      12.675 -13.566  21.337  1.00  0.00     0.022 A 
HETATM   14  C11 UNL     1      11.785 -12.696  21.897  1.00  0.00     0.179 A 
HETATM   15  C12 UNL     1      13.897 -12.934  21.387  1.00  0.00     0.067 A 
HETATM   16  O6  UNL     1      12.434 -11.609  22.262  1.00  0.00    -0.249 OA
HETATM   17  N2  UNL     1      13.689 -11.753  21.957  1.00  0.00    -0.263 N 
ATOM     18  H2  UNL     1      14.414 -11.056  22.131  1.00  0.00     0.194 HD
HETATM   19  C13 UNL     1      14.936 -13.858  20.768  1.00  0.00     0.155 C 
BRANCH  12  20
HETATM   20  O5  UNL     1      12.605 -14.787  19.408  1.00  0.00    -0.390 OA
ATOM     21  H5  UNL     1      13.143 -14.249  18.840  1.00  0.00     0.210 HD
ENDBRANCH  12  20
BRANCH  19  22
HETATM   22  N3  UNL     1      14.931 -13.550  19.381  1.00  0.00    -0.309 N 
ATOM     23  H3  UNL     1      14.095 -13.477  18.801  1.00  0.00     0.172 HD
BRANCH  22  24
HETATM   24  S1  UNL     1      16.539 -13.318  18.822  1.00  0.00     0.223 S 
HETATM   25  C14 UNL     1      17.601 -12.812  20.176  1.00  0.00     0.185 C 
HETATM   26  O7  UNL     1      17.065 -14.534  18.140  1.00  0.00    -0.206 OA
HETATM   27  O8  UNL     1      16.556 -12.147  17.856  1.00  0.00    -0.206 OA
ENDBRANCH  22  24
ENDBRANCH  19  22
ENDBRANCH   3  11
BRANCH   1  28
HETATM   28  O3  UNL     1      17.797 -16.340  23.194  1.00  0.00    -0.305 OA
BRANCH  28  29
HETATM   29  C4  UNL     1      18.896 -15.812  22.564  1.00  0.00     0.351 C 
HETATM   30  O2  UNL     1      19.153 -14.607  22.783  1.00  0.00    -0.254 OA
BRANCH  29  31
HETATM   31  C3  UNL     1      19.773 -16.549  21.672  1.00  0.00     0.317 C 
HETATM   32  N1  UNL     1      20.043 -17.925  21.837  1.00  0.00    -0.353 N 
ATOM     33  H1  UNL     1      19.601 -18.414  22.615  1.00  0.00     0.162 HD
HETATM   34  O1  UNL     1      20.317 -15.949  20.716  1.00  0.00    -0.262 OA
BRANCH  32  35
HETATM   35  C2  UNL     1      20.903 -18.670  20.973  1.00  0.00     0.118 C 
HETATM   36  C1  UNL     1      20.626 -20.150  20.999  1.00  0.00     0.026 C 
ENDBRANCH  32  35
ENDBRANCH  29  31
ENDBRANCH  28  29
ENDBRANCH   1  28
BRANCH   7  37
HETATM   37  O9  UNL     1      17.153 -18.863  21.915  1.00  0.00    -0.383 OA
HETATM   38  C20 UNL     1      17.008 -20.214  21.865  1.00  0.00     0.202 C 
ENDBRANCH   7  37
TORSDOF 10
ENDMDL
