MODEL 1
REMARK VINA RESULT: -8.409040113      0.000      0.000
REMARK  10 active torsions:
REMARK  status: ('A' for Active; 'I' for Inactive)
REMARK    1  A    between atoms: C3_4  and  N1_5 
REMARK    2  A    between atoms: C3_4  and  C13_23 
REMARK       I    between atoms: N1_5  and  C4_7 
REMARK    3  A    between atoms: C4_7  and  C5_9 
REMARK       I    between atoms: C5_9  and  N2_11 
REMARK    4  A    between atoms: N2_11  and  C6_13 
REMARK    5  A    between atoms: C12_20  and  O5_21 
REMARK    6  A    between atoms: C13_23  and  O7_25 
REMARK    7  A    between atoms: O7_25  and  C14_26 
REMARK    8  A    between atoms: C14_26  and  C15_27 
REMARK    9  A    between atoms: C15_27  and  O8_28 
REMARK   10  A    between atoms: C15_27  and  C16_30 
ROOT
HETATM    1  O1  UNL     1      12.753 -10.858  22.855  1.00  0.00    -0.273 OA
HETATM    2  C1  UNL     1      12.811 -11.686  21.921  1.00  0.00     0.227 C 
HETATM    3  C2  UNL     1      12.665 -13.150  21.954  1.00  0.00     0.155 C 
HETATM    4  C3  UNL     1      13.349 -13.656  20.731  1.00  0.00     0.211 C 
HETATM    5  C20 UNL     1      13.333 -12.501  19.811  1.00  0.00     0.263 C 
HETATM    6  O9  UNL     1      13.531 -12.482  18.561  1.00  0.00    -0.270 OA
HETATM    7  N3  UNL     1      13.046 -11.330  20.564  1.00  0.00    -0.295 N 
ATOM      8  H3  UNL     1      13.014 -10.382  20.189  1.00  0.00     0.171 HD
ENDROOT
BRANCH   4   9
HETATM    9  N1  UNL     1      12.688 -14.761  20.091  1.00  0.00    -0.326 N 
HETATM   10  C4  UNL     1      12.582 -16.052  20.647  1.00  0.00     0.310 C 
HETATM   11  O2  UNL     1      13.089 -16.272  21.774  1.00  0.00    -0.262 OA
ATOM     12  H1  UNL     1      12.269 -14.600  19.175  1.00  0.00     0.164 HD
BRANCH  10  13
HETATM   13  C5  UNL     1      11.910 -17.133  19.964  1.00  0.00     0.309 C 
HETATM   14  O3  UNL     1      11.464 -18.098  20.629  1.00  0.00    -0.262 OA
HETATM   15  N2  UNL     1      11.743 -17.131  18.555  1.00  0.00    -0.346 N 
ATOM     16  H2  UNL     1      12.104 -16.349  18.009  1.00  0.00     0.163 HD
BRANCH  15  17
HETATM   17  C6  UNL     1      11.069 -18.219  17.878  1.00  0.00     0.118 C 
HETATM   18  C7  UNL     1      11.978 -19.395  17.812  1.00  0.00     0.059 C 
HETATM   19  C8  UNL     1      11.910 -20.193  16.568  1.00  0.00     0.124 C 
HETATM   20  C9  UNL     1      13.064 -19.742  15.662  1.00  0.00     0.034 C 
HETATM   21  O4  UNL     1      10.821 -19.913  15.755  1.00  0.00    -0.378 OA
HETATM   22  C10 UNL     1      12.501 -18.397  15.183  1.00  0.00     0.037 C 
HETATM   23  C11 UNL     1      11.034 -18.592  15.393  1.00  0.00     0.152 C 
HETATM   24  C12 UNL     1      10.588 -17.727  16.542  1.00  0.00     0.169 C 
BRANCH  24  25
HETATM   25  O5  UNL     1       9.191 -17.669  16.490  1.00  0.00    -0.391 OA
ATOM     26  H5  UNL     1       8.826 -17.333  17.301  1.00  0.00     0.210 HD
ENDBRANCH  24  25
ENDBRANCH  15  17
ENDBRANCH  10  13
ENDBRANCH   4   9
BRANCH   4  27
HETATM   27  C13 UNL     1      14.802 -13.973  20.972  1.00  0.00     0.297 C 
HETATM   28  O6  UNL     1      15.342 -13.692  22.071  1.00  0.00    -0.262 OA
BRANCH  27  29
HETATM   29  O7  UNL     1      15.571 -14.577  19.998  1.00  0.00    -0.316 OA
BRANCH  29  30
HETATM   30  C14 UNL     1      16.834 -14.144  19.577  1.00  0.00     0.215 C 
BRANCH  30  31
HETATM   31  C15 UNL     1      16.868 -13.742  18.120  1.00  0.00     0.176 C 
BRANCH  31  32
HETATM   32  O8  UNL     1      16.235 -12.519  17.918  1.00  0.00    -0.389 OA
ATOM     33  H8  UNL     1      16.740 -11.960  17.339  1.00  0.00     0.210 HD
ENDBRANCH  31  32
BRANCH  31  34
HETATM   34  C16 UNL     1      18.313 -13.535  17.701  1.00  0.00    -0.021 A 
HETATM   35  C17 UNL     1      19.316 -13.476  18.583  1.00  0.00     0.017 A 
HETATM   36  C18 UNL     1      20.580 -13.280  18.087  1.00  0.00     0.050 A 
HETATM   37  S1  UNL     1      20.318 -13.185  16.405  1.00  0.00    -0.113 SA
HETATM   38  C19 UNL     1      18.624 -13.396  16.378  1.00  0.00     0.059 A 
ENDBRANCH  31  34
ENDBRANCH  30  31
ENDBRANCH  29  30
ENDBRANCH  27  29
ENDBRANCH   4  27
TORSDOF 10
ENDMDL
MODEL 2
REMARK VINA RESULT: -8.233980517      5.108      7.717
REMARK  10 active torsions:
REMARK  status: ('A' for Active; 'I' for Inactive)
REMARK    1  A    between atoms: C3_4  and  N1_5 
REMARK    2  A    between atoms: C3_4  and  C13_23 
REMARK       I    between atoms: N1_5  and  C4_7 
REMARK    3  A    between atoms: C4_7  and  C5_9 
REMARK       I    between atoms: C5_9  and  N2_11 
REMARK    4  A    between atoms: N2_11  and  C6_13 
REMARK    5  A    between atoms: C12_20  and  O5_21 
REMARK    6  A    between atoms: C13_23  and  O7_25 
REMARK    7  A    between atoms: O7_25  and  C14_26 
REMARK    8  A    between atoms: C14_26  and  C15_27 
REMARK    9  A    between atoms: C15_27  and  O8_28 
REMARK   10  A    between atoms: C15_27  and  C16_30 
ROOT
HETATM    1  O1  UNL     1      20.608 -14.393  20.448  1.00  0.00    -0.273 OA
HETATM    2  C1  UNL     1      19.563 -14.216  19.786  1.00  0.00     0.227 C 
HETATM    3  C2  UNL     1      18.950 -12.962  19.318  1.00  0.00     0.155 C 
HETATM    4  C3  UNL     1      17.511 -13.274  19.088  1.00  0.00     0.211 C 
HETATM    5  C20 UNL     1      17.493 -14.734  18.873  1.00  0.00     0.263 C 
HETATM    6  O9  UNL     1      16.578 -15.449  18.370  1.00  0.00    -0.270 OA
HETATM    7  N3  UNL     1      18.723 -15.273  19.339  1.00  0.00    -0.295 N 
ATOM      8  H3  UNL     1      18.965 -16.264  19.352  1.00  0.00     0.171 HD
ENDROOT
BRANCH   4   9
HETATM    9  N1  UNL     1      16.939 -12.634  17.934  1.00  0.00    -0.326 N 
HETATM   10  C4  UNL     1      17.586 -12.522  16.686  1.00  0.00     0.310 C 
HETATM   11  O2  UNL     1      18.736 -13.008  16.552  1.00  0.00    -0.262 OA
ATOM     12  H1  UNL     1      16.005 -12.235  18.025  1.00  0.00     0.164 HD
BRANCH  10  13
HETATM   13  C5  UNL     1      16.972 -11.867  15.555  1.00  0.00     0.309 C 
HETATM   14  O3  UNL     1      16.772 -10.629  15.596  1.00  0.00    -0.262 OA
HETATM   15  N2  UNL     1      16.586 -12.590  14.397  1.00  0.00    -0.346 N 
ATOM     16  H2  UNL     1      16.745 -13.596  14.359  1.00  0.00     0.163 HD
BRANCH  15  17
HETATM   17  C6  UNL     1      15.970 -11.925  13.268  1.00  0.00     0.118 C 
HETATM   18  C7  UNL     1      14.496 -12.116  13.330  1.00  0.00     0.059 C 
HETATM   19  C8  UNL     1      13.816 -12.312  12.029  1.00  0.00     0.124 C 
HETATM   20  C9  UNL     1      13.611 -13.820  11.833  1.00  0.00     0.034 C 
HETATM   21  O4  UNL     1      14.589 -12.011  10.917  1.00  0.00    -0.378 OA
HETATM   22  C10 UNL     1      15.048 -14.228  11.481  1.00  0.00     0.037 C 
HETATM   23  C11 UNL     1      15.619 -12.936  10.994  1.00  0.00     0.152 C 
HETATM   24  C12 UNL     1      16.612 -12.430  12.007  1.00  0.00     0.169 C 
BRANCH  24  25
HETATM   25  O5  UNL     1      17.362 -11.430  11.378  1.00  0.00    -0.391 OA
ATOM     26  H5  UNL     1      18.151 -11.782  10.982  1.00  0.00     0.210 HD
ENDBRANCH  24  25
ENDBRANCH  15  17
ENDBRANCH  10  13
ENDBRANCH   4   9
BRANCH   4  27
HETATM   27  C13 UNL     1      16.664 -13.023  20.309  1.00  0.00     0.297 C 
HETATM   28  O6  UNL     1      16.846 -13.691  21.358  1.00  0.00    -0.262 OA
BRANCH  27  29
HETATM   29  O7  UNL     1      15.675 -12.062  20.305  1.00  0.00    -0.316 OA
BRANCH  29  30
HETATM   30  C14 UNL     1      14.358 -12.249  20.744  1.00  0.00     0.215 C 
BRANCH  30  31
HETATM   31  C15 UNL     1      13.659 -10.955  21.090  1.00  0.00     0.176 C 
BRANCH  31  32
HETATM   32  O8  UNL     1      12.808 -10.550  20.064  1.00  0.00    -0.389 OA
ATOM     33  H8  UNL     1      12.013 -10.161  20.409  1.00  0.00     0.210 HD
ENDBRANCH  31  32
BRANCH  31  34
HETATM   34  C16 UNL     1      12.769 -11.185  22.299  1.00  0.00    -0.021 A 
HETATM   35  C17 UNL     1      12.521 -10.229  23.200  1.00  0.00     0.017 A 
HETATM   36  C18 UNL     1      11.706 -10.554  24.254  1.00  0.00     0.050 A 
HETATM   37  S1  UNL     1      11.316 -12.185  23.946  1.00  0.00    -0.113 SA
HETATM   38  C19 UNL     1      12.193 -12.408  22.497  1.00  0.00     0.059 A 
ENDBRANCH  31  34
ENDBRANCH  30  31
ENDBRANCH  29  30
ENDBRANCH  27  29
ENDBRANCH   4  27
TORSDOF 10
ENDMDL
MODEL 3
REMARK VINA RESULT: -8.211757968      2.998      5.352
REMARK  10 active torsions:
REMARK  status: ('A' for Active; 'I' for Inactive)
REMARK    1  A    between atoms: C3_4  and  N1_5 
REMARK    2  A    between atoms: C3_4  and  C13_23 
REMARK       I    between atoms: N1_5  and  C4_7 
REMARK    3  A    between atoms: C4_7  and  C5_9 
REMARK       I    between atoms: C5_9  and  N2_11 
REMARK    4  A    between atoms: N2_11  and  C6_13 
REMARK    5  A    between atoms: C12_20  and  O5_21 
REMARK    6  A    between atoms: C13_23  and  O7_25 
REMARK    7  A    between atoms: O7_25  and  C14_26 
REMARK    8  A    between atoms: C14_26  and  C15_27 
REMARK    9  A    between atoms: C15_27  and  O8_28 
REMARK   10  A    between atoms: C15_27  and  C16_30 
ROOT
HETATM    1  O1  UNL     1      20.142 -13.165  19.700  1.00  0.00    -0.273 OA
HETATM    2  C1  UNL     1      19.028 -13.625  20.032  1.00  0.00     0.227 C 
HETATM    3  C2  UNL     1      17.978 -14.234  19.199  1.00  0.00     0.155 C 
HETATM    4  C3  UNL     1      16.711 -14.090  19.970  1.00  0.00     0.211 C 
HETATM    5  C20 UNL     1      17.161 -13.956  21.370  1.00  0.00     0.263 C 
HETATM    6  O9  UNL     1      16.486 -14.086  22.433  1.00  0.00    -0.270 OA
HETATM    7  N3  UNL     1      18.546 -13.637  21.370  1.00  0.00    -0.295 N 
ATOM      8  H3  UNL     1      19.107 -13.447  22.200  1.00  0.00     0.171 HD
ENDROOT
BRANCH   4   9
HETATM    9  N1  UNL     1      15.826 -15.220  19.880  1.00  0.00    -0.326 N 
HETATM   10  C4  UNL     1      16.208 -16.551  20.146  1.00  0.00     0.310 C 
HETATM   11  O2  UNL     1      17.392 -16.787  20.488  1.00  0.00    -0.262 OA
ATOM     12  H1  UNL     1      14.859 -15.047  19.604  1.00  0.00     0.164 HD
BRANCH  10  13
HETATM   13  C5  UNL     1      15.282 -17.655  20.038  1.00  0.00     0.309 C 
HETATM   14  O3  UNL     1      15.277 -18.542  20.925  1.00  0.00    -0.262 OA
HETATM   15  N2  UNL     1      14.378 -17.761  18.951  1.00  0.00    -0.346 N 
ATOM     16  H2  UNL     1      14.378 -17.044  18.227  1.00  0.00     0.163 HD
BRANCH  15  17
HETATM   17  C6  UNL     1      13.453 -18.872  18.850  1.00  0.00     0.118 C 
HETATM   18  C7  UNL     1      13.162 -19.139  17.415  1.00  0.00     0.059 C 
HETATM   19  C8  UNL     1      11.770 -19.535  17.103  1.00  0.00     0.124 C 
HETATM   20  C9  UNL     1      11.027 -18.283  16.618  1.00  0.00     0.034 C 
HETATM   21  O4  UNL     1      11.002 -19.878  18.207  1.00  0.00    -0.378 OA
HETATM   22  C10 UNL     1      10.837 -17.563  17.961  1.00  0.00     0.037 C 
HETATM   23  C11 UNL     1      10.948 -18.697  18.929  1.00  0.00     0.152 C 
HETATM   24  C12 UNL     1      12.244 -18.566  19.685  1.00  0.00     0.169 C 
BRANCH  24  25
HETATM   25  O5  UNL     1      12.157 -19.417  20.792  1.00  0.00    -0.391 OA
ATOM     26  H5  UNL     1      12.356 -18.959  21.601  1.00  0.00     0.210 HD
ENDBRANCH  24  25
ENDBRANCH  15  17
ENDBRANCH  10  13
ENDBRANCH   4   9
BRANCH   4  27
HETATM   27  C13 UNL     1      15.979 -12.814  19.645  1.00  0.00     0.297 C 
HETATM   28  O6  UNL     1      16.531 -11.699  19.826  1.00  0.00    -0.262 OA
BRANCH  27  29
HETATM   29  O7  UNL     1      14.694 -12.838  19.144  1.00  0.00    -0.316 OA
BRANCH  29  30
HETATM   30  C14 UNL     1      13.526 -12.666  19.898  1.00  0.00     0.215 C 
BRANCH  30  31
HETATM   31  C15 UNL     1      13.454 -11.321  20.582  1.00  0.00     0.176 C 
BRANCH  31  32
HETATM   32  O8  UNL     1      12.748 -10.399  19.812  1.00  0.00    -0.389 OA
ATOM     33  H8  UNL     1      12.873  -9.514  20.133  1.00  0.00     0.210 HD
ENDBRANCH  31  32
BRANCH  31  34
HETATM   34  C16 UNL     1      12.671 -11.467  21.875  1.00  0.00    -0.021 A 
HETATM   35  C17 UNL     1      12.573 -10.479  22.770  1.00  0.00     0.017 A 
HETATM   36  C18 UNL     1      11.843 -10.729  23.904  1.00  0.00     0.050 A 
HETATM   37  S1  UNL     1      11.321 -12.336  23.676  1.00  0.00    -0.113 SA
HETATM   38  C19 UNL     1      12.038 -12.644  22.157  1.00  0.00     0.059 A 
ENDBRANCH  31  34
ENDBRANCH  30  31
ENDBRANCH  29  30
ENDBRANCH  27  29
ENDBRANCH   4  27
TORSDOF 10
ENDMDL
MODEL 4
REMARK VINA RESULT: -8.138454941      2.963      5.184
REMARK  10 active torsions:
REMARK  status: ('A' for Active; 'I' for Inactive)
REMARK    1  A    between atoms: C3_4  and  N1_5 
REMARK    2  A    between atoms: C3_4  and  C13_23 
REMARK       I    between atoms: N1_5  and  C4_7 
REMARK    3  A    between atoms: C4_7  and  C5_9 
REMARK       I    between atoms: C5_9  and  N2_11 
REMARK    4  A    between atoms: N2_11  and  C6_13 
REMARK    5  A    between atoms: C12_20  and  O5_21 
REMARK    6  A    between atoms: C13_23  and  O7_25 
REMARK    7  A    between atoms: O7_25  and  C14_26 
REMARK    8  A    between atoms: C14_26  and  C15_27 
REMARK    9  A    between atoms: C15_27  and  O8_28 
REMARK   10  A    between atoms: C15_27  and  C16_30 
ROOT
HETATM    1  O1  UNL     1      19.636 -14.513  19.033  1.00  0.00    -0.273 OA
HETATM    2  C1  UNL     1      18.490 -14.598  19.525  1.00  0.00     0.227 C 
HETATM    3  C2  UNL     1      17.214 -14.946  18.878  1.00  0.00     0.155 C 
HETATM    4  C3  UNL     1      16.148 -14.374  19.747  1.00  0.00     0.211 C 
HETATM    5  C20 UNL     1      16.792 -14.255  21.070  1.00  0.00     0.263 C 
HETATM    6  O9  UNL     1      16.250 -14.092  22.202  1.00  0.00    -0.270 OA
HETATM    7  N3  UNL     1      18.199 -14.354  20.896  1.00  0.00    -0.295 N 
ATOM      8  H3  UNL     1      18.893 -14.264  21.639  1.00  0.00     0.171 HD
ENDROOT
BRANCH   4   9
HETATM    9  N1  UNL     1      14.979 -15.200  19.879  1.00  0.00    -0.326 N 
HETATM   10  C4  UNL     1      14.997 -16.534  20.339  1.00  0.00     0.310 C 
HETATM   11  O2  UNL     1      16.095 -17.051  20.659  1.00  0.00    -0.262 OA
ATOM     12  H1  UNL     1      14.077 -14.796  19.624  1.00  0.00     0.164 HD
BRANCH  10  13
HETATM   13  C5  UNL     1      13.795 -17.327  20.451  1.00  0.00     0.309 C 
HETATM   14  O3  UNL     1      13.147 -17.312  21.525  1.00  0.00    -0.262 OA
HETATM   15  N2  UNL     1      13.330 -18.126  19.376  1.00  0.00    -0.346 N 
ATOM     16  H2  UNL     1      13.854 -18.143  18.501  1.00  0.00     0.163 HD
BRANCH  15  17
HETATM   17  C6  UNL     1      12.124 -18.920  19.497  1.00  0.00     0.118 C 
HETATM   18  C7  UNL     1      12.470 -20.257  20.052  1.00  0.00     0.059 C 
HETATM   19  C8  UNL     1      11.709 -21.399  19.500  1.00  0.00     0.124 C 
HETATM   20  C9  UNL     1      12.576 -22.057  18.417  1.00  0.00     0.034 C 
HETATM   21  O4  UNL     1      10.591 -21.050  18.756  1.00  0.00    -0.378 OA
HETATM   22  C10 UNL     1      12.411 -21.022  17.296  1.00  0.00     0.037 C 
HETATM   23  C11 UNL     1      11.133 -20.353  17.688  1.00  0.00     0.152 C 
HETATM   24  C12 UNL     1      11.439 -18.957  18.161  1.00  0.00     0.169 C 
BRANCH  24  25
HETATM   25  O5  UNL     1      10.226 -18.261  18.188  1.00  0.00    -0.391 OA
ATOM     26  H5  UNL     1       9.863 -18.226  19.066  1.00  0.00     0.210 HD
ENDBRANCH  24  25
ENDBRANCH  15  17
ENDBRANCH  10  13
ENDBRANCH   4   9
BRANCH   4  27
HETATM   27  C13 UNL     1      15.765 -12.973  19.346  1.00  0.00     0.297 C 
HETATM   28  O6  UNL     1      16.639 -12.075  19.253  1.00  0.00    -0.262 OA
BRANCH  27  29
HETATM   29  O7  UNL     1      14.453 -12.643  19.071  1.00  0.00    -0.316 OA
BRANCH  29  30
HETATM   30  C14 UNL     1      13.500 -12.250  20.018  1.00  0.00     0.215 C 
BRANCH  30  31
HETATM   31  C15 UNL     1      14.106 -11.557  21.216  1.00  0.00     0.176 C 
BRANCH  31  32
HETATM   32  O8  UNL     1      14.471 -10.248  20.912  1.00  0.00    -0.389 OA
ATOM     33  H8  UNL     1      15.267  -9.997  21.365  1.00  0.00     0.210 HD
ENDBRANCH  31  32
BRANCH  31  34
HETATM   34  C16 UNL     1      13.054 -11.450  22.307  1.00  0.00    -0.021 A 
HETATM   35  C17 UNL     1      12.833 -10.319  22.984  1.00  0.00     0.017 A 
HETATM   36  C18 UNL     1      11.861 -10.343  23.951  1.00  0.00     0.050 A 
HETATM   37  S1  UNL     1      11.292 -11.949  23.878  1.00  0.00    -0.113 SA
HETATM   38  C19 UNL     1      12.297 -12.540  22.630  1.00  0.00     0.059 A 
ENDBRANCH  31  34
ENDBRANCH  30  31
ENDBRANCH  29  30
ENDBRANCH  27  29
ENDBRANCH   4  27
TORSDOF 10
ENDMDL
MODEL 5
REMARK VINA RESULT: -8.071699233      3.940      7.731
REMARK  10 active torsions:
REMARK  status: ('A' for Active; 'I' for Inactive)
REMARK    1  A    between atoms: C3_4  and  N1_5 
REMARK    2  A    between atoms: C3_4  and  C13_23 
REMARK       I    between atoms: N1_5  and  C4_7 
REMARK    3  A    between atoms: C4_7  and  C5_9 
REMARK       I    between atoms: C5_9  and  N2_11 
REMARK    4  A    between atoms: N2_11  and  C6_13 
REMARK    5  A    between atoms: C12_20  and  O5_21 
REMARK    6  A    between atoms: C13_23  and  O7_25 
REMARK    7  A    between atoms: O7_25  and  C14_26 
REMARK    8  A    between atoms: C14_26  and  C15_27 
REMARK    9  A    between atoms: C15_27  and  O8_28 
REMARK   10  A    between atoms: C15_27  and  C16_30 
ROOT
HETATM    1  O1  UNL     1      21.520 -15.153  24.659  1.00  0.00    -0.273 OA
HETATM    2  C1  UNL     1      20.692 -15.116  23.724  1.00  0.00     0.227 C 
HETATM    3  C2  UNL     1      19.224 -15.013  23.774  1.00  0.00     0.155 C 
HETATM    4  C3  UNL     1      18.733 -15.554  22.475  1.00  0.00     0.211 C 
HETATM    5  C20 UNL     1      19.885 -15.393  21.565  1.00  0.00     0.263 C 
HETATM    6  O9  UNL     1      19.905 -15.435  20.301  1.00  0.00    -0.270 OA
HETATM    7  N3  UNL     1      21.050 -15.171  22.348  1.00  0.00    -0.295 N 
ATOM      8  H3  UNL     1      21.996 -15.068  21.981  1.00  0.00     0.171 HD
ENDROOT
BRANCH   4   9
HETATM    9  N1  UNL     1      17.610 -14.848  21.921  1.00  0.00    -0.326 N 
HETATM   10  C4  UNL     1      17.643 -13.498  21.514  1.00  0.00     0.310 C 
HETATM   11  O2  UNL     1      18.713 -12.853  21.633  1.00  0.00    -0.262 OA
ATOM     12  H1  UNL     1      16.732 -15.356  21.816  1.00  0.00     0.164 HD
BRANCH  10  13
HETATM   13  C5  UNL     1      16.486 -12.829  20.966  1.00  0.00     0.309 C 
HETATM   14  O3  UNL     1      16.616 -12.115  19.943  1.00  0.00    -0.262 OA
HETATM   15  N2  UNL     1      15.203 -12.960  21.558  1.00  0.00    -0.346 N 
ATOM     16  H2  UNL     1      15.092 -13.538  22.390  1.00  0.00     0.163 HD
BRANCH  15  17
HETATM   17  C6  UNL     1      14.048 -12.285  21.002  1.00  0.00     0.118 C 
HETATM   18  C7  UNL     1      13.867 -10.977  21.687  1.00  0.00     0.059 C 
HETATM   19  C8  UNL     1      12.466 -10.567  21.933  1.00  0.00     0.124 C 
HETATM   20  C9  UNL     1      12.121 -10.933  23.384  1.00  0.00     0.034 C 
HETATM   21  O4  UNL     1      11.514 -11.309  21.248  1.00  0.00    -0.378 OA
HETATM   22  C10 UNL     1      11.964 -12.452  23.233  1.00  0.00     0.037 C 
HETATM   23  C11 UNL     1      11.675 -12.582  21.772  1.00  0.00     0.152 C 
HETATM   24  C12 UNL     1      12.866 -13.207  21.094  1.00  0.00     0.169 C 
BRANCH  24  25
HETATM   25  O5  UNL     1      12.441 -13.623  19.827  1.00  0.00    -0.391 OA
ATOM     26  H5  UNL     1      12.535 -12.931  19.183  1.00  0.00     0.210 HD
ENDBRANCH  24  25
ENDBRANCH  15  17
ENDBRANCH  10  13
ENDBRANCH   4   9
BRANCH   4  27
HETATM   27  C13 UNL     1      18.454 -17.033  22.534  1.00  0.00     0.297 C 
HETATM   28  O6  UNL     1      19.386 -17.864  22.388  1.00  0.00    -0.262 OA
BRANCH  27  29
HETATM   29  O7  UNL     1      17.177 -17.510  22.747  1.00  0.00    -0.316 OA
BRANCH  29  30
HETATM   30  C14 UNL     1      16.287 -17.922  21.748  1.00  0.00     0.215 C 
BRANCH  30  31
HETATM   31  C15 UNL     1      14.891 -17.376  21.936  1.00  0.00     0.176 C 
BRANCH  31  32
HETATM   32  O8  UNL     1      14.884 -15.983  21.905  1.00  0.00    -0.389 OA
ATOM     33  H8  UNL     1      14.676 -15.658  21.037  1.00  0.00     0.210 HD
ENDBRANCH  31  32
BRANCH  31  34
HETATM   34  C16 UNL     1      14.027 -17.819  20.767  1.00  0.00    -0.021 A 
HETATM   35  C17 UNL     1      12.835 -17.274  20.508  1.00  0.00     0.017 A 
HETATM   36  C18 UNL     1      12.142 -17.760  19.428  1.00  0.00     0.050 A 
HETATM   37  S1  UNL     1      13.185 -18.962  18.816  1.00  0.00    -0.113 SA
HETATM   38  C19 UNL     1      14.463 -18.815  19.940  1.00  0.00     0.059 A 
ENDBRANCH  31  34
ENDBRANCH  30  31
ENDBRANCH  29  30
ENDBRANCH  27  29
ENDBRANCH   4  27
TORSDOF 10
ENDMDL
