MODEL 1
REMARK VINA RESULT: -7.329906622      0.000      0.000
REMARK  14 active torsions:
REMARK  status: ('A' for Active; 'I' for Inactive)
REMARK    1  A    between atoms: C3_5  and  C4_6 
REMARK    2  A    between atoms: C4_6  and  C5_7 
REMARK    3  A    between atoms: C5_7  and  O1_8 
REMARK    4  A    between atoms: C11_15  and  O2_16 
REMARK    5  A    between atoms: C12_18  and  O3_19 
REMARK    6  A    between atoms: C12_18  and  N2_21 
REMARK       I    between atoms: N2_21  and  C13_23 
REMARK    7  A    between atoms: C13_23  and  O5_25 
REMARK    8  A    between atoms: O5_25  and  S1_26 
REMARK    9  A    between atoms: S1_26  and  O6_27 
REMARK   10  A    between atoms: C16_31  and  O7_32 
REMARK   11  A    between atoms: O7_32  and  C17_33 
REMARK   12  A    between atoms: C17_33  and  C19_35 
REMARK   13  A    between atoms: C19_35  and  O8_36 
REMARK   14  A    between atoms: O8_36  and  C20_37 
ROOT
HETATM    1  C5  UNL     1      15.882 -14.117  20.932  1.00  0.00     0.119 C 
HETATM    2  C6  UNL     1      14.687 -13.753  21.790  1.00  0.00     0.055 C 
HETATM    3  C7  UNL     1      14.269 -12.337  21.728  1.00  0.00     0.010 C 
HETATM    4  C8  UNL     1      13.475 -11.910  20.556  1.00  0.00     0.001 C 
HETATM    5  C9  UNL     1      13.089 -12.993  19.598  1.00  0.00     0.012 C 
HETATM    6  C10 UNL     1      13.851 -14.262  19.700  1.00  0.00     0.073 C 
HETATM    7  C11 UNL     1      13.676 -14.701  21.172  1.00  0.00     0.134 C 
HETATM    8  C12 UNL     1      15.373 -14.083  19.551  1.00  0.00     0.173 C 
ENDROOT
BRANCH   1   9
HETATM    9  C4  UNL     1      17.116 -13.390  21.267  1.00  0.00     0.100 C 
BRANCH   9  10
HETATM   10  C3  UNL     1      18.024 -14.156  22.111  1.00  0.00     0.012 A 
HETATM   11  N1  UNL     1      17.702 -14.736  23.271  1.00  0.00    -0.361 N 
HETATM   12  C2  UNL     1      18.572 -15.434  24.020  1.00  0.00     0.039 A 
ATOM     13  H1  UNL     1      16.743 -14.644  23.606  1.00  0.00     0.165 HD
HETATM   14  C1  UNL     1      18.150 -16.054  25.299  1.00  0.00     0.071 C 
HETATM   15  C16 UNL     1      19.909 -15.613  23.644  1.00  0.00     0.091 A 
HETATM   16  C15 UNL     1      20.265 -15.024  22.452  1.00  0.00     0.040 A 
HETATM   17  C14 UNL     1      19.352 -14.308  21.693  1.00  0.00     0.028 A 
BRANCH  15  18
HETATM   18  O7  UNL     1      20.783 -16.323  24.412  1.00  0.00    -0.342 OA
BRANCH  18  19
HETATM   19  C17 UNL     1      21.987 -15.883  24.983  1.00  0.00     0.149 C 
HETATM   20  C18 UNL     1      21.693 -14.767  26.004  1.00  0.00     0.042 C 
BRANCH  19  21
HETATM   21  C19 UNL     1      22.573 -17.018  25.811  1.00  0.00     0.212 C 
BRANCH  21  22
HETATM   22  O8  UNL     1      23.744 -17.516  25.233  1.00  0.00    -0.304 OA
BRANCH  22  23
HETATM   23  C20 UNL     1      24.088 -17.461  23.914  1.00  0.00     0.372 C 
HETATM   24  N3  UNL     1      25.065 -16.522  23.438  1.00  0.00    -0.032 NA
HETATM   25  O9  UNL     1      23.546 -18.242  23.095  1.00  0.00    -0.242 OA
ENDBRANCH  22  23
ENDBRANCH  21  22
ENDBRANCH  19  21
ENDBRANCH  18  19
ENDBRANCH  15  18
ENDBRANCH   9  10
ENDBRANCH   1   9
BRANCH   1  26
HETATM   26  O1  UNL     1      16.122 -15.483  21.280  1.00  0.00    -0.384 OA
ATOM     27  H1  UNL     1      15.946 -15.989  20.494  1.00  0.00     0.210 HD
ENDBRANCH   1  26
BRANCH   8  28
HETATM   28  O3  UNL     1      15.787 -15.185  18.787  1.00  0.00    -0.367 OA
ATOM     29  H3  UNL     1      15.093 -15.543  18.245  1.00  0.00     0.212 HD
ENDBRANCH   8  28
BRANCH   8  30
HETATM   30  N2  UNL     1      15.668 -12.896  18.789  1.00  0.00    -0.301 N 
HETATM   31  C13 UNL     1      16.809 -12.806  17.948  1.00  0.00     0.376 C 
HETATM   32  O4  UNL     1      17.658 -13.741  17.805  1.00  0.00    -0.237 OA
ATOM     33  H2  UNL     1      15.038 -12.096  18.855  1.00  0.00     0.168 HD
BRANCH  31  34
HETATM   34  O5  UNL     1      17.087 -11.662  17.205  1.00  0.00    -0.200 OA
BRANCH  34  35
HETATM   35  S1  UNL     1      17.096 -11.636  15.502  1.00  0.00     0.166 SA
BRANCH  35  36
HETATM   36  O6  UNL     1      17.376 -12.977  14.876  1.00  0.00    -0.306 OA
ATOM     37  H6  UNL     1      16.600 -13.508  14.745  1.00  0.00     0.230 HD
ENDBRANCH  35  36
ENDBRANCH  34  35
ENDBRANCH  31  34
ENDBRANCH   8  30
BRANCH   7  38
HETATM   38  O2  UNL     1      12.396 -14.474  21.607  1.00  0.00    -0.395 OA
ATOM     39  H2  UNL     1      11.942 -15.272  21.853  1.00  0.00     0.210 HD
ENDBRANCH   7  38
TORSDOF 14
ENDMDL
MODEL 2
REMARK VINA RESULT: -7.259388644      1.543      2.201
REMARK  14 active torsions:
REMARK  status: ('A' for Active; 'I' for Inactive)
REMARK    1  A    between atoms: C3_5  and  C4_6 
REMARK    2  A    between atoms: C4_6  and  C5_7 
REMARK    3  A    between atoms: C5_7  and  O1_8 
REMARK    4  A    between atoms: C11_15  and  O2_16 
REMARK    5  A    between atoms: C12_18  and  O3_19 
REMARK    6  A    between atoms: C12_18  and  N2_21 
REMARK       I    between atoms: N2_21  and  C13_23 
REMARK    7  A    between atoms: C13_23  and  O5_25 
REMARK    8  A    between atoms: O5_25  and  S1_26 
REMARK    9  A    between atoms: S1_26  and  O6_27 
REMARK   10  A    between atoms: C16_31  and  O7_32 
REMARK   11  A    between atoms: O7_32  and  C17_33 
REMARK   12  A    between atoms: C17_33  and  C19_35 
REMARK   13  A    between atoms: C19_35  and  O8_36 
REMARK   14  A    between atoms: O8_36  and  C20_37 
ROOT
HETATM    1  C5  UNL     1      15.575 -13.941  21.247  1.00  0.00     0.119 C 
HETATM    2  C6  UNL     1      14.384 -13.404  22.015  1.00  0.00     0.055 C 
HETATM    3  C7  UNL     1      14.036 -11.995  21.740  1.00  0.00     0.010 C 
HETATM    4  C8  UNL     1      13.284 -11.705  20.500  1.00  0.00     0.001 C 
HETATM    5  C9  UNL     1      12.864 -12.897  19.698  1.00  0.00     0.012 C 
HETATM    6  C10 UNL     1      13.561 -14.171  20.000  1.00  0.00     0.073 C 
HETATM    7  C11 UNL     1      13.340 -14.384  21.515  1.00  0.00     0.134 C 
HETATM    8  C12 UNL     1      15.093 -14.084  19.864  1.00  0.00     0.173 C 
ENDROOT
BRANCH   1   9
HETATM    9  C4  UNL     1      16.836 -13.231  21.505  1.00  0.00     0.100 C 
BRANCH   9  10
HETATM   10  C3  UNL     1      17.954 -14.123  21.784  1.00  0.00     0.012 A 
HETATM   11  N1  UNL     1      18.478 -15.003  20.925  1.00  0.00    -0.361 N 
HETATM   12  C2  UNL     1      19.510 -15.809  21.224  1.00  0.00     0.039 A 
ATOM     13  H1  UNL     1      18.071 -15.066  19.992  1.00  0.00     0.165 HD
HETATM   14  C1  UNL     1      20.045 -16.765  20.224  1.00  0.00     0.071 C 
HETATM   15  C16 UNL     1      20.134 -15.796  22.478  1.00  0.00     0.091 A 
HETATM   16  C15 UNL     1      19.611 -14.897  23.380  1.00  0.00     0.040 A 
HETATM   17  C14 UNL     1      18.545 -14.072  23.052  1.00  0.00     0.028 A 
BRANCH  15  18
HETATM   18  O7  UNL     1      21.181 -16.618  22.770  1.00  0.00    -0.342 OA
BRANCH  18  19
HETATM   19  C17 UNL     1      21.316 -17.491  23.860  1.00  0.00     0.149 C 
HETATM   20  C18 UNL     1      21.799 -18.866  23.359  1.00  0.00     0.042 C 
BRANCH  19  21
HETATM   21  C19 UNL     1      22.445 -16.986  24.747  1.00  0.00     0.212 C 
BRANCH  21  22
HETATM   22  O8  UNL     1      21.967 -16.108  25.725  1.00  0.00    -0.304 OA
BRANCH  22  23
HETATM   23  C20 UNL     1      22.053 -14.747  25.710  1.00  0.00     0.372 C 
HETATM   24  N3  UNL     1      21.204 -13.939  26.541  1.00  0.00    -0.032 NA
HETATM   25  O9  UNL     1      22.886 -14.184  24.961  1.00  0.00    -0.242 OA
ENDBRANCH  22  23
ENDBRANCH  21  22
ENDBRANCH  19  21
ENDBRANCH  18  19
ENDBRANCH  15  18
ENDBRANCH   9  10
ENDBRANCH   1   9
BRANCH   1  26
HETATM   26  O1  UNL     1      15.743 -15.253  21.794  1.00  0.00    -0.384 OA
ATOM     27  H1  UNL     1      15.199 -15.283  22.573  1.00  0.00     0.210 HD
ENDBRANCH   1  26
BRANCH   8  28
HETATM   28  O3  UNL     1      15.466 -15.303  19.277  1.00  0.00    -0.367 OA
ATOM     29  H3  UNL     1      15.236 -15.358  18.356  1.00  0.00     0.212 HD
ENDBRANCH   8  28
BRANCH   8  30
HETATM   30  N2  UNL     1      15.458 -13.034  18.947  1.00  0.00    -0.301 N 
HETATM   31  C13 UNL     1      16.650 -13.090  18.176  1.00  0.00     0.376 C 
HETATM   32  O4  UNL     1      17.486 -14.045  18.233  1.00  0.00    -0.237 OA
ATOM     33  H2  UNL     1      14.842 -12.227  18.848  1.00  0.00     0.168 HD
BRANCH  31  34
HETATM   34  O5  UNL     1      16.996 -12.079  17.284  1.00  0.00    -0.200 OA
BRANCH  34  35
HETATM   35  S1  UNL     1      18.005 -12.332  15.934  1.00  0.00     0.166 SA
BRANCH  35  36
HETATM   36  O6  UNL     1      17.702 -13.601  15.181  1.00  0.00    -0.306 OA
ATOM     37  H6  UNL     1      16.906 -13.559  14.664  1.00  0.00     0.230 HD
ENDBRANCH  35  36
ENDBRANCH  34  35
ENDBRANCH  31  34
ENDBRANCH   8  30
BRANCH   7  38
HETATM   38  O2  UNL     1      12.064 -14.040  21.882  1.00  0.00    -0.395 OA
ATOM     39  H2  UNL     1      11.559 -13.673  21.166  1.00  0.00     0.210 HD
ENDBRANCH   7  38
TORSDOF 14
ENDMDL
MODEL 3
REMARK VINA RESULT: -7.171707021      1.523      1.848
REMARK  14 active torsions:
REMARK  status: ('A' for Active; 'I' for Inactive)
REMARK    1  A    between atoms: C3_5  and  C4_6 
REMARK    2  A    between atoms: C4_6  and  C5_7 
REMARK    3  A    between atoms: C5_7  and  O1_8 
REMARK    4  A    between atoms: C11_15  and  O2_16 
REMARK    5  A    between atoms: C12_18  and  O3_19 
REMARK    6  A    between atoms: C12_18  and  N2_21 
REMARK       I    between atoms: N2_21  and  C13_23 
REMARK    7  A    between atoms: C13_23  and  O5_25 
REMARK    8  A    between atoms: O5_25  and  S1_26 
REMARK    9  A    between atoms: S1_26  and  O6_27 
REMARK   10  A    between atoms: C16_31  and  O7_32 
REMARK   11  A    between atoms: O7_32  and  C17_33 
REMARK   12  A    between atoms: C17_33  and  C19_35 
REMARK   13  A    between atoms: C19_35  and  O8_36 
REMARK   14  A    between atoms: O8_36  and  C20_37 
ROOT
HETATM    1  C5  UNL     1      16.198 -14.119  20.768  1.00  0.00     0.119 C 
HETATM    2  C6  UNL     1      15.055 -13.818  21.716  1.00  0.00     0.055 C 
HETATM    3  C7  UNL     1      14.577 -12.420  21.710  1.00  0.00     0.010 C 
HETATM    4  C8  UNL     1      13.682 -12.009  20.607  1.00  0.00     0.001 C 
HETATM    5  C9  UNL     1      13.272 -13.092  19.660  1.00  0.00     0.012 C 
HETATM    6  C10 UNL     1      14.089 -14.330  19.684  1.00  0.00     0.073 C 
HETATM    7  C11 UNL     1      14.041 -14.798  21.157  1.00  0.00     0.134 C 
HETATM    8  C12 UNL     1      15.588 -14.086  19.428  1.00  0.00     0.173 C 
ENDROOT
BRANCH   1   9
HETATM    9  C4  UNL     1      17.422 -13.347  21.025  1.00  0.00     0.100 C 
BRANCH   9  10
HETATM   10  C3  UNL     1      18.378 -14.048  21.873  1.00  0.00     0.012 A 
HETATM   11  N1  UNL     1      18.118 -14.556  23.081  1.00  0.00    -0.361 N 
HETATM   12  C2  UNL     1      19.030 -15.196  23.831  1.00  0.00     0.039 A 
ATOM     13  H1  UNL     1      17.175 -14.451  23.455  1.00  0.00     0.165 HD
HETATM   14  C1  UNL     1      18.676 -15.736  25.166  1.00  0.00     0.071 C 
HETATM   15  C16 UNL     1      20.351 -15.387  23.404  1.00  0.00     0.091 A 
HETATM   16  C15 UNL     1      20.643 -14.873  22.161  1.00  0.00     0.040 A 
HETATM   17  C14 UNL     1      19.686 -14.216  21.402  1.00  0.00     0.028 A 
BRANCH  15  18
HETATM   18  O7  UNL     1      21.268 -16.039  24.174  1.00  0.00    -0.342 OA
BRANCH  18  19
HETATM   19  C17 UNL     1      21.968 -17.216  23.872  1.00  0.00     0.149 C 
HETATM   20  C18 UNL     1      22.899 -17.575  25.047  1.00  0.00     0.042 C 
BRANCH  19  21
HETATM   21  C19 UNL     1      20.973 -18.366  23.804  1.00  0.00     0.212 C 
BRANCH  21  22
HETATM   22  O8  UNL     1      21.046 -19.027  22.574  1.00  0.00    -0.304 OA
BRANCH  22  23
HETATM   23  C20 UNL     1      20.707 -18.518  21.355  1.00  0.00     0.372 C 
HETATM   24  N3  UNL     1      19.372 -18.063  21.083  1.00  0.00    -0.032 NA
HETATM   25  O9  UNL     1      21.572 -18.442  20.449  1.00  0.00    -0.242 OA
ENDBRANCH  22  23
ENDBRANCH  21  22
ENDBRANCH  19  21
ENDBRANCH  18  19
ENDBRANCH  15  18
ENDBRANCH   9  10
ENDBRANCH   1   9
BRANCH   1  26
HETATM   26  O1  UNL     1      16.517 -15.480  21.073  1.00  0.00    -0.384 OA
ATOM     27  H1  UNL     1      17.455 -15.500  21.227  1.00  0.00     0.210 HD
ENDBRANCH   1  26
BRANCH   8  28
HETATM   28  O3  UNL     1      15.989 -15.159  18.617  1.00  0.00    -0.367 OA
ATOM     29  H3  UNL     1      15.398 -15.314  17.888  1.00  0.00     0.212 HD
ENDBRANCH   8  28
BRANCH   8  30
HETATM   30  N2  UNL     1      15.778 -12.876  18.668  1.00  0.00    -0.301 N 
HETATM   31  C13 UNL     1      16.857 -12.722  17.757  1.00  0.00     0.376 C 
HETATM   32  O4  UNL     1      17.736 -13.615  17.544  1.00  0.00    -0.237 OA
ATOM     33  H2  UNL     1      15.118 -12.107  18.788  1.00  0.00     0.168 HD
BRANCH  31  34
HETATM   34  O5  UNL     1      17.033 -11.556  17.017  1.00  0.00    -0.200 OA
BRANCH  34  35
HETATM   35  S1  UNL     1      16.976 -11.516  15.315  1.00  0.00     0.166 SA
BRANCH  35  36
HETATM   36  O6  UNL     1      17.184 -12.861  14.669  1.00  0.00    -0.306 OA
ATOM     37  H6  UNL     1      16.509 -13.093  14.041  1.00  0.00     0.230 HD
ENDBRANCH  35  36
ENDBRANCH  34  35
ENDBRANCH  31  34
ENDBRANCH   8  30
BRANCH   7  38
HETATM   38  O2  UNL     1      12.787 -14.631  21.688  1.00  0.00    -0.395 OA
ATOM     39  H2  UNL     1      12.279 -15.434  21.697  1.00  0.00     0.210 HD
ENDBRANCH   7  38
TORSDOF 14
ENDMDL
MODEL 4
REMARK VINA RESULT: -7.141088343      1.279      1.557
REMARK  14 active torsions:
REMARK  status: ('A' for Active; 'I' for Inactive)
REMARK    1  A    between atoms: C3_5  and  C4_6 
REMARK    2  A    between atoms: C4_6  and  C5_7 
REMARK    3  A    between atoms: C5_7  and  O1_8 
REMARK    4  A    between atoms: C11_15  and  O2_16 
REMARK    5  A    between atoms: C12_18  and  O3_19 
REMARK    6  A    between atoms: C12_18  and  N2_21 
REMARK       I    between atoms: N2_21  and  C13_23 
REMARK    7  A    between atoms: C13_23  and  O5_25 
REMARK    8  A    between atoms: O5_25  and  S1_26 
REMARK    9  A    between atoms: S1_26  and  O6_27 
REMARK   10  A    between atoms: C16_31  and  O7_32 
REMARK   11  A    between atoms: O7_32  and  C17_33 
REMARK   12  A    between atoms: C17_33  and  C19_35 
REMARK   13  A    between atoms: C19_35  and  O8_36 
REMARK   14  A    between atoms: O8_36  and  C20_37 
ROOT
HETATM    1  C5  UNL     1      15.958 -14.009  20.901  1.00  0.00     0.119 C 
HETATM    2  C6  UNL     1      14.786 -13.643  21.789  1.00  0.00     0.055 C 
HETATM    3  C7  UNL     1      14.344 -12.236  21.707  1.00  0.00     0.010 C 
HETATM    4  C8  UNL     1      13.505 -11.849  20.553  1.00  0.00     0.001 C 
HETATM    5  C9  UNL     1      13.106 -12.960  19.634  1.00  0.00     0.012 C 
HETATM    6  C10 UNL     1      13.890 -14.215  19.741  1.00  0.00     0.073 C 
HETATM    7  C11 UNL     1      13.771 -14.621  21.229  1.00  0.00     0.134 C 
HETATM    8  C12 UNL     1      15.403 -14.017  19.537  1.00  0.00     0.173 C 
ENDROOT
BRANCH   1   9
HETATM    9  C4  UNL     1      17.191 -13.257  21.177  1.00  0.00     0.100 C 
BRANCH   9  10
HETATM   10  C3  UNL     1      18.183 -14.028  21.915  1.00  0.00     0.012 A 
HETATM   11  N1  UNL     1      18.003 -14.571  23.122  1.00  0.00    -0.361 N 
HETATM   12  C2  UNL     1      18.947 -15.275  23.769  1.00  0.00     0.039 A 
ATOM     13  H1  UNL     1      17.099 -14.445  23.578  1.00  0.00     0.165 HD
HETATM   14  C1  UNL     1      18.682 -15.853  25.109  1.00  0.00     0.071 C 
HETATM   15  C16 UNL     1      20.218 -15.501  23.226  1.00  0.00     0.091 A 
HETATM   16  C15 UNL     1      20.427 -14.950  21.982  1.00  0.00     0.040 A 
HETATM   17  C14 UNL     1      19.440 -14.227  21.330  1.00  0.00     0.028 A 
BRANCH  15  18
HETATM   18  O7  UNL     1      21.168 -16.217  23.891  1.00  0.00    -0.342 OA
BRANCH  18  19
HETATM   19  C17 UNL     1      22.421 -15.778  24.345  1.00  0.00     0.149 C 
HETATM   20  C18 UNL     1      22.226 -14.668  25.395  1.00  0.00     0.042 C 
BRANCH  19  21
HETATM   21  C19 UNL     1      23.086 -16.917  25.106  1.00  0.00     0.212 C 
BRANCH  21  22
HETATM   22  O8  UNL     1      22.216 -17.472  26.050  1.00  0.00    -0.304 OA
BRANCH  22  23
HETATM   23  C20 UNL     1      22.563 -18.056  27.232  1.00  0.00     0.372 C 
HETATM   24  N3  UNL     1      22.150 -19.395  27.550  1.00  0.00    -0.032 NA
HETATM   25  O9  UNL     1      23.256 -17.420  28.062  1.00  0.00    -0.242 OA
ENDBRANCH  22  23
ENDBRANCH  21  22
ENDBRANCH  19  21
ENDBRANCH  18  19
ENDBRANCH  15  18
ENDBRANCH   9  10
ENDBRANCH   1   9
BRANCH   1  26
HETATM   26  O1  UNL     1      16.231 -15.364  21.273  1.00  0.00    -0.384 OA
ATOM     27  H1  UNL     1      16.811 -15.708  20.604  1.00  0.00     0.210 HD
ENDBRANCH   1  26
BRANCH   8  28
HETATM   28  O3  UNL     1      15.809 -15.132  18.787  1.00  0.00    -0.367 OA
ATOM     29  H3  UNL     1      16.300 -15.765  19.298  1.00  0.00     0.212 HD
ENDBRANCH   8  28
BRANCH   8  30
HETATM   30  N2  UNL     1      15.654 -12.845  18.738  1.00  0.00    -0.301 N 
HETATM   31  C13 UNL     1      16.783 -12.746  17.881  1.00  0.00     0.376 C 
HETATM   32  O4  UNL     1      17.657 -13.659  17.755  1.00  0.00    -0.237 OA
ATOM     33  H2  UNL     1      15.001 -12.062  18.788  1.00  0.00     0.168 HD
BRANCH  31  34
HETATM   34  O5  UNL     1      17.018 -11.616  17.102  1.00  0.00    -0.200 OA
BRANCH  34  35
HETATM   35  S1  UNL     1      16.938 -11.624  15.401  1.00  0.00     0.166 SA
BRANCH  35  36
HETATM   36  O6  UNL     1      17.319 -12.944  14.782  1.00  0.00    -0.306 OA
ATOM     37  H6  UNL     1      18.222 -13.194  14.939  1.00  0.00     0.230 HD
ENDBRANCH  35  36
ENDBRANCH  34  35
ENDBRANCH  31  34
ENDBRANCH   8  30
BRANCH   7  38
HETATM   38  O2  UNL     1      12.502 -14.403  21.701  1.00  0.00    -0.395 OA
ATOM     39  H2  UNL     1      11.828 -14.641  21.075  1.00  0.00     0.210 HD
ENDBRANCH   7  38
TORSDOF 14
ENDMDL
MODEL 5
REMARK VINA RESULT: -7.107723720      2.806      3.763
REMARK  14 active torsions:
REMARK  status: ('A' for Active; 'I' for Inactive)
REMARK    1  A    between atoms: C3_5  and  C4_6 
REMARK    2  A    between atoms: C4_6  and  C5_7 
REMARK    3  A    between atoms: C5_7  and  O1_8 
REMARK    4  A    between atoms: C11_15  and  O2_16 
REMARK    5  A    between atoms: C12_18  and  O3_19 
REMARK    6  A    between atoms: C12_18  and  N2_21 
REMARK       I    between atoms: N2_21  and  C13_23 
REMARK    7  A    between atoms: C13_23  and  O5_25 
REMARK    8  A    between atoms: O5_25  and  S1_26 
REMARK    9  A    between atoms: S1_26  and  O6_27 
REMARK   10  A    between atoms: C16_31  and  O7_32 
REMARK   11  A    between atoms: O7_32  and  C17_33 
REMARK   12  A    between atoms: C17_33  and  C19_35 
REMARK   13  A    between atoms: C19_35  and  O8_36 
REMARK   14  A    between atoms: O8_36  and  C20_37 
ROOT
HETATM    1  C5  UNL     1      15.505 -14.294  21.304  1.00  0.00     0.119 C 
HETATM    2  C6  UNL     1      15.861 -12.972  20.655  1.00  0.00     0.055 C 
HETATM    3  C7  UNL     1      15.710 -12.927  19.186  1.00  0.00     0.010 C 
HETATM    4  C8  UNL     1      14.346 -12.750  18.644  1.00  0.00     0.001 C 
HETATM    5  C9  UNL     1      13.265 -12.532  19.655  1.00  0.00     0.012 C 
HETATM    6  C10 UNL     1      13.590 -12.903  21.055  1.00  0.00     0.073 C 
HETATM    7  C11 UNL     1      14.864 -12.092  21.384  1.00  0.00     0.134 C 
HETATM    8  C12 UNL     1      14.037 -14.367  21.217  1.00  0.00     0.173 C 
ENDROOT
BRANCH   1   9
HETATM    9  C4  UNL     1      16.315 -15.434  20.851  1.00  0.00     0.100 C 
BRANCH   9  10
HETATM   10  C3  UNL     1      17.593 -15.544  21.543  1.00  0.00     0.012 A 
HETATM   11  N1  UNL     1      17.796 -16.178  22.701  1.00  0.00    -0.361 N 
HETATM   12  C2  UNL     1      18.993 -16.255  23.307  1.00  0.00     0.039 A 
ATOM     13  H1  UNL     1      16.999 -16.627  23.151  1.00  0.00     0.165 HD
HETATM   14  C1  UNL     1      19.151 -16.975  24.594  1.00  0.00     0.071 C 
HETATM   15  C16 UNL     1      20.145 -15.669  22.768  1.00  0.00     0.091 A 
HETATM   16  C15 UNL     1      19.960 -15.009  21.574  1.00  0.00     0.040 A 
HETATM   17  C14 UNL     1      18.717 -14.941  20.964  1.00  0.00     0.028 A 
BRANCH  15  18
HETATM   18  O7  UNL     1      21.355 -15.753  23.391  1.00  0.00    -0.342 OA
BRANCH  18  19
HETATM   19  C17 UNL     1      22.089 -14.723  23.996  1.00  0.00     0.149 C 
HETATM   20  C18 UNL     1      21.841 -14.739  25.516  1.00  0.00     0.042 C 
BRANCH  19  21
HETATM   21  C19 UNL     1      23.572 -15.032  23.844  1.00  0.00     0.212 C 
BRANCH  21  22
HETATM   22  O8  UNL     1      23.808 -16.410  23.877  1.00  0.00    -0.304 OA
BRANCH  22  23
HETATM   23  C20 UNL     1      25.013 -17.033  23.735  1.00  0.00     0.372 C 
HETATM   24  N3  UNL     1      25.693 -17.061  22.469  1.00  0.00    -0.032 NA
HETATM   25  O9  UNL     1      25.545 -17.593  24.723  1.00  0.00    -0.242 OA
ENDBRANCH  22  23
ENDBRANCH  21  22
ENDBRANCH  19  21
ENDBRANCH  18  19
ENDBRANCH  15  18
ENDBRANCH   9  10
ENDBRANCH   1   9
BRANCH   1  26
HETATM   26  O1  UNL     1      15.855 -14.081  22.675  1.00  0.00    -0.384 OA
ATOM     27  H1  UNL     1      15.057 -14.213  23.173  1.00  0.00     0.210 HD
ENDBRANCH   1  26
BRANCH   8  28
HETATM   28  O3  UNL     1      13.438 -14.790  22.414  1.00  0.00    -0.367 OA
ATOM     29  H3  UNL     1      12.671 -15.335  22.273  1.00  0.00     0.212 HD
ENDBRANCH   8  28
BRANCH   8  30
HETATM   30  N2  UNL     1      13.499 -15.179  20.155  1.00  0.00    -0.301 N 
HETATM   31  C13 UNL     1      13.043 -16.506  20.380  1.00  0.00     0.376 C 
HETATM   32  O4  UNL     1      13.078 -17.084  21.511  1.00  0.00    -0.237 OA
ATOM     33  H2  UNL     1      13.443 -14.789  19.214  1.00  0.00     0.168 HD
BRANCH  31  34
HETATM   34  O5  UNL     1      12.514 -17.285  19.354  1.00  0.00    -0.200 OA
BRANCH  34  35
HETATM   35  S1  UNL     1      12.383 -18.981  19.446  1.00  0.00     0.166 SA
BRANCH  35  36
HETATM   36  O6  UNL     1      11.838 -19.477  20.760  1.00  0.00    -0.306 OA
ATOM     37  H6  UNL     1      11.053 -20.005  20.674  1.00  0.00     0.230 HD
ENDBRANCH  35  36
ENDBRANCH  34  35
ENDBRANCH  31  34
ENDBRANCH   8  30
BRANCH   7  38
HETATM   38  O2  UNL     1      14.792 -10.824  20.866  1.00  0.00    -0.395 OA
ATOM     39  H2  UNL     1      15.528 -10.279  21.118  1.00  0.00     0.210 HD
ENDBRANCH   7  38
TORSDOF 14
ENDMDL
