MODEL 1
REMARK VINA RESULT: -7.658197537      0.000      0.000
REMARK  11 active torsions:
REMARK  status: ('A' for Active; 'I' for Inactive)
REMARK    1  A    between atoms: C2_2  and  N1_3 
REMARK    2  A    between atoms: N1_3  and  C3_6 
REMARK    3  A    between atoms: C3_6  and  C4_7 
REMARK    4  A    between atoms: C3_6  and  C26_39 
REMARK    5  A    between atoms: C4_7  and  N2_8 
REMARK    6  A    between atoms: N2_8  and  C5_10 
REMARK    7  A    between atoms: C5_10  and  O1_11 
REMARK    8  A    between atoms: C5_10  and  C6_13 
REMARK    9  A    between atoms: C11_20  and  C12_21 
REMARK       I    between atoms: C12_21  and  N4_23 
REMARK   10  A    between atoms: N4_23  and  C13_25 
REMARK   11  A    between atoms: C23_35  and  C24_36 
ROOT
HETATM    1  C6  UNL     1      18.178 -13.723  20.181  1.00  0.00     0.027 A 
HETATM    2  C7  UNL     1      19.484 -13.204  20.212  1.00  0.00     0.033 A 
HETATM    3  C8  UNL     1      20.461 -13.841  20.902  1.00  0.00     0.091 A 
HETATM    4  N3  UNL     1      20.195 -14.965  21.558  1.00  0.00    -0.346 N 
ATOM      5  H3  UNL     1      20.937 -15.436  22.074  1.00  0.00     0.167 HD
HETATM    6  C9  UNL     1      18.935 -15.496  21.550  1.00  0.00     0.156 A 
HETATM    7  C10 UNL     1      17.897 -14.907  20.873  1.00  0.00     0.025 A 
HETATM    8  C11 UNL     1      16.513 -15.453  20.883  1.00  0.00     0.147 A 
HETATM    9  C21 UNL     1      16.443 -16.708  21.663  1.00  0.00    -0.036 A 
HETATM   10  C22 UNL     1      15.141 -17.475  21.716  1.00  0.00     0.047 C 
HETATM   11  C23 UNL     1      17.466 -17.224  22.279  1.00  0.00     0.058 A 
HETATM   12  O3  UNL     1      18.731 -16.671  22.265  1.00  0.00    -0.297 OA
ENDROOT
BRANCH   1  13
HETATM   13  C5  UNL     1      17.243 -12.993  19.389  1.00  0.00     0.147 C 
BRANCH  13  14
HETATM   14  N2  UNL     1      16.612 -13.281  18.191  1.00  0.00    -0.368 N 
ATOM     15  H2  UNL     1      15.642 -12.999  18.050  1.00  0.00     0.161 HD
BRANCH  14  16
HETATM   16  C4  UNL     1      17.327 -13.992  17.115  1.00  0.00     0.155 C 
BRANCH  16  17
HETATM   17  C3  UNL     1      18.067 -13.055  16.213  1.00  0.00     0.207 C 
BRANCH  17  18
HETATM   18  N1  UNL     1      17.318 -12.665  15.034  1.00  0.00    -0.069 N 
ATOM     19  H12 UNL     1      16.535 -13.293  14.855  1.00  0.00     0.277 HD
ATOM     20  H11 UNL     1      17.843 -12.831  14.176  1.00  0.00     0.277 HD
BRANCH  18  21
HETATM   21  C2  UNL     1      16.891 -11.281  15.151  1.00  0.00     0.228 C 
HETATM   22  C1  UNL     1      15.431 -11.086  14.877  1.00  0.00     0.034 C 
ENDBRANCH  18  21
ENDBRANCH  17  18
BRANCH  17  23
HETATM   23  C26 UNL     1      19.449 -13.560  15.846  1.00  0.00     0.018 A 
HETATM   24  C27 UNL     1      20.569 -12.771  16.449  1.00  0.00     0.007 A 
HETATM   25  C28 UNL     1      20.318 -14.200  16.880  1.00  0.00     0.007 A 
ENDBRANCH  17  23
ENDBRANCH  16  17
ENDBRANCH  14  16
ENDBRANCH  13  14
BRANCH  13  26
HETATM   26  O1  UNL     1      16.925 -11.824  19.889  1.00  0.00    -0.346 OA
ATOM     27  H1  UNL     1      16.798 -11.829  20.830  1.00  0.00     0.219 HD
ENDBRANCH  13  26
ENDBRANCH   1  13
BRANCH   8  28
HETATM   28  C12 UNL     1      15.616 -14.487  21.606  1.00  0.00     0.231 C 
HETATM   29  O2  UNL     1      16.050 -14.042  22.726  1.00  0.00    -0.272 OA
HETATM   30  N4  UNL     1      14.374 -14.029  21.185  1.00  0.00    -0.356 N 
ATOM     31  H4  UNL     1      14.018 -14.370  20.292  1.00  0.00     0.162 HD
BRANCH  30  32
HETATM   32  C13 UNL     1      13.547 -13.094  21.936  1.00  0.00     0.084 C 
HETATM   33  C14 UNL     1      12.192 -13.690  22.153  1.00  0.00     0.025 C 
HETATM   34  C15 UNL     1      11.243 -12.900  22.970  1.00  0.00     0.002 C 
HETATM   35  C16 UNL     1      11.839 -11.734  23.705  1.00  0.00     0.000 C 
HETATM   36  C17 UNL     1      11.896 -10.561  22.759  1.00  0.00     0.004 C 
HETATM   37  C18 UNL     1      12.188 -11.059  21.357  1.00  0.00    -0.017 C 
HETATM   38  C19 UNL     1      12.266  -9.829  20.463  1.00  0.00     0.010 C 
HETATM   39  C20 UNL     1      13.553 -11.705  21.406  1.00  0.00     0.029 C 
ENDBRANCH  30  32
ENDBRANCH   8  28
BRANCH  11  40
HETATM   40  C24 UNL     1      17.381 -18.500  23.081  1.00  0.00     0.061 C 
HETATM   41  C25 UNL     1      17.455 -18.123  24.529  1.00  0.00     0.012 C 
ENDBRANCH  11  40
TORSDOF 11
ENDMDL
MODEL 2
REMARK VINA RESULT: -7.632859496      1.959      5.819
REMARK  11 active torsions:
REMARK  status: ('A' for Active; 'I' for Inactive)
REMARK    1  A    between atoms: C2_2  and  N1_3 
REMARK    2  A    between atoms: N1_3  and  C3_6 
REMARK    3  A    between atoms: C3_6  and  C4_7 
REMARK    4  A    between atoms: C3_6  and  C26_39 
REMARK    5  A    between atoms: C4_7  and  N2_8 
REMARK    6  A    between atoms: N2_8  and  C5_10 
REMARK    7  A    between atoms: C5_10  and  O1_11 
REMARK    8  A    between atoms: C5_10  and  C6_13 
REMARK    9  A    between atoms: C11_20  and  C12_21 
REMARK       I    between atoms: C12_21  and  N4_23 
REMARK   10  A    between atoms: N4_23  and  C13_25 
REMARK   11  A    between atoms: C23_35  and  C24_36 
ROOT
HETATM    1  C6  UNL     1      14.861 -15.957  20.092  1.00  0.00     0.027 A 
HETATM    2  C7  UNL     1      14.222 -17.208  20.138  1.00  0.00     0.033 A 
HETATM    3  C8  UNL     1      13.027 -17.348  20.764  1.00  0.00     0.091 A 
HETATM    4  N3  UNL     1      12.448 -16.302  21.342  1.00  0.00    -0.346 N 
ATOM      5  H3  UNL     1      11.549 -16.418  21.810  1.00  0.00     0.167 HD
HETATM    6  C9  UNL     1      13.043 -15.072  21.317  1.00  0.00     0.156 A 
HETATM    7  C10 UNL     1      14.250 -14.855  20.702  1.00  0.00     0.025 A 
HETATM    8  C11 UNL     1      14.928 -13.530  20.696  1.00  0.00     0.147 A 
HETATM    9  C21 UNL     1      14.106 -12.511  21.386  1.00  0.00    -0.036 A 
HETATM   10  C22 UNL     1      14.574 -11.073  21.406  1.00  0.00     0.047 C 
HETATM   11  C23 UNL     1      12.963 -12.775  21.946  1.00  0.00     0.058 A 
HETATM   12  O3  UNL     1      12.380 -14.026  21.950  1.00  0.00    -0.297 OA
ENDROOT
BRANCH   1  13
HETATM   13  C5  UNL     1      16.091 -15.919  19.370  1.00  0.00     0.147 C 
BRANCH  13  14
HETATM   14  N2  UNL     1      16.507 -15.175  18.279  1.00  0.00    -0.368 N 
ATOM     15  H2  UNL     1      15.836 -14.927  17.551  1.00  0.00     0.161 HD
BRANCH  14  16
HETATM   16  C4  UNL     1      17.909 -14.738  18.155  1.00  0.00     0.155 C 
BRANCH  16  17
HETATM   17  C3  UNL     1      18.021 -13.280  17.839  1.00  0.00     0.207 C 
BRANCH  17  18
HETATM   18  N1  UNL     1      16.917 -12.765  17.053  1.00  0.00    -0.069 N 
ATOM     19  H12 UNL     1      16.210 -12.317  17.636  1.00  0.00     0.277 HD
ATOM     20  H11 UNL     1      16.341 -13.514  16.668  1.00  0.00     0.277 HD
BRANCH  18  21
HETATM   21  C2  UNL     1      17.414 -11.875  16.018  1.00  0.00     0.228 C 
HETATM   22  C1  UNL     1      16.325 -11.246  15.204  1.00  0.00     0.034 C 
ENDBRANCH  18  21
ENDBRANCH  17  18
BRANCH  17  23
HETATM   23  C26 UNL     1      19.356 -12.912  17.222  1.00  0.00     0.018 A 
HETATM   24  C27 UNL     1      20.538 -13.234  18.084  1.00  0.00     0.007 A 
HETATM   25  C28 UNL     1      20.306 -13.980  16.788  1.00  0.00     0.007 A 
ENDBRANCH  17  23
ENDBRANCH  16  17
ENDBRANCH  14  16
ENDBRANCH  13  14
BRANCH  13  26
HETATM   26  O1  UNL     1      16.996 -16.751  19.824  1.00  0.00    -0.346 OA
ATOM     27  H1  UNL     1      16.762 -17.165  20.646  1.00  0.00     0.219 HD
ENDBRANCH  13  26
ENDBRANCH   1  13
BRANCH   8  28
HETATM   28  C12 UNL     1      16.193 -13.630  21.502  1.00  0.00     0.231 C 
HETATM   29  O2  UNL     1      17.053 -12.698  21.322  1.00  0.00    -0.272 OA
HETATM   30  N4  UNL     1      16.521 -14.621  22.417  1.00  0.00    -0.356 N 
ATOM     31  H4  UNL     1      15.843 -15.367  22.577  1.00  0.00     0.162 HD
BRANCH  30  32
HETATM   32  C13 UNL     1      17.771 -14.666  23.166  1.00  0.00     0.084 C 
HETATM   33  C14 UNL     1      18.890 -15.036  22.245  1.00  0.00     0.025 C 
HETATM   34  C15 UNL     1      20.251 -15.053  22.829  1.00  0.00     0.002 C 
HETATM   35  C16 UNL     1      20.376 -14.437  24.193  1.00  0.00     0.000 C 
HETATM   36  C17 UNL     1      19.997 -15.478  25.216  1.00  0.00     0.004 C 
HETATM   37  C18 UNL     1      18.891 -16.352  24.659  1.00  0.00    -0.017 C 
HETATM   38  C19 UNL     1      18.534 -17.355  25.747  1.00  0.00     0.010 C 
HETATM   39  C20 UNL     1      17.703 -15.447  24.429  1.00  0.00     0.029 C 
ENDBRANCH  30  32
ENDBRANCH   8  28
BRANCH  11  40
HETATM   40  C24 UNL     1      12.138 -11.729  22.656  1.00  0.00     0.061 C 
HETATM   41  C25 UNL     1      11.348 -12.430  23.719  1.00  0.00     0.012 C 
ENDBRANCH  11  40
TORSDOF 11
ENDMDL
MODEL 3
REMARK VINA RESULT: -7.556773044      2.716      6.877
REMARK  11 active torsions:
REMARK  status: ('A' for Active; 'I' for Inactive)
REMARK    1  A    between atoms: C2_2  and  N1_3 
REMARK    2  A    between atoms: N1_3  and  C3_6 
REMARK    3  A    between atoms: C3_6  and  C4_7 
REMARK    4  A    between atoms: C3_6  and  C26_39 
REMARK    5  A    between atoms: C4_7  and  N2_8 
REMARK    6  A    between atoms: N2_8  and  C5_10 
REMARK    7  A    between atoms: C5_10  and  O1_11 
REMARK    8  A    between atoms: C5_10  and  C6_13 
REMARK    9  A    between atoms: C11_20  and  C12_21 
REMARK       I    between atoms: C12_21  and  N4_23 
REMARK   10  A    between atoms: N4_23  and  C13_25 
REMARK   11  A    between atoms: C23_35  and  C24_36 
ROOT
HETATM    1  C6  UNL     1      12.990 -17.409  20.903  1.00  0.00     0.027 A 
HETATM    2  C7  UNL     1      11.966 -17.847  20.045  1.00  0.00     0.033 A 
HETATM    3  C8  UNL     1      11.672 -19.167  19.943  1.00  0.00     0.091 A 
HETATM    4  N3  UNL     1      12.350 -20.061  20.653  1.00  0.00    -0.346 N 
ATOM      5  H3  UNL     1      12.121 -21.051  20.568  1.00  0.00     0.167 HD
HETATM    6  C9  UNL     1      13.353 -19.669  21.495  1.00  0.00     0.156 A 
HETATM    7  C10 UNL     1      13.705 -18.353  21.651  1.00  0.00     0.025 A 
HETATM    8  C11 UNL     1      14.817 -17.912  22.536  1.00  0.00     0.147 A 
HETATM    9  C21 UNL     1      15.427 -19.065  23.234  1.00  0.00    -0.036 A 
HETATM   10  C22 UNL     1      16.514 -18.821  24.256  1.00  0.00     0.047 C 
HETATM   11  C23 UNL     1      15.046 -20.294  23.051  1.00  0.00     0.058 A 
HETATM   12  O3  UNL     1      14.023 -20.663  22.200  1.00  0.00    -0.297 OA
ENDROOT
BRANCH   1  13
HETATM   13  C5  UNL     1      13.182 -15.996  20.962  1.00  0.00     0.147 C 
BRANCH  13  14
HETATM   14  N2  UNL     1      12.816 -15.046  21.900  1.00  0.00    -0.368 N 
ATOM     15  H2  UNL     1      13.029 -15.202  22.886  1.00  0.00     0.161 HD
BRANCH  14  16
HETATM   16  C4  UNL     1      12.121 -13.812  21.491  1.00  0.00     0.155 C 
BRANCH  16  17
HETATM   17  C3  UNL     1      12.519 -12.636  22.327  1.00  0.00     0.207 C 
BRANCH  17  18
HETATM   18  N1  UNL     1      11.398 -11.846  22.797  1.00  0.00    -0.069 N 
ATOM     19  H12 UNL     1      10.523 -12.369  22.765  1.00  0.00     0.277 HD
ATOM     20  H11 UNL     1      11.153 -11.104  22.142  1.00  0.00     0.277 HD
BRANCH  18  21
HETATM   21  C2  UNL     1      11.676 -11.329  24.126  1.00  0.00     0.228 C 
HETATM   22  C1  UNL     1      11.800  -9.836  24.166  1.00  0.00     0.034 C 
ENDBRANCH  18  21
ENDBRANCH  17  18
BRANCH  17  23
HETATM   23  C26 UNL     1      13.565 -11.766  21.657  1.00  0.00     0.018 A 
HETATM   24  C27 UNL     1      14.871 -12.456  21.414  1.00  0.00     0.007 A 
HETATM   25  C28 UNL     1      13.992 -12.045  20.253  1.00  0.00     0.007 A 
ENDBRANCH  17  23
ENDBRANCH  16  17
ENDBRANCH  14  16
ENDBRANCH  13  14
BRANCH  13  26
HETATM   26  O1  UNL     1      13.822 -15.507  19.930  1.00  0.00    -0.346 OA
ATOM     27  H1  UNL     1      13.655 -14.585  19.773  1.00  0.00     0.219 HD
ENDBRANCH  13  26
ENDBRANCH   1  13
BRANCH   8  28
HETATM   28  C12 UNL     1      15.916 -17.338  21.685  1.00  0.00     0.231 C 
HETATM   29  O2  UNL     1      16.383 -18.105  20.771  1.00  0.00    -0.272 OA
HETATM   30  N4  UNL     1      16.470 -16.069  21.786  1.00  0.00    -0.356 N 
ATOM     31  H4  UNL     1      16.104 -15.444  22.505  1.00  0.00     0.162 HD
BRANCH  30  32
HETATM   32  C13 UNL     1      17.542 -15.571  20.932  1.00  0.00     0.084 C 
HETATM   33  C14 UNL     1      18.488 -14.750  21.749  1.00  0.00     0.025 C 
HETATM   34  C15 UNL     1      19.684 -14.226  21.050  1.00  0.00     0.002 C 
HETATM   35  C16 UNL     1      19.941 -14.805  19.689  1.00  0.00     0.000 C 
HETATM   36  C17 UNL     1      19.107 -14.045  18.688  1.00  0.00     0.004 C 
HETATM   37  C18 UNL     1      17.790 -13.651  19.327  1.00  0.00    -0.017 C 
HETATM   38  C19 UNL     1      16.987 -12.921  18.261  1.00  0.00     0.010 C 
HETATM   39  C20 UNL     1      17.078 -14.939  19.670  1.00  0.00     0.029 C 
ENDBRANCH  30  32
ENDBRANCH   8  28
BRANCH  11  40
HETATM   40  C24 UNL     1      15.682 -21.465  23.762  1.00  0.00     0.061 C 
HETATM   41  C25 UNL     1      14.629 -22.086  24.627  1.00  0.00     0.012 C 
ENDBRANCH  11  40
TORSDOF 11
ENDMDL
MODEL 4
REMARK VINA RESULT: -7.520730889      2.799      7.149
REMARK  11 active torsions:
REMARK  status: ('A' for Active; 'I' for Inactive)
REMARK    1  A    between atoms: C2_2  and  N1_3 
REMARK    2  A    between atoms: N1_3  and  C3_6 
REMARK    3  A    between atoms: C3_6  and  C4_7 
REMARK    4  A    between atoms: C3_6  and  C26_39 
REMARK    5  A    between atoms: C4_7  and  N2_8 
REMARK    6  A    between atoms: N2_8  and  C5_10 
REMARK    7  A    between atoms: C5_10  and  O1_11 
REMARK    8  A    between atoms: C5_10  and  C6_13 
REMARK    9  A    between atoms: C11_20  and  C12_21 
REMARK       I    between atoms: C12_21  and  N4_23 
REMARK   10  A    between atoms: N4_23  and  C13_25 
REMARK   11  A    between atoms: C23_35  and  C24_36 
ROOT
HETATM    1  C6  UNL     1      14.798 -14.150  20.858  1.00  0.00     0.027 A 
HETATM    2  C7  UNL     1      14.013 -13.007  21.089  1.00  0.00     0.033 A 
HETATM    3  C8  UNL     1      14.570 -11.772  21.056  1.00  0.00     0.091 A 
HETATM    4  N3  UNL     1      15.867 -11.628  20.806  1.00  0.00    -0.346 N 
ATOM      5  H3  UNL     1      16.275 -10.694  20.783  1.00  0.00     0.167 HD
HETATM    6  C9  UNL     1      16.659 -12.718  20.577  1.00  0.00     0.156 A 
HETATM    7  C10 UNL     1      16.165 -13.998  20.594  1.00  0.00     0.025 A 
HETATM    8  C11 UNL     1      17.020 -15.198  20.383  1.00  0.00     0.147 A 
HETATM    9  C21 UNL     1      18.422 -14.808  20.112  1.00  0.00    -0.036 A 
HETATM   10  C22 UNL     1      19.435 -15.879  19.775  1.00  0.00     0.047 C 
HETATM   11  C23 UNL     1      18.831 -13.574  20.103  1.00  0.00     0.058 A 
HETATM   12  O3  UNL     1      18.007 -12.489  20.328  1.00  0.00    -0.297 OA
ENDROOT
BRANCH   1  13
HETATM   13  C5  UNL     1      14.098 -15.393  20.875  1.00  0.00     0.147 C 
BRANCH  13  14
HETATM   14  N2  UNL     1      13.644 -16.219  19.861  1.00  0.00    -0.368 N 
ATOM     15  H2  UNL     1      14.052 -16.145  18.928  1.00  0.00     0.161 HD
BRANCH  14  16
HETATM   16  C4  UNL     1      12.578 -17.205  20.112  1.00  0.00     0.155 C 
BRANCH  16  17
HETATM   17  C3  UNL     1      12.716 -18.419  19.249  1.00  0.00     0.207 C 
BRANCH  17  18
HETATM   18  N1  UNL     1      13.880 -18.394  18.385  1.00  0.00    -0.069 N 
ATOM     19  H12 UNL     1      14.470 -17.581  18.564  1.00  0.00     0.277 HD
ATOM     20  H11 UNL     1      13.633 -18.190  17.417  1.00  0.00     0.277 HD
BRANCH  18  21
HETATM   21  C2  UNL     1      14.618 -19.640  18.507  1.00  0.00     0.228 C 
HETATM   22  C1  UNL     1      15.122 -19.897  19.894  1.00  0.00     0.034 C 
ENDBRANCH  18  21
ENDBRANCH  17  18
BRANCH  17  23
HETATM   23  C26 UNL     1      11.455 -18.730  18.465  1.00  0.00     0.018 A 
HETATM   24  C27 UNL     1      10.600 -17.534  18.182  1.00  0.00     0.007 A 
HETATM   25  C28 UNL     1      11.306 -18.257  17.056  1.00  0.00     0.007 A 
ENDBRANCH  17  23
ENDBRANCH  16  17
ENDBRANCH  14  16
ENDBRANCH  13  14
BRANCH  13  26
HETATM   26  O1  UNL     1      13.830 -15.832  22.080  1.00  0.00    -0.346 OA
ATOM     27  H1  UNL     1      14.465 -15.572  22.736  1.00  0.00     0.219 HD
ENDBRANCH  13  26
ENDBRANCH   1  13
BRANCH   8  28
HETATM   28  C12 UNL     1      17.069 -15.989  21.660  1.00  0.00     0.231 C 
HETATM   29  O2  UNL     1      17.476 -15.361  22.700  1.00  0.00    -0.272 OA
HETATM   30  N4  UNL     1      16.716 -17.322  21.828  1.00  0.00    -0.356 N 
ATOM     31  H4  UNL     1      16.383 -17.833  21.010  1.00  0.00     0.162 HD
BRANCH  30  32
HETATM   32  C13 UNL     1      16.791 -18.038  23.095  1.00  0.00     0.084 C 
HETATM   33  C14 UNL     1      17.992 -18.929  23.094  1.00  0.00     0.025 C 
HETATM   34  C15 UNL     1      18.264 -19.677  24.343  1.00  0.00     0.002 C 
HETATM   35  C16 UNL     1      17.466 -19.246  25.540  1.00  0.00     0.000 C 
HETATM   36  C17 UNL     1      16.130 -19.945  25.491  1.00  0.00     0.004 C 
HETATM   37  C18 UNL     1      15.689 -20.088  24.048  1.00  0.00    -0.017 C 
HETATM   38  C19 UNL     1      14.327 -20.766  24.071  1.00  0.00     0.010 C 
HETATM   39  C20 UNL     1      15.520 -18.685  23.511  1.00  0.00     0.029 C 
ENDBRANCH  30  32
ENDBRANCH   8  28
BRANCH  11  40
HETATM   40  C24 UNL     1      20.266 -13.189  19.836  1.00  0.00     0.061 C 
HETATM   41  C25 UNL     1      20.440 -13.121  18.349  1.00  0.00     0.012 C 
ENDBRANCH  11  40
TORSDOF 11
ENDMDL
MODEL 5
REMARK VINA RESULT: -7.501659360      3.163      7.197
REMARK  11 active torsions:
REMARK  status: ('A' for Active; 'I' for Inactive)
REMARK    1  A    between atoms: C2_2  and  N1_3 
REMARK    2  A    between atoms: N1_3  and  C3_6 
REMARK    3  A    between atoms: C3_6  and  C4_7 
REMARK    4  A    between atoms: C3_6  and  C26_39 
REMARK    5  A    between atoms: C4_7  and  N2_8 
REMARK    6  A    between atoms: N2_8  and  C5_10 
REMARK    7  A    between atoms: C5_10  and  O1_11 
REMARK    8  A    between atoms: C5_10  and  C6_13 
REMARK    9  A    between atoms: C11_20  and  C12_21 
REMARK       I    between atoms: C12_21  and  N4_23 
REMARK   10  A    between atoms: N4_23  and  C13_25 
REMARK   11  A    between atoms: C23_35  and  C24_36 
ROOT
HETATM    1  C6  UNL     1      12.443 -16.757  20.094  1.00  0.00     0.027 A 
HETATM    2  C7  UNL     1      11.453 -16.702  19.097  1.00  0.00     0.033 A 
HETATM    3  C8  UNL     1      10.896 -17.840  18.617  1.00  0.00     0.091 A 
HETATM    4  N3  UNL     1      11.282 -19.023  19.082  1.00  0.00    -0.346 N 
ATOM      5  H3  UNL     1      10.856 -19.873  18.714  1.00  0.00     0.167 HD
HETATM    6  C9  UNL     1      12.242 -19.113  20.050  1.00  0.00     0.156 A 
HETATM    7  C10 UNL     1      12.849 -18.004  20.584  1.00  0.00     0.025 A 
HETATM    8  C11 UNL     1      13.922 -18.086  21.613  1.00  0.00     0.147 A 
HETATM    9  C21 UNL     1      14.186 -19.491  21.992  1.00  0.00    -0.036 A 
HETATM   10  C22 UNL     1      15.177 -19.786  23.096  1.00  0.00     0.047 C 
HETATM   11  C23 UNL     1      13.573 -20.504  21.454  1.00  0.00     0.058 A 
HETATM   12  O3  UNL     1      12.599 -20.385  20.483  1.00  0.00    -0.297 OA
ENDROOT
BRANCH   1  13
HETATM   13  C5  UNL     1      12.926 -15.496  20.554  1.00  0.00     0.147 C 
BRANCH  13  14
HETATM   14  N2  UNL     1      12.653 -14.753  21.690  1.00  0.00    -0.368 N 
ATOM     15  H2  UNL     1      13.105 -14.994  22.572  1.00  0.00     0.161 HD
BRANCH  14  16
HETATM   16  C4  UNL     1      11.715 -13.617  21.639  1.00  0.00     0.155 C 
BRANCH  16  17
HETATM   17  C3  UNL     1      12.358 -12.334  22.065  1.00  0.00     0.207 C 
BRANCH  17  18
HETATM   18  N1  UNL     1      11.421 -11.348  22.566  1.00  0.00    -0.069 N 
ATOM     19  H12 UNL     1      10.454 -11.608  22.374  1.00  0.00     0.277 HD
ATOM     20  H11 UNL     1      11.453 -10.482  22.028  1.00  0.00     0.277 HD
BRANCH  18  21
HETATM   21  C2  UNL     1      11.651 -11.116  23.982  1.00  0.00     0.228 C 
HETATM   22  C1  UNL     1      11.806  -9.667  24.328  1.00  0.00     0.034 C 
ENDBRANCH  18  21
ENDBRANCH  17  18
BRANCH  17  23
HETATM   23  C26 UNL     1      13.259 -11.746  20.996  1.00  0.00     0.018 A 
HETATM   24  C27 UNL     1      14.046 -10.555  21.448  1.00  0.00     0.007 A 
HETATM   25  C28 UNL     1      14.744 -11.856  21.117  1.00  0.00     0.007 A 
ENDBRANCH  17  23
ENDBRANCH  16  17
ENDBRANCH  14  16
ENDBRANCH  13  14
BRANCH  13  26
HETATM   26  O1  UNL     1      13.788 -14.933  19.744  1.00  0.00    -0.346 OA
ATOM     27  H1  UNL     1      14.669 -15.282  19.814  1.00  0.00     0.219 HD
ENDBRANCH  13  26
ENDBRANCH   1  13
BRANCH   8  28
HETATM   28  C12 UNL     1      15.208 -17.589  21.012  1.00  0.00     0.231 C 
HETATM   29  O2  UNL     1      15.602 -18.183  19.948  1.00  0.00    -0.272 OA
HETATM   30  N4  UNL     1      16.005 -16.557  21.490  1.00  0.00    -0.356 N 
ATOM     31  H4  UNL     1      15.701 -16.070  22.333  1.00  0.00     0.162 HD
BRANCH  30  32
HETATM   32  C13 UNL     1      17.248 -16.124  20.864  1.00  0.00     0.084 C 
HETATM   33  C14 UNL     1      18.409 -16.642  21.652  1.00  0.00     0.025 C 
HETATM   34  C15 UNL     1      19.758 -16.358  21.111  1.00  0.00     0.002 C 
HETATM   35  C16 UNL     1      19.791 -15.826  19.707  1.00  0.00     0.000 C 
HETATM   36  C17 UNL     1      19.573 -14.335  19.763  1.00  0.00     0.004 C 
HETATM   37  C18 UNL     1      18.609 -14.009  20.887  1.00  0.00    -0.017 C 
HETATM   38  C19 UNL     1      18.407 -12.501  20.868  1.00  0.00     0.010 C 
HETATM   39  C20 UNL     1      17.299 -14.676  20.536  1.00  0.00     0.029 C 
ENDBRANCH  30  32
ENDBRANCH   8  28
BRANCH  11  40
HETATM   40  C24 UNL     1      13.858 -21.935  21.843  1.00  0.00     0.061 C 
HETATM   41  C25 UNL     1      12.602 -22.493  22.439  1.00  0.00     0.012 C 
ENDBRANCH  11  40
TORSDOF 11
ENDMDL
