MODEL 1
REMARK VINA RESULT: -9.120213663      0.000      0.000
REMARK  8 active torsions:
REMARK  status: ('A' for Active; 'I' for Inactive)
REMARK    1  A    between atoms: N1_2  and  C2_4 
REMARK    2  A    between atoms: C4_8  and  C5_9 
REMARK    3  A    between atoms: N3_11  and  C7_12 
REMARK    4  A    between atoms: C15_24  and  C16_25 
REMARK    5  A    between atoms: C16_25  and  C17_26 
REMARK    6  A    between atoms: C17_26  and  O1_27 
REMARK    7  A    between atoms: C17_26  and  N6_29 
REMARK    8  A    between atoms: N6_29  and  C18_30 
ROOT
HETATM    1  C7  UNL     1       9.227  25.341 116.514  1.00  0.00     0.139 A 
HETATM    2  N4  UNL     1       8.048  25.718 115.820  1.00  0.00    -0.337 N 
ATOM      3  H4  UNL     1       7.599  25.037 115.207  1.00  0.00     0.168 HD
HETATM    4  C8  UNL     1       7.514  26.914 115.940  1.00  0.00     0.182 A 
HETATM    5  N5  UNL     1       8.038  27.862 116.723  1.00  0.00    -0.352 N 
ATOM      6  H5  UNL     1       7.604  28.782 116.797  1.00  0.00     0.166 HD
HETATM    7  C9  UNL     1       9.154  27.567 117.407  1.00  0.00     0.048 A 
HETATM    8  C10 UNL     1       9.713  28.519 118.219  1.00  0.00     0.031 A 
HETATM    9  C11 UNL     1      10.837  28.279 118.934  1.00  0.00     0.014 A 
HETATM   10  C12 UNL     1      11.437  27.051 118.846  1.00  0.00    -0.025 A 
HETATM   11  C13 UNL     1      12.596  26.801 119.569  1.00  0.00     0.013 A 
HETATM   12  C14 UNL     1      13.221  25.588 119.493  1.00  0.00     0.008 A 
HETATM   13  C15 UNL     1      12.700  24.600 118.693  1.00  0.00    -0.049 A 
HETATM   14  C25 UNL     1      11.538  24.825 117.959  1.00  0.00     0.021 A 
HETATM   15  C26 UNL     1      10.917  26.031 118.035  1.00  0.00    -0.009 A 
HETATM   16  C27 UNL     1       9.754  26.289 117.299  1.00  0.00     0.047 A 
ENDROOT
BRANCH   1  17
HETATM   17  N3  UNL     1       9.577  24.032 116.228  1.00  0.00    -0.232 N 
HETATM   18  C6  UNL     1      10.656  23.567 115.501  1.00  0.00     0.148 A 
HETATM   19  C5  UNL     1      10.729  22.221 115.644  1.00  0.00     0.082 A 
HETATM   20  N9  UNL     1       9.720  21.853 116.439  1.00  0.00    -0.281 N 
HETATM   21  N8  UNL     1       9.052  22.946 116.772  1.00  0.00    -0.014 NA
ATOM     22  H9  UNL     1       9.503  20.901 116.736  1.00  0.00     0.184 HD
BRANCH  19  23
HETATM   23  C4  UNL     1      11.748  21.323 115.052  1.00  0.00     0.053 A 
HETATM   24  C3  UNL     1      11.975  20.009 115.361  1.00  0.00     0.111 A 
HETATM   25  N2  UNL     1      12.910  19.372 114.719  1.00  0.00    -0.345 N 
HETATM   26  C2  UNL     1      13.603  20.031 113.789  1.00  0.00     0.144 A 
ATOM     27  H2  UNL     1      13.109  18.392 114.922  1.00  0.00     0.167 HD
HETATM   28  S1  UNL     1      12.899  21.598 113.836  1.00  0.00    -0.051 SA
BRANCH  26  29
HETATM   29  N1  UNL     1      14.572  19.619 113.000  1.00  0.00    -0.375 N 
HETATM   30  C1  UNL     1      14.574  18.194 112.696  1.00  0.00     0.148 C 
ATOM     31  H1  UNL     1      15.276  20.256 112.626  1.00  0.00     0.161 HD
ENDBRANCH  26  29
ENDBRANCH  19  23
ENDBRANCH   1  17
BRANCH  13  32
HETATM   32  C16 UNL     1      13.467  23.329 118.648  1.00  0.00     0.138 C 
BRANCH  32  33
HETATM   33  C17 UNL     1      14.155  23.253 117.267  1.00  0.00     0.194 C 
BRANCH  33  34
HETATM   34  O1  UNL     1      14.550  22.034 116.982  1.00  0.00    -0.339 OA
ATOM     35  H1  UNL     1      14.845  21.957 116.082  1.00  0.00     0.220 HD
ENDBRANCH  33  34
BRANCH  33  36
HETATM   36  N6  UNL     1      14.352  24.209 116.430  1.00  0.00    -0.385 NA
BRANCH  36  37
HETATM   37  C18 UNL     1      14.607  25.219 115.810  1.00  0.00     0.113 A 
HETATM   38  C19 UNL     1      14.067  26.485 116.104  1.00  0.00     0.069 A 
HETATM   39  C20 UNL     1      14.387  27.618 115.410  1.00  0.00     0.008 A 
HETATM   40  C21 UNL     1      13.799  28.953 115.749  1.00  0.00     0.068 C 
HETATM   41  N7  UNL     1      15.262  27.532 114.394  1.00  0.00    -0.363 N 
HETATM   42  C22 UNL     1      15.825  26.360 114.049  1.00  0.00     0.008 A 
ATOM     43  H7  UNL     1      15.504  28.374 113.872  1.00  0.00     0.165 HD
HETATM   44  C23 UNL     1      16.787  26.336 112.921  1.00  0.00     0.068 C 
HETATM   45  C24 UNL     1      15.508  25.209 114.741  1.00  0.00     0.069 A 
ENDBRANCH  36  37
ENDBRANCH  33  36
ENDBRANCH  32  33
ENDBRANCH  13  32
TORSDOF 8
ENDMDL
MODEL 2
REMARK VINA RESULT: -9.116820582      3.282      7.996
REMARK  8 active torsions:
REMARK  status: ('A' for Active; 'I' for Inactive)
REMARK    1  A    between atoms: N1_2  and  C2_4 
REMARK    2  A    between atoms: C4_8  and  C5_9 
REMARK    3  A    between atoms: N3_11  and  C7_12 
REMARK    4  A    between atoms: C15_24  and  C16_25 
REMARK    5  A    between atoms: C16_25  and  C17_26 
REMARK    6  A    between atoms: C17_26  and  O1_27 
REMARK    7  A    between atoms: C17_26  and  N6_29 
REMARK    8  A    between atoms: N6_29  and  C18_30 
ROOT
HETATM    1  C7  UNL     1      14.398  25.698 115.993  1.00  0.00     0.139 A 
HETATM    2  N4  UNL     1      14.374  27.007 116.540  1.00  0.00    -0.337 N 
ATOM      3  H4  UNL     1      14.944  27.733 116.106  1.00  0.00     0.168 HD
HETATM    4  C8  UNL     1      13.640  27.316 117.588  1.00  0.00     0.182 A 
HETATM    5  N5  UNL     1      12.864  26.426 118.213  1.00  0.00    -0.352 N 
ATOM      6  H5  UNL     1      12.305  26.693 119.023  1.00  0.00     0.166 HD
HETATM    7  C9  UNL     1      12.843  25.170 117.742  1.00  0.00     0.048 A 
HETATM    8  C10 UNL     1      12.054  24.235 118.362  1.00  0.00     0.031 A 
HETATM    9  C11 UNL     1      11.992  22.953 117.931  1.00  0.00     0.014 A 
HETATM   10  C12 UNL     1      12.736  22.574 116.846  1.00  0.00    -0.025 A 
HETATM   11  C13 UNL     1      12.685  21.258 116.405  1.00  0.00     0.013 A 
HETATM   12  C14 UNL     1      13.424  20.851 115.330  1.00  0.00     0.008 A 
HETATM   13  C15 UNL     1      14.229  21.749 114.675  1.00  0.00    -0.049 A 
HETATM   14  C25 UNL     1      14.298  23.075 115.096  1.00  0.00     0.021 A 
HETATM   15  C26 UNL     1      13.563  23.480 116.165  1.00  0.00    -0.009 A 
HETATM   16  C27 UNL     1      13.622  24.804 116.617  1.00  0.00     0.047 A 
ENDROOT
BRANCH   1  17
HETATM   17  N3  UNL     1      15.236  25.634 114.892  1.00  0.00    -0.232 N 
HETATM   18  C6  UNL     1      15.016  26.107 113.612  1.00  0.00     0.148 A 
HETATM   19  C5  UNL     1      16.172  26.017 112.910  1.00  0.00     0.082 A 
HETATM   20  N9  UNL     1      17.092  25.498 113.730  1.00  0.00    -0.281 N 
HETATM   21  N8  UNL     1      16.511  25.281 114.899  1.00  0.00    -0.014 NA
ATOM     22  H9  UNL     1      18.066  25.305 113.496  1.00  0.00     0.184 HD
BRANCH  19  23
HETATM   23  C4  UNL     1      16.389  26.434 111.506  1.00  0.00     0.053 A 
HETATM   24  C3  UNL     1      16.510  25.624 110.409  1.00  0.00     0.111 A 
HETATM   25  N2  UNL     1      16.681  26.177 109.243  1.00  0.00    -0.345 N 
HETATM   26  C2  UNL     1      16.729  27.508 109.174  1.00  0.00     0.144 A 
ATOM     27  H2  UNL     1      16.776  25.606 108.404  1.00  0.00     0.167 HD
HETATM   28  S1  UNL     1      16.526  27.978 110.814  1.00  0.00    -0.051 SA
BRANCH  26  29
HETATM   29  N1  UNL     1      16.874  28.300 108.133  1.00  0.00    -0.375 N 
HETATM   30  C1  UNL     1      16.514  27.720 106.845  1.00  0.00     0.148 C 
ATOM     31  H1  UNL     1      17.216  29.257 108.222  1.00  0.00     0.161 HD
ENDBRANCH  26  29
ENDBRANCH  19  23
ENDBRANCH   1  17
BRANCH  13  32
HETATM   32  C16 UNL     1      15.021  21.206 113.542  1.00  0.00     0.138 C 
BRANCH  32  33
HETATM   33  C17 UNL     1      14.126  20.190 112.797  1.00  0.00     0.194 C 
BRANCH  33  34
HETATM   34  O1  UNL     1      13.024  20.743 112.348  1.00  0.00    -0.339 OA
ATOM     35  H1  UNL     1      12.544  20.162 111.769  1.00  0.00     0.220 HD
ENDBRANCH  33  34
BRANCH  33  36
HETATM   36  N6  UNL     1      14.356  18.942 112.587  1.00  0.00    -0.385 NA
BRANCH  36  37
HETATM   37  C18 UNL     1      14.756  17.833 112.306  1.00  0.00     0.113 A 
HETATM   38  C19 UNL     1      14.835  17.330 110.994  1.00  0.00     0.069 A 
HETATM   39  C20 UNL     1      15.314  16.086 110.695  1.00  0.00     0.008 A 
HETATM   40  C21 UNL     1      15.392  15.579 109.287  1.00  0.00     0.068 C 
HETATM   41  N7  UNL     1      15.734  15.293 111.695  1.00  0.00    -0.363 N 
HETATM   42  C22 UNL     1      15.692  15.698 112.977  1.00  0.00     0.008 A 
ATOM     43  H7  UNL     1      16.092  14.363 111.477  1.00  0.00     0.165 HD
HETATM   44  C23 UNL     1      16.177  14.776 114.032  1.00  0.00     0.068 C 
HETATM   45  C24 UNL     1      15.210  16.952 113.292  1.00  0.00     0.069 A 
ENDBRANCH  36  37
ENDBRANCH  33  36
ENDBRANCH  32  33
ENDBRANCH  13  32
TORSDOF 8
ENDMDL
MODEL 3
REMARK VINA RESULT: -9.088916703      3.277      7.973
REMARK  8 active torsions:
REMARK  status: ('A' for Active; 'I' for Inactive)
REMARK    1  A    between atoms: N1_2  and  C2_4 
REMARK    2  A    between atoms: C4_8  and  C5_9 
REMARK    3  A    between atoms: N3_11  and  C7_12 
REMARK    4  A    between atoms: C15_24  and  C16_25 
REMARK    5  A    between atoms: C16_25  and  C17_26 
REMARK    6  A    between atoms: C17_26  and  O1_27 
REMARK    7  A    between atoms: C17_26  and  N6_29 
REMARK    8  A    between atoms: N6_29  and  C18_30 
ROOT
HETATM    1  C7  UNL     1      14.381  25.656 116.030  1.00  0.00     0.139 A 
HETATM    2  N4  UNL     1      14.353  26.958 116.592  1.00  0.00    -0.337 N 
ATOM      3  H4  UNL     1      14.925  27.689 116.167  1.00  0.00     0.168 HD
HETATM    4  C8  UNL     1      13.617  27.256 117.640  1.00  0.00     0.182 A 
HETATM    5  N5  UNL     1      12.839  26.358 118.254  1.00  0.00    -0.352 N 
ATOM      6  H5  UNL     1      12.278  26.616 119.065  1.00  0.00     0.166 HD
HETATM    7  C9  UNL     1      12.821  25.107 117.769  1.00  0.00     0.048 A 
HETATM    8  C10 UNL     1      12.032  24.165 118.377  1.00  0.00     0.031 A 
HETATM    9  C11 UNL     1      11.972  22.888 117.932  1.00  0.00     0.014 A 
HETATM   10  C12 UNL     1      12.719  22.521 116.845  1.00  0.00    -0.025 A 
HETATM   11  C13 UNL     1      12.671  21.210 116.390  1.00  0.00     0.013 A 
HETATM   12  C14 UNL     1      13.413  20.815 115.313  1.00  0.00     0.008 A 
HETATM   13  C15 UNL     1      14.220  21.721 114.669  1.00  0.00    -0.049 A 
HETATM   14  C25 UNL     1      14.286  23.042 115.105  1.00  0.00     0.021 A 
HETATM   15  C26 UNL     1      13.548  23.435 116.176  1.00  0.00    -0.009 A 
HETATM   16  C27 UNL     1      13.604  24.754 116.642  1.00  0.00     0.047 A 
ENDROOT
BRANCH   1  17
HETATM   17  N3  UNL     1      15.222  25.604 114.931  1.00  0.00    -0.232 N 
HETATM   18  C6  UNL     1      15.000  26.079 113.653  1.00  0.00     0.148 A 
HETATM   19  C5  UNL     1      16.159  26.004 112.953  1.00  0.00     0.082 A 
HETATM   20  N9  UNL     1      17.082  25.492 113.773  1.00  0.00    -0.281 N 
HETATM   21  N8  UNL     1      16.501  25.265 114.941  1.00  0.00    -0.014 NA
ATOM     22  H9  UNL     1      18.059  25.310 113.541  1.00  0.00     0.184 HD
BRANCH  19  23
HETATM   23  C4  UNL     1      16.374  26.428 111.551  1.00  0.00     0.053 A 
HETATM   24  C3  UNL     1      16.470  25.625 110.447  1.00  0.00     0.111 A 
HETATM   25  N2  UNL     1      16.645  26.184 109.284  1.00  0.00    -0.345 N 
HETATM   26  C2  UNL     1      16.722  27.514 109.226  1.00  0.00     0.144 A 
ATOM     27  H2  UNL     1      16.721  25.618 108.439  1.00  0.00     0.167 HD
HETATM   28  S1  UNL     1      16.540  27.974 110.871  1.00  0.00    -0.051 SA
BRANCH  26  29
HETATM   29  N1  UNL     1      16.876  28.311 108.191  1.00  0.00    -0.375 N 
HETATM   30  C1  UNL     1      16.478  27.756 106.903  1.00  0.00     0.148 C 
ATOM     31  H1  UNL     1      17.251  29.256 108.283  1.00  0.00     0.161 HD
ENDBRANCH  26  29
ENDBRANCH  19  23
ENDBRANCH   1  17
BRANCH  13  32
HETATM   32  C16 UNL     1      15.015  21.191 113.533  1.00  0.00     0.138 C 
BRANCH  32  33
HETATM   33  C17 UNL     1      14.162  20.109 112.835  1.00  0.00     0.194 C 
BRANCH  33  34
HETATM   34  O1  UNL     1      13.038  20.598 112.364  1.00  0.00    -0.339 OA
ATOM     35  H1  UNL     1      12.403  19.917 112.179  1.00  0.00     0.220 HD
ENDBRANCH  33  34
BRANCH  33  36
HETATM   36  N6  UNL     1      14.440  18.863 112.679  1.00  0.00    -0.385 NA
BRANCH  36  37
HETATM   37  C18 UNL     1      14.846  17.758 112.393  1.00  0.00     0.113 A 
HETATM   38  C19 UNL     1      15.271  16.802 113.335  1.00  0.00     0.069 A 
HETATM   39  C20 UNL     1      15.702  15.551 112.994  1.00  0.00     0.008 A 
HETATM   40  C21 UNL     1      16.144  14.553 114.019  1.00  0.00     0.068 C 
HETATM   41  N7  UNL     1      15.725  15.203 111.696  1.00  0.00    -0.363 N 
HETATM   42  C22 UNL     1      15.333  16.057 110.733  1.00  0.00     0.008 A 
ATOM     43  H7  UNL     1      16.046  14.270 111.436  1.00  0.00     0.165 HD
HETATM   44  C23 UNL     1      15.377  15.607 109.320  1.00  0.00     0.068 C 
HETATM   45  C24 UNL     1      14.898  17.324 111.065  1.00  0.00     0.069 A 
ENDBRANCH  36  37
ENDBRANCH  33  36
ENDBRANCH  32  33
ENDBRANCH  13  32
TORSDOF 8
ENDMDL
MODEL 4
REMARK VINA RESULT: -9.079808811      0.038      1.354
REMARK  8 active torsions:
REMARK  status: ('A' for Active; 'I' for Inactive)
REMARK    1  A    between atoms: N1_2  and  C2_4 
REMARK    2  A    between atoms: C4_8  and  C5_9 
REMARK    3  A    between atoms: N3_11  and  C7_12 
REMARK    4  A    between atoms: C15_24  and  C16_25 
REMARK    5  A    between atoms: C16_25  and  C17_26 
REMARK    6  A    between atoms: C17_26  and  O1_27 
REMARK    7  A    between atoms: C17_26  and  N6_29 
REMARK    8  A    between atoms: N6_29  and  C18_30 
ROOT
HETATM    1  C7  UNL     1       9.207  25.312 116.505  1.00  0.00     0.139 A 
HETATM    2  N4  UNL     1       8.029  25.682 115.807  1.00  0.00    -0.337 N 
ATOM      3  H4  UNL     1       7.585  24.998 115.194  1.00  0.00     0.168 HD
HETATM    4  C8  UNL     1       7.489  26.876 115.924  1.00  0.00     0.182 A 
HETATM    5  N5  UNL     1       8.006  27.827 116.708  1.00  0.00    -0.352 N 
ATOM      6  H5  UNL     1       7.566  28.745 116.780  1.00  0.00     0.166 HD
HETATM    7  C9  UNL     1       9.121  27.539 117.396  1.00  0.00     0.048 A 
HETATM    8  C10 UNL     1       9.673  28.494 118.208  1.00  0.00     0.031 A 
HETATM    9  C11 UNL     1      10.796  28.260 118.927  1.00  0.00     0.014 A 
HETATM   10  C12 UNL     1      11.402  27.036 118.842  1.00  0.00    -0.025 A 
HETATM   11  C13 UNL     1      12.561  26.792 119.569  1.00  0.00     0.013 A 
HETATM   12  C14 UNL     1      13.191  25.582 119.496  1.00  0.00     0.008 A 
HETATM   13  C15 UNL     1      12.678  24.591 118.695  1.00  0.00    -0.049 A 
HETATM   14  C25 UNL     1      11.517  24.809 117.957  1.00  0.00     0.021 A 
HETATM   15  C26 UNL     1      10.890  26.012 118.030  1.00  0.00    -0.009 A 
HETATM   16  C27 UNL     1       9.727  26.263 117.290  1.00  0.00     0.047 A 
ENDROOT
BRANCH   1  17
HETATM   17  N3  UNL     1       9.565  24.004 116.222  1.00  0.00    -0.232 N 
HETATM   18  C6  UNL     1      10.644  23.544 115.492  1.00  0.00     0.148 A 
HETATM   19  C5  UNL     1      10.727  22.199 115.639  1.00  0.00     0.082 A 
HETATM   20  N9  UNL     1       9.723  21.826 116.438  1.00  0.00    -0.281 N 
HETATM   21  N8  UNL     1       9.049  22.916 116.771  1.00  0.00    -0.014 NA
ATOM     22  H9  UNL     1       9.513  20.874 116.739  1.00  0.00     0.184 HD
BRANCH  19  23
HETATM   23  C4  UNL     1      11.749  21.306 115.046  1.00  0.00     0.053 A 
HETATM   24  C3  UNL     1      11.978  19.991 115.349  1.00  0.00     0.111 A 
HETATM   25  N2  UNL     1      12.916  19.359 114.707  1.00  0.00    -0.345 N 
HETATM   26  C2  UNL     1      13.610  20.024 113.783  1.00  0.00     0.144 A 
ATOM     27  H2  UNL     1      13.117  18.379 114.906  1.00  0.00     0.167 HD
HETATM   28  S1  UNL     1      12.904  21.589 113.834  1.00  0.00    -0.051 SA
BRANCH  26  29
HETATM   29  N1  UNL     1      14.583  19.618 112.995  1.00  0.00    -0.375 N 
HETATM   30  C1  UNL     1      14.579  18.197 112.669  1.00  0.00     0.148 C 
ATOM     31  H1  UNL     1      15.293  20.255 112.635  1.00  0.00     0.161 HD
ENDBRANCH  26  29
ENDBRANCH  19  23
ENDBRANCH   1  17
BRANCH  13  32
HETATM   32  C16 UNL     1      13.451  23.324 118.653  1.00  0.00     0.138 C 
BRANCH  32  33
HETATM   33  C17 UNL     1      14.132  23.242 117.270  1.00  0.00     0.194 C 
BRANCH  33  34
HETATM   34  O1  UNL     1      14.499  22.017 116.974  1.00  0.00    -0.339 OA
ATOM     35  H1  UNL     1      14.396  21.427 117.711  1.00  0.00     0.220 HD
ENDBRANCH  33  34
BRANCH  33  36
HETATM   36  N6  UNL     1      14.349  24.201 116.439  1.00  0.00    -0.385 NA
BRANCH  36  37
HETATM   37  C18 UNL     1      14.645  25.201 115.821  1.00  0.00     0.113 A 
HETATM   38  C19 UNL     1      15.521  25.219 114.720  1.00  0.00     0.069 A 
HETATM   39  C20 UNL     1      15.822  26.353 114.019  1.00  0.00     0.008 A 
HETATM   40  C21 UNL     1      16.755  26.341 112.847  1.00  0.00     0.068 C 
HETATM   41  N7  UNL     1      15.260  27.515 114.391  1.00  0.00    -0.363 N 
HETATM   42  C22 UNL     1      14.411  27.583 115.432  1.00  0.00     0.008 A 
ATOM     43  H7  UNL     1      15.482  28.365 113.872  1.00  0.00     0.165 HD
HETATM   44  C23 UNL     1      13.820  28.897 115.785  1.00  0.00     0.068 C 
HETATM   45  C24 UNL     1      14.100  26.445 116.148  1.00  0.00     0.069 A 
ENDBRANCH  36  37
ENDBRANCH  33  36
ENDBRANCH  32  33
ENDBRANCH  13  32
TORSDOF 8
ENDMDL
MODEL 5
REMARK VINA RESULT: -8.990604216      2.862      5.952
REMARK  8 active torsions:
REMARK  status: ('A' for Active; 'I' for Inactive)
REMARK    1  A    between atoms: N1_2  and  C2_4 
REMARK    2  A    between atoms: C4_8  and  C5_9 
REMARK    3  A    between atoms: N3_11  and  C7_12 
REMARK    4  A    between atoms: C15_24  and  C16_25 
REMARK    5  A    between atoms: C16_25  and  C17_26 
REMARK    6  A    between atoms: C17_26  and  O1_27 
REMARK    7  A    between atoms: C17_26  and  N6_29 
REMARK    8  A    between atoms: N6_29  and  C18_30 
ROOT
HETATM    1  C7  UNL     1      10.360  23.530 116.669  1.00  0.00     0.139 A 
HETATM    2  N4  UNL     1      10.022  22.303 116.042  1.00  0.00    -0.337 N 
ATOM      3  H4  UNL     1       9.227  22.280 115.404  1.00  0.00     0.168 HD
HETATM    4  C8  UNL     1      10.699  21.195 116.256  1.00  0.00     0.182 A 
HETATM    5  N5  UNL     1      11.754  21.141 117.075  1.00  0.00    -0.352 N 
ATOM      6  H5  UNL     1      12.261  20.269 117.222  1.00  0.00     0.166 HD
HETATM    7  C9  UNL     1      12.125  22.270 117.697  1.00  0.00     0.048 A 
HETATM    8  C10 UNL     1      13.205  22.245 118.542  1.00  0.00     0.031 A 
HETATM    9  C11 UNL     1      13.626  23.353 119.197  1.00  0.00     0.014 A 
HETATM   10  C12 UNL     1      12.958  24.534 119.014  1.00  0.00    -0.025 A 
HETATM   11  C13 UNL     1      13.378  25.672 119.691  1.00  0.00     0.013 A 
HETATM   12  C14 UNL     1      12.724  26.861 119.534  1.00  0.00     0.008 A 
HETATM   13  C15 UNL     1      11.637  26.938 118.698  1.00  0.00    -0.049 A 
HETATM   14  C25 UNL     1      11.195  25.812 118.007  1.00  0.00     0.021 A 
HETATM   15  C26 UNL     1      11.846  24.629 118.163  1.00  0.00    -0.009 A 
HETATM   16  C27 UNL     1      11.417  23.479 117.490  1.00  0.00     0.047 A 
ENDROOT
BRANCH   1  17
HETATM   17  N3  UNL     1       9.506  24.545 116.272  1.00  0.00    -0.232 N 
HETATM   18  C6  UNL     1       9.590  25.357 115.158  1.00  0.00     0.148 A 
HETATM   19  C5  UNL     1       8.442  26.070 115.051  1.00  0.00     0.082 A 
HETATM   20  N9  UNL     1       7.659  25.714 116.074  1.00  0.00    -0.281 N 
HETATM   21  N8  UNL     1       8.313  24.807 116.783  1.00  0.00    -0.014 NA
ATOM     22  H9  UNL     1       6.726  26.075 116.272  1.00  0.00     0.184 HD
BRANCH  19  23
HETATM   23  C4  UNL     1       8.102  27.045 113.988  1.00  0.00     0.053 A 
HETATM   24  C3  UNL     1       7.001  27.854 113.927  1.00  0.00     0.111 A 
HETATM   25  N2  UNL     1       6.880  28.665 112.917  1.00  0.00    -0.345 N 
HETATM   26  C2  UNL     1       7.837  28.667 111.989  1.00  0.00     0.144 A 
ATOM     27  H2  UNL     1       6.072  29.283 112.837  1.00  0.00     0.167 HD
HETATM   28  S1  UNL     1       8.934  27.483 112.575  1.00  0.00    -0.051 SA
BRANCH  26  29
HETATM   29  N1  UNL     1       7.959  29.391 110.896  1.00  0.00    -0.375 N 
HETATM   30  C1  UNL     1       8.128  30.824 111.105  1.00  0.00     0.148 C 
ATOM     31  H1  UNL     1       7.938  28.977 109.964  1.00  0.00     0.161 HD
ENDBRANCH  26  29
ENDBRANCH  19  23
ENDBRANCH   1  17
BRANCH  13  32
HETATM   32  C16 UNL     1      10.971  28.263 118.620  1.00  0.00     0.138 C 
BRANCH  32  33
HETATM   33  C17 UNL     1      11.938  29.226 117.897  1.00  0.00     0.194 C 
BRANCH  33  34
HETATM   34  O1  UNL     1      11.940  30.421 118.440  1.00  0.00    -0.339 OA
ATOM     35  H1  UNL     1      11.723  31.098 117.810  1.00  0.00     0.220 HD
ENDBRANCH  33  34
BRANCH  33  36
HETATM   36  N6  UNL     1      12.693  28.974 116.886  1.00  0.00    -0.385 NA
BRANCH  36  37
HETATM   37  C18 UNL     1      13.392  28.534 115.999  1.00  0.00     0.113 A 
HETATM   38  C19 UNL     1      14.049  27.291 116.052  1.00  0.00     0.069 A 
HETATM   39  C20 UNL     1      14.812  26.800 115.030  1.00  0.00     0.008 A 
HETATM   40  C21 UNL     1      15.496  25.470 115.113  1.00  0.00     0.068 C 
HETATM   41  N7  UNL     1      14.949  27.532 113.912  1.00  0.00    -0.363 N 
HETATM   42  C22 UNL     1      14.353  28.731 113.780  1.00  0.00     0.008 A 
ATOM     43  H7  UNL     1      15.517  27.171 113.146  1.00  0.00     0.165 HD
HETATM   44  C23 UNL     1      14.539  29.485 112.517  1.00  0.00     0.068 C 
HETATM   45  C24 UNL     1      13.581  29.238 114.806  1.00  0.00     0.069 A 
ENDBRANCH  36  37
ENDBRANCH  33  36
ENDBRANCH  32  33
ENDBRANCH  13  32
TORSDOF 8
ENDMDL
