MODEL 1
REMARK VINA RESULT: -10.599745060      0.000      0.000
REMARK  5 active torsions:
REMARK  status: ('A' for Active; 'I' for Inactive)
REMARK    1  A    between atoms: C4_4  and  N1_5 
REMARK    2  A    between atoms: C8_13  and  C9_14 
REMARK    3  A    between atoms: C11_17  and  N4_18 
REMARK    4  A    between atoms: N4_18  and  C12_20 
REMARK    5  A    between atoms: C25_38  and  C26_39 
ROOT
HETATM    1  N1  UNL     1      12.523  26.733 118.680  1.00  0.00    -0.304 N 
HETATM    2  C5  UNL     1      11.685  27.504 119.396  1.00  0.00     0.190 A 
HETATM    3  N2  UNL     1      11.534  28.688 118.791  1.00  0.00    -0.336 N 
ATOM      4  H2  UNL     1      10.952  29.457 119.124  1.00  0.00     0.168 HD
HETATM    5  C6  UNL     1      12.286  28.698 117.653  1.00  0.00     0.133 A 
HETATM    6  N3  UNL     1      12.495  29.610 116.696  1.00  0.00    -0.350 N 
ATOM      7  H3  UNL     1      12.039  30.522 116.736  1.00  0.00     0.166 HD
HETATM    8  C7  UNL     1      13.328  29.292 115.666  1.00  0.00     0.103 A 
HETATM    9  C8  UNL     1      13.953  28.068 115.589  1.00  0.00     0.009 A 
HETATM   10  C21 UNL     1      13.733  27.143 116.571  1.00  0.00     0.049 A 
HETATM   11  C22 UNL     1      12.890  27.465 117.612  1.00  0.00     0.085 A 
ENDROOT
BRANCH   9  12
HETATM   12  C9  UNL     1      14.862  27.739 114.453  1.00  0.00     0.052 A 
HETATM   13  C10 UNL     1      15.242  28.733 113.582  1.00  0.00     0.083 A 
HETATM   14  S1  UNL     1      16.251  27.887 112.491  1.00  0.00    -0.064 SA
HETATM   15  C11 UNL     1      16.133  26.346 113.194  1.00  0.00     0.149 A 
HETATM   16  N6  UNL     1      15.326  26.542 114.234  1.00  0.00    -0.335 N 
ATOM     17  H6  UNL     1      15.076  25.768 114.848  1.00  0.00     0.168 HD
BRANCH  15  18
HETATM   18  N4  UNL     1      16.697  25.221 112.812  1.00  0.00    -0.337 N 
ATOM     19  H4  UNL     1      17.685  25.165 112.569  1.00  0.00     0.168 HD
BRANCH  18  20
HETATM   20  C12 UNL     1      15.830  24.074 112.759  1.00  0.00     0.035 A 
HETATM   21  C13 UNL     1      16.038  22.974 113.561  1.00  0.00     0.030 A 
HETATM   22  C14 UNL     1      15.213  21.861 113.524  1.00  0.00     0.020 A 
HETATM   23  C15 UNL     1      14.143  21.854 112.652  1.00  0.00     0.048 A 
HETATM   24  C16 UNL     1      13.931  22.959 111.845  1.00  0.00     0.050 A 
HETATM   25  C20 UNL     1      13.093  20.886 112.348  1.00  0.00     0.261 A 
HETATM   26  C17 UNL     1      14.759  24.065 111.888  1.00  0.00     0.047 A 
HETATM   27  C18 UNL     1      12.747  22.708 111.019  1.00  0.00     0.261 A 
HETATM   28  O1  UNL     1      12.256  23.497 110.166  1.00  0.00    -0.267 OA
HETATM   29  N5  UNL     1      12.249  21.429 111.345  1.00  0.00    -0.284 N 
HETATM   30  C19 UNL     1      11.089  20.773 110.771  1.00  0.00     0.163 C 
HETATM   31  O2  UNL     1      12.980  19.757 112.902  1.00  0.00    -0.267 OA
ENDBRANCH  18  20
ENDBRANCH  15  18
ENDBRANCH   9  12
BRANCH   1  32
HETATM   32  C4  UNL     1      12.937  25.409 118.989  1.00  0.00     0.041 A 
HETATM   33  C3  UNL     1      12.339  24.307 118.419  1.00  0.00     0.038 A 
HETATM   34  C2  UNL     1      12.727  23.001 118.706  1.00  0.00    -0.043 A 
HETATM   35  C1  UNL     1      12.053  21.841 118.066  1.00  0.00     0.049 C 
HETATM   36  C25 UNL     1      13.746  22.761 119.591  1.00  0.00     0.046 A 
HETATM   37  C24 UNL     1      14.357  23.870 120.172  1.00  0.00     0.021 A 
HETATM   38  C23 UNL     1      13.963  25.161 119.879  1.00  0.00     0.031 A 
BRANCH  36  39
HETATM   39  C26 UNL     1      14.230  21.438 119.960  1.00  0.00     0.209 C 
HETATM   40  O3  UNL     1      15.190  20.893 119.316  1.00  0.00    -0.644 OA
HETATM   41  O4  UNL     1      13.724  20.672 120.998  1.00  0.00    -0.644 OA
ENDBRANCH  36  39
ENDBRANCH   1  32
TORSDOF 5
ENDMDL
MODEL 2
REMARK VINA RESULT: -10.472345617      0.296      1.142
REMARK  5 active torsions:
REMARK  status: ('A' for Active; 'I' for Inactive)
REMARK    1  A    between atoms: C4_4  and  N1_5 
REMARK    2  A    between atoms: C8_13  and  C9_14 
REMARK    3  A    between atoms: C11_17  and  N4_18 
REMARK    4  A    between atoms: N4_18  and  C12_20 
REMARK    5  A    between atoms: C25_38  and  C26_39 
ROOT
HETATM    1  N1  UNL     1      12.542  26.781 118.655  1.00  0.00    -0.304 N 
HETATM    2  C5  UNL     1      11.686  27.555 119.346  1.00  0.00     0.190 A 
HETATM    3  N2  UNL     1      11.513  28.718 118.707  1.00  0.00    -0.336 N 
ATOM      4  H2  UNL     1      10.914  29.484 119.018  1.00  0.00     0.168 HD
HETATM    5  C6  UNL     1      12.269  28.712 117.572  1.00  0.00     0.133 A 
HETATM    6  N3  UNL     1      12.462  29.601 116.591  1.00  0.00    -0.350 N 
ATOM      7  H3  UNL     1      11.988  30.505 116.604  1.00  0.00     0.166 HD
HETATM    8  C7  UNL     1      13.306  29.272 115.573  1.00  0.00     0.103 A 
HETATM    9  C8  UNL     1      13.956  28.060 115.532  1.00  0.00     0.009 A 
HETATM   10  C21 UNL     1      13.752  27.158 116.539  1.00  0.00     0.049 A 
HETATM   11  C22 UNL     1      12.898  27.492 117.568  1.00  0.00     0.085 A 
ENDROOT
BRANCH   9  12
HETATM   12  C9  UNL     1      14.877  27.719 114.409  1.00  0.00     0.052 A 
HETATM   13  C10 UNL     1      15.284  28.708 113.546  1.00  0.00     0.083 A 
HETATM   14  S1  UNL     1      16.295  27.848 112.467  1.00  0.00    -0.064 SA
HETATM   15  C11 UNL     1      16.142  26.308 113.164  1.00  0.00     0.149 A 
HETATM   16  N6  UNL     1      15.324  26.515 114.193  1.00  0.00    -0.335 N 
ATOM     17  H6  UNL     1      15.052  25.744 114.802  1.00  0.00     0.168 HD
BRANCH  15  18
HETATM   18  N4  UNL     1      16.693  25.175 112.788  1.00  0.00    -0.337 N 
ATOM     19  H4  UNL     1      17.682  25.106 112.547  1.00  0.00     0.168 HD
BRANCH  18  20
HETATM   20  C12 UNL     1      15.813  24.038 112.739  1.00  0.00     0.035 A 
HETATM   21  C13 UNL     1      15.995  22.947 113.558  1.00  0.00     0.030 A 
HETATM   22  C14 UNL     1      15.157  21.844 113.525  1.00  0.00     0.020 A 
HETATM   23  C15 UNL     1      14.100  21.838 112.637  1.00  0.00     0.048 A 
HETATM   24  C16 UNL     1      13.914  22.933 111.812  1.00  0.00     0.050 A 
HETATM   25  C20 UNL     1      13.043  20.878 112.331  1.00  0.00     0.261 A 
HETATM   26  C17 UNL     1      14.755  24.029 111.852  1.00  0.00     0.047 A 
HETATM   27  C18 UNL     1      12.739  22.685 110.972  1.00  0.00     0.261 A 
HETATM   28  O1  UNL     1      12.271  23.468 110.101  1.00  0.00    -0.267 OA
HETATM   29  N5  UNL     1      12.221  21.418 111.309  1.00  0.00    -0.284 N 
HETATM   30  C19 UNL     1      11.061  20.768 110.727  1.00  0.00     0.163 C 
HETATM   31  O2  UNL     1      12.907  19.759 112.899  1.00  0.00    -0.267 OA
ENDBRANCH  18  20
ENDBRANCH  15  18
ENDBRANCH   9  12
BRANCH   1  32
HETATM   32  C4  UNL     1      12.983  25.475 119.001  1.00  0.00     0.041 A 
HETATM   33  C3  UNL     1      13.862  25.255 120.039  1.00  0.00     0.038 A 
HETATM   34  C2  UNL     1      14.307  23.986 120.398  1.00  0.00    -0.043 A 
HETATM   35  C1  UNL     1      15.255  23.796 121.526  1.00  0.00     0.049 C 
HETATM   36  C25 UNL     1      13.876  22.882 119.710  1.00  0.00     0.046 A 
HETATM   37  C24 UNL     1      12.987  23.095 118.659  1.00  0.00     0.021 A 
HETATM   38  C23 UNL     1      12.552  24.359 118.313  1.00  0.00     0.031 A 
BRANCH  36  39
HETATM   39  C26 UNL     1      14.279  21.513 120.002  1.00  0.00     0.209 C 
HETATM   40  O3  UNL     1      15.135  20.916 119.265  1.00  0.00    -0.644 OA
HETATM   41  O4  UNL     1      13.799  20.755 121.058  1.00  0.00    -0.644 OA
ENDBRANCH  36  39
ENDBRANCH   1  32
TORSDOF 5
ENDMDL
MODEL 3
REMARK VINA RESULT: -10.330197968      1.358      1.964
REMARK  5 active torsions:
REMARK  status: ('A' for Active; 'I' for Inactive)
REMARK    1  A    between atoms: C4_4  and  N1_5 
REMARK    2  A    between atoms: C8_13  and  C9_14 
REMARK    3  A    between atoms: C11_17  and  N4_18 
REMARK    4  A    between atoms: N4_18  and  C12_20 
REMARK    5  A    between atoms: C25_38  and  C26_39 
ROOT
HETATM    1  N1  UNL     1      11.406  26.665 117.977  1.00  0.00    -0.304 N 
HETATM    2  C5  UNL     1      10.766  27.501 118.814  1.00  0.00     0.190 A 
HETATM    3  N2  UNL     1      11.170  28.758 118.592  1.00  0.00    -0.336 N 
ATOM      4  H2  UNL     1      10.841  29.585 119.091  1.00  0.00     0.168 HD
HETATM    5  C6  UNL     1      12.093  28.750 117.588  1.00  0.00     0.133 A 
HETATM    6  N3  UNL     1      12.802  29.711 116.984  1.00  0.00    -0.350 N 
ATOM      7  H3  UNL     1      12.700  30.688 117.261  1.00  0.00     0.166 HD
HETATM    8  C7  UNL     1      13.662  29.356 115.989  1.00  0.00     0.103 A 
HETATM    9  C8  UNL     1      13.816  28.046 115.596  1.00  0.00     0.009 A 
HETATM   10  C21 UNL     1      13.088  27.071 116.220  1.00  0.00     0.049 A 
HETATM   11  C22 UNL     1      12.218  27.432 117.226  1.00  0.00     0.085 A 
ENDROOT
BRANCH   9  12
HETATM   12  C9  UNL     1      14.764  27.677 114.505  1.00  0.00     0.052 A 
HETATM   13  C10 UNL     1      15.165  28.637 113.606  1.00  0.00     0.083 A 
HETATM   14  S1  UNL     1      16.213  27.753 112.583  1.00  0.00    -0.064 SA
HETATM   15  C11 UNL     1      16.082  26.242 113.345  1.00  0.00     0.149 A 
HETATM   16  N6  UNL     1      15.241  26.475 114.350  1.00  0.00    -0.335 N 
ATOM     17  H6  UNL     1      14.975  25.725 114.988  1.00  0.00     0.168 HD
BRANCH  15  18
HETATM   18  N4  UNL     1      16.664  25.106 113.029  1.00  0.00    -0.337 N 
ATOM     19  H4  UNL     1      17.670  25.035 112.881  1.00  0.00     0.168 HD
BRANCH  18  20
HETATM   20  C12 UNL     1      15.790  23.970 112.904  1.00  0.00     0.035 A 
HETATM   21  C13 UNL     1      15.965  22.837 113.666  1.00  0.00     0.030 A 
HETATM   22  C14 UNL     1      15.133  21.734 113.559  1.00  0.00     0.020 A 
HETATM   23  C15 UNL     1      14.090  21.771 112.655  1.00  0.00     0.048 A 
HETATM   24  C16 UNL     1      13.912  22.909 111.888  1.00  0.00     0.050 A 
HETATM   25  C20 UNL     1      13.043  20.825 112.281  1.00  0.00     0.261 A 
HETATM   26  C17 UNL     1      14.746  24.005 112.001  1.00  0.00     0.047 A 
HETATM   27  C18 UNL     1      12.752  22.702 111.017  1.00  0.00     0.261 A 
HETATM   28  O1  UNL     1      12.294  23.528 110.182  1.00  0.00    -0.267 OA
HETATM   29  N5  UNL     1      12.235  21.416 111.276  1.00  0.00    -0.284 N 
HETATM   30  C19 UNL     1      11.087  20.793 110.641  1.00  0.00     0.163 C 
HETATM   31  O2  UNL     1      12.904  19.676 112.785  1.00  0.00    -0.267 OA
ENDBRANCH  18  20
ENDBRANCH  15  18
ENDBRANCH   9  12
BRANCH   1  32
HETATM   32  C4  UNL     1      11.254  25.254 117.899  1.00  0.00     0.041 A 
HETATM   33  C3  UNL     1      12.188  24.391 118.430  1.00  0.00     0.038 A 
HETATM   34  C2  UNL     1      12.062  23.006 118.367  1.00  0.00    -0.043 A 
HETATM   35  C1  UNL     1      13.094  22.113 118.953  1.00  0.00     0.049 C 
HETATM   36  C25 UNL     1      10.974  22.438 117.756  1.00  0.00     0.046 A 
HETATM   37  C24 UNL     1      10.024  23.303 117.218  1.00  0.00     0.021 A 
HETATM   38  C23 UNL     1      10.161  24.676 117.287  1.00  0.00     0.031 A 
BRANCH  36  39
HETATM   39  C26 UNL     1      10.745  21.005 117.635  1.00  0.00     0.209 C 
HETATM   40  O3  UNL     1       9.827  20.434 118.318  1.00  0.00    -0.644 OA
HETATM   41  O4  UNL     1      11.462  20.156 116.809  1.00  0.00    -0.644 OA
ENDBRANCH  36  39
ENDBRANCH   1  32
TORSDOF 5
ENDMDL
MODEL 4
REMARK VINA RESULT: -10.148049165      0.820      1.586
REMARK  5 active torsions:
REMARK  status: ('A' for Active; 'I' for Inactive)
REMARK    1  A    between atoms: C4_4  and  N1_5 
REMARK    2  A    between atoms: C8_13  and  C9_14 
REMARK    3  A    between atoms: C11_17  and  N4_18 
REMARK    4  A    between atoms: N4_18  and  C12_20 
REMARK    5  A    between atoms: C25_38  and  C26_39 
ROOT
HETATM    1  N1  UNL     1      12.565  26.730 118.654  1.00  0.00    -0.304 N 
HETATM    2  C5  UNL     1      11.753  27.522 119.376  1.00  0.00     0.190 A 
HETATM    3  N2  UNL     1      11.607  28.701 118.759  1.00  0.00    -0.336 N 
ATOM      4  H2  UNL     1      11.044  29.483 119.094  1.00  0.00     0.168 HD
HETATM    5  C6  UNL     1      12.337  28.685 117.607  1.00  0.00     0.133 A 
HETATM    6  N3  UNL     1      12.540  29.582 116.634  1.00  0.00    -0.350 N 
ATOM      7  H3  UNL     1      12.100  30.501 116.672  1.00  0.00     0.166 HD
HETATM    8  C7  UNL     1      13.349  29.238 115.593  1.00  0.00     0.103 A 
HETATM    9  C8  UNL     1      13.953  28.004 115.519  1.00  0.00     0.009 A 
HETATM   10  C21 UNL     1      13.739  27.095 116.517  1.00  0.00     0.049 A 
HETATM   11  C22 UNL     1      12.922  27.443 117.570  1.00  0.00     0.085 A 
ENDROOT
BRANCH   9  12
HETATM   12  C9  UNL     1      14.836  27.648 114.370  1.00  0.00     0.052 A 
HETATM   13  C10 UNL     1      15.416  28.649 113.629  1.00  0.00     0.083 A 
HETATM   14  S1  UNL     1      16.305  27.764 112.465  1.00  0.00    -0.064 SA
HETATM   15  C11 UNL     1      15.892  26.200 112.981  1.00  0.00     0.149 A 
HETATM   16  N6  UNL     1      15.092  26.420 114.021  1.00  0.00    -0.335 N 
ATOM     17  H6  UNL     1      14.686  25.639 114.537  1.00  0.00     0.168 HD
BRANCH  15  18
HETATM   18  N4  UNL     1      16.266  25.043 112.482  1.00  0.00    -0.337 N 
ATOM     19  H4  UNL     1      17.247  24.803 112.343  1.00  0.00     0.168 HD
BRANCH  18  20
HETATM   20  C12 UNL     1      15.202  24.136 112.143  1.00  0.00     0.035 A 
HETATM   21  C13 UNL     1      14.292  24.427 111.151  1.00  0.00     0.030 A 
HETATM   22  C14 UNL     1      13.262  23.564 110.812  1.00  0.00     0.020 A 
HETATM   23  C15 UNL     1      13.141  22.369 111.493  1.00  0.00     0.048 A 
HETATM   24  C16 UNL     1      14.054  22.075 112.490  1.00  0.00     0.050 A 
HETATM   25  C20 UNL     1      12.209  21.249 111.410  1.00  0.00     0.261 A 
HETATM   26  C17 UNL     1      15.079  22.940 112.822  1.00  0.00     0.047 A 
HETATM   27  C18 UNL     1      13.715  20.765 113.054  1.00  0.00     0.261 A 
HETATM   28  O1  UNL     1      14.331  20.175 113.984  1.00  0.00    -0.267 OA
HETATM   29  N5  UNL     1      12.579  20.278 112.376  1.00  0.00    -0.284 N 
HETATM   30  C19 UNL     1      11.900  19.016 112.608  1.00  0.00     0.163 C 
HETATM   31  O2  UNL     1      11.241  21.183 110.603  1.00  0.00    -0.267 OA
ENDBRANCH  18  20
ENDBRANCH  15  18
ENDBRANCH   9  12
BRANCH   1  32
HETATM   32  C4  UNL     1      12.965  25.403 118.972  1.00  0.00     0.041 A 
HETATM   33  C3  UNL     1      12.355  24.304 118.410  1.00  0.00     0.038 A 
HETATM   34  C2  UNL     1      12.730  22.996 118.705  1.00  0.00    -0.043 A 
HETATM   35  C1  UNL     1      12.043  21.840 118.074  1.00  0.00     0.049 C 
HETATM   36  C25 UNL     1      13.746  22.752 119.591  1.00  0.00     0.046 A 
HETATM   37  C24 UNL     1      14.369  23.857 120.164  1.00  0.00     0.021 A 
HETATM   38  C23 UNL     1      13.988  25.151 119.863  1.00  0.00     0.031 A 
BRANCH  36  39
HETATM   39  C26 UNL     1      14.216  21.426 119.970  1.00  0.00     0.209 C 
HETATM   40  O3  UNL     1      15.173  20.868 119.331  1.00  0.00    -0.644 OA
HETATM   41  O4  UNL     1      13.700  20.671 121.010  1.00  0.00    -0.644 OA
ENDBRANCH  36  39
ENDBRANCH   1  32
TORSDOF 5
ENDMDL
MODEL 5
REMARK VINA RESULT: -9.973882020      1.520      1.979
REMARK  5 active torsions:
REMARK  status: ('A' for Active; 'I' for Inactive)
REMARK    1  A    between atoms: C4_4  and  N1_5 
REMARK    2  A    between atoms: C8_13  and  C9_14 
REMARK    3  A    between atoms: C11_17  and  N4_18 
REMARK    4  A    between atoms: N4_18  and  C12_20 
REMARK    5  A    between atoms: C25_38  and  C26_39 
ROOT
HETATM    1  N1  UNL     1      11.351  26.656 117.929  1.00  0.00    -0.304 N 
HETATM    2  C5  UNL     1      10.722  27.506 118.760  1.00  0.00     0.190 A 
HETATM    3  N2  UNL     1      11.163  28.752 118.550  1.00  0.00    -0.336 N 
ATOM      4  H2  UNL     1      10.849  29.586 119.047  1.00  0.00     0.168 HD
HETATM    5  C6  UNL     1      12.102  28.723 117.560  1.00  0.00     0.133 A 
HETATM    6  N3  UNL     1      12.846  29.667 116.971  1.00  0.00    -0.350 N 
ATOM      7  H3  UNL     1      12.766  30.645 117.250  1.00  0.00     0.166 HD
HETATM    8  C7  UNL     1      13.712  29.291 115.988  1.00  0.00     0.103 A 
HETATM    9  C8  UNL     1      13.837  27.979 115.593  1.00  0.00     0.009 A 
HETATM   10  C21 UNL     1      13.072  27.022 116.201  1.00  0.00     0.049 A 
HETATM   11  C22 UNL     1      12.197  27.403 117.195  1.00  0.00     0.085 A 
ENDROOT
BRANCH   9  12
HETATM   12  C9  UNL     1      14.791  27.588 114.515  1.00  0.00     0.052 A 
HETATM   13  C10 UNL     1      15.218  28.535 113.615  1.00  0.00     0.083 A 
HETATM   14  S1  UNL     1      16.264  27.629 112.610  1.00  0.00    -0.064 SA
HETATM   15  C11 UNL     1      16.099  26.125 113.380  1.00  0.00     0.149 A 
HETATM   16  N6  UNL     1      15.251  26.378 114.373  1.00  0.00    -0.335 N 
ATOM     17  H6  UNL     1      14.965  25.636 115.013  1.00  0.00     0.168 HD
BRANCH  15  18
HETATM   18  N4  UNL     1      16.667  24.978 113.077  1.00  0.00    -0.337 N 
ATOM     19  H4  UNL     1      17.674  24.889 112.944  1.00  0.00     0.168 HD
BRANCH  18  20
HETATM   20  C12 UNL     1      15.776  23.855 112.946  1.00  0.00     0.035 A 
HETATM   21  C13 UNL     1      15.921  22.724 113.717  1.00  0.00     0.030 A 
HETATM   22  C14 UNL     1      15.072  21.634 113.604  1.00  0.00     0.020 A 
HETATM   23  C15 UNL     1      14.043  21.684 112.685  1.00  0.00     0.048 A 
HETATM   24  C16 UNL     1      13.895  22.820 111.909  1.00  0.00     0.050 A 
HETATM   25  C20 UNL     1      12.987  20.753 112.300  1.00  0.00     0.261 A 
HETATM   26  C17 UNL     1      14.746  23.902 112.028  1.00  0.00     0.047 A 
HETATM   27  C18 UNL     1      12.744  22.627 111.022  1.00  0.00     0.261 A 
HETATM   28  O1  UNL     1      12.312  23.456 110.176  1.00  0.00    -0.267 OA
HETATM   29  N5  UNL     1      12.202  21.351 111.281  1.00  0.00    -0.284 N 
HETATM   30  C19 UNL     1      11.054  20.744 110.632  1.00  0.00     0.163 C 
HETATM   31  O2  UNL     1      12.821  19.610 112.809  1.00  0.00    -0.267 OA
ENDBRANCH  18  20
ENDBRANCH  15  18
ENDBRANCH   9  12
BRANCH   1  32
HETATM   32  C4  UNL     1      11.162  25.250 117.844  1.00  0.00     0.041 A 
HETATM   33  C3  UNL     1      10.074  24.699 117.203  1.00  0.00     0.038 A 
HETATM   34  C2  UNL     1       9.867  23.326 117.106  1.00  0.00    -0.043 A 
HETATM   35  C1  UNL     1       8.679  22.776 116.405  1.00  0.00     0.049 C 
HETATM   36  C25 UNL     1      10.764  22.451 117.662  1.00  0.00     0.046 A 
HETATM   37  C24 UNL     1      11.868  22.999 118.311  1.00  0.00     0.021 A 
HETATM   38  C23 UNL     1      12.062  24.363 118.401  1.00  0.00     0.031 A 
BRANCH  36  39
HETATM   39  C26 UNL     1      10.644  21.000 117.618  1.00  0.00     0.209 C 
HETATM   40  O3  UNL     1       9.788  20.396 118.350  1.00  0.00    -0.644 OA
HETATM   41  O4  UNL     1      11.407  20.167 116.816  1.00  0.00    -0.644 OA
ENDBRANCH  36  39
ENDBRANCH   1  32
TORSDOF 5
ENDMDL
