MODEL 1
REMARK VINA RESULT: -6.349210308      0.000      0.000
REMARK  17 active torsions:
REMARK  status: ('A' for Active; 'I' for Inactive)
REMARK    1  A    between atoms: C2_2  and  C3_3 
REMARK    2  A    between atoms: C3_3  and  C4_4 
REMARK    3  A    between atoms: C3_3  and  C6_6 
REMARK    4  A    between atoms: C6_6  and  C7_7 
REMARK    5  A    between atoms: C7_7  and  O1_8 
REMARK    6  A    between atoms: C7_7  and  C8_10 
REMARK    7  A    between atoms: C10_12  and  O2_13 
REMARK    8  A    between atoms: C11_15  and  C12_16 
REMARK    9  A    between atoms: C12_16  and  O3_17 
REMARK   10  A    between atoms: O3_17  and  C13_18 
REMARK   11  A    between atoms: C13_18  and  O4_19 
REMARK   12  A    between atoms: C13_18  and  C14_21 
REMARK   13  A    between atoms: C14_21  and  C15_22 
REMARK   14  A    between atoms: C15_22  and  O5_23 
REMARK   15  A    between atoms: C15_22  and  C16_25 
REMARK   16  A    between atoms: C16_25  and  O6_28 
REMARK   17  A    between atoms: C19_30  and  O7_31 
ROOT
HETATM    1  C8  UNL     1      49.579  47.195  69.077  1.00  0.00     0.046 C 
HETATM    2  C9  UNL     1      49.585  48.459  69.884  1.00  0.00     0.042 C 
HETATM    3  C10 UNL     1      48.143  48.664  70.228  1.00  0.00     0.127 C 
HETATM    4  C11 UNL     1      47.352  47.881  69.240  1.00  0.00     0.067 C 
HETATM    5  C19 UNL     1      48.351  47.342  68.218  1.00  0.00     0.133 C 
ENDROOT
BRANCH   4   6
HETATM    6  C12 UNL     1      46.364  48.744  68.546  1.00  0.00     0.180 C 
BRANCH   6   7
HETATM    7  O3  UNL     1      45.121  48.794  69.094  1.00  0.00    -0.361 OA
BRANCH   7   8
HETATM    8  C13 UNL     1      44.785  47.847  70.014  1.00  0.00     0.259 C 
BRANCH   8   9
HETATM    9  O4  UNL     1      43.946  46.847  69.517  1.00  0.00    -0.371 OA
ATOM     10  H4  UNL     1      43.580  46.283  70.188  1.00  0.00     0.212 HD
ENDBRANCH   8   9
BRANCH   8  11
HETATM   11  C14 UNL     1      44.333  48.364  71.304  1.00  0.00     0.095 C 
BRANCH  11  12
HETATM   12  C15 UNL     1      42.886  48.408  71.643  1.00  0.00     0.156 C 
BRANCH  12  13
HETATM   13  O5  UNL     1      42.253  49.003  70.466  1.00  0.00    -0.392 OA
ATOM     14  H5  UNL     1      41.347  49.130  70.722  1.00  0.00     0.210 HD
ENDBRANCH  12  13
BRANCH  12  15
HETATM   15  C16 UNL     1      42.452  49.315  72.742  1.00  0.00     0.076 C 
HETATM   16  C17 UNL     1      43.701  49.528  73.668  1.00  0.00     0.048 C 
HETATM   17  C18 UNL     1      42.050  50.680  72.325  1.00  0.00     0.048 C 
BRANCH  15  18
HETATM   18  O6  UNL     1      41.510  48.757  73.599  1.00  0.00    -0.388 OA
ATOM     19  H6  UNL     1      41.815  48.651  74.493  1.00  0.00     0.210 HD
ENDBRANCH  15  18
ENDBRANCH  12  15
ENDBRANCH  11  12
ENDBRANCH   8  11
ENDBRANCH   7   8
ENDBRANCH   6   7
ENDBRANCH   4   6
BRANCH   3  20
HETATM   20  O2  UNL     1      47.863  50.035  70.179  1.00  0.00    -0.395 OA
ATOM     21  H2  UNL     1      48.039  50.349  69.300  1.00  0.00     0.210 HD
ENDBRANCH   3  20
BRANCH   5  22
HETATM   22  O7  UNL     1      47.840  46.087  67.825  1.00  0.00    -0.395 OA
ATOM     23  H7  UNL     1      46.979  46.168  67.433  1.00  0.00     0.210 HD
ENDBRANCH   5  22
BRANCH   1  24
HETATM   24  C7  UNL     1      50.844  47.097  68.272  1.00  0.00     0.125 C 
BRANCH  24  25
HETATM   25  C6  UNL     1      52.035  47.676  68.942  1.00  0.00     0.037 C 
BRANCH  25  26
HETATM   26  C3  UNL     1      53.101  46.729  69.396  1.00  0.00    -0.013 C 
BRANCH  26  27
HETATM   27  C2  UNL     1      52.671  45.344  69.701  1.00  0.00     0.000 C 
HETATM   28  C1  UNL     1      53.189  44.313  68.726  1.00  0.00     0.005 C 
ENDBRANCH  26  27
BRANCH  26  29
HETATM   29  C4  UNL     1      53.792  47.395  70.577  1.00  0.00     0.000 C 
HETATM   30  C5  UNL     1      52.792  47.940  71.566  1.00  0.00     0.005 C 
ENDBRANCH  26  29
ENDBRANCH  25  26
ENDBRANCH  24  25
BRANCH  24  31
HETATM   31  O1  UNL     1      50.594  47.574  67.002  1.00  0.00    -0.395 OA
ATOM     32  H1  UNL     1      50.677  46.933  66.306  1.00  0.00     0.210 HD
ENDBRANCH  24  31
ENDBRANCH   1  24
TORSDOF 17
ENDMDL
MODEL 2
REMARK VINA RESULT: -6.242971891      2.668      7.341
REMARK  17 active torsions:
REMARK  status: ('A' for Active; 'I' for Inactive)
REMARK    1  A    between atoms: C2_2  and  C3_3 
REMARK    2  A    between atoms: C3_3  and  C4_4 
REMARK    3  A    between atoms: C3_3  and  C6_6 
REMARK    4  A    between atoms: C6_6  and  C7_7 
REMARK    5  A    between atoms: C7_7  and  O1_8 
REMARK    6  A    between atoms: C7_7  and  C8_10 
REMARK    7  A    between atoms: C10_12  and  O2_13 
REMARK    8  A    between atoms: C11_15  and  C12_16 
REMARK    9  A    between atoms: C12_16  and  O3_17 
REMARK   10  A    between atoms: O3_17  and  C13_18 
REMARK   11  A    between atoms: C13_18  and  O4_19 
REMARK   12  A    between atoms: C13_18  and  C14_21 
REMARK   13  A    between atoms: C14_21  and  C15_22 
REMARK   14  A    between atoms: C15_22  and  O5_23 
REMARK   15  A    between atoms: C15_22  and  C16_25 
REMARK   16  A    between atoms: C16_25  and  O6_28 
REMARK   17  A    between atoms: C19_30  and  O7_31 
ROOT
HETATM    1  C8  UNL     1      46.556  50.574  70.186  1.00  0.00     0.046 C 
HETATM    2  C9  UNL     1      47.287  50.177  71.434  1.00  0.00     0.042 C 
HETATM    3  C10 UNL     1      48.457  51.111  71.468  1.00  0.00     0.127 C 
HETATM    4  C11 UNL     1      48.646  51.611  70.080  1.00  0.00     0.067 C 
HETATM    5  C19 UNL     1      47.667  50.831  69.203  1.00  0.00     0.133 C 
ENDROOT
BRANCH   4   6
HETATM    6  C12 UNL     1      50.029  51.356  69.606  1.00  0.00     0.180 C 
BRANCH   6   7
HETATM    7  O3  UNL     1      50.159  50.965  68.311  1.00  0.00    -0.361 OA
BRANCH   7   8
HETATM    8  C13 UNL     1      51.209  50.162  67.983  1.00  0.00     0.259 C 
BRANCH   8   9
HETATM    9  O4  UNL     1      51.193  49.724  66.656  1.00  0.00    -0.371 OA
ATOM     10  H4  UNL     1      50.610  48.990  66.501  1.00  0.00     0.212 HD
ENDBRANCH   8   9
BRANCH   8  11
HETATM   11  C14 UNL     1      51.483  49.078  68.925  1.00  0.00     0.095 C 
BRANCH  11  12
HETATM   12  C15 UNL     1      52.336  47.926  68.533  1.00  0.00     0.156 C 
BRANCH  12  13
HETATM   13  O5  UNL     1      51.414  46.991  67.888  1.00  0.00    -0.392 OA
ATOM     14  H5  UNL     1      51.006  46.525  68.608  1.00  0.00     0.210 HD
ENDBRANCH  12  13
BRANCH  12  15
HETATM   15  C16 UNL     1      52.936  47.098  69.617  1.00  0.00     0.076 C 
HETATM   16  C17 UNL     1      52.274  47.570  70.960  1.00  0.00     0.048 C 
HETATM   17  C18 UNL     1      52.654  45.644  69.544  1.00  0.00     0.048 C 
BRANCH  15  18
HETATM   18  O6  UNL     1      54.289  47.335  69.828  1.00  0.00    -0.388 OA
ATOM     19  H6  UNL     1      54.840  47.129  69.082  1.00  0.00     0.210 HD
ENDBRANCH  15  18
ENDBRANCH  12  15
ENDBRANCH  11  12
ENDBRANCH   8  11
ENDBRANCH   7   8
ENDBRANCH   6   7
ENDBRANCH   4   6
BRANCH   3  20
HETATM   20  O2  UNL     1      49.571  50.414  71.948  1.00  0.00    -0.395 OA
ATOM     21  H2  UNL     1      50.261  51.038  72.138  1.00  0.00     0.210 HD
ENDBRANCH   3  20
BRANCH   5  22
HETATM   22  O7  UNL     1      47.268  51.736  68.196  1.00  0.00    -0.395 OA
ATOM     23  H7  UNL     1      47.139  51.297  67.365  1.00  0.00     0.210 HD
ENDBRANCH   5  22
BRANCH   1  24
HETATM   24  C7  UNL     1      45.643  49.462  69.755  1.00  0.00     0.125 C 
BRANCH  24  25
HETATM   25  C6  UNL     1      46.193  48.102  69.983  1.00  0.00     0.037 C 
BRANCH  25  26
HETATM   26  C3  UNL     1      46.512  47.275  68.778  1.00  0.00    -0.013 C 
BRANCH  26  27
HETATM   27  C2  UNL     1      45.846  45.954  68.686  1.00  0.00     0.000 C 
HETATM   28  C1  UNL     1      44.351  46.006  68.894  1.00  0.00     0.005 C 
ENDBRANCH  26  27
BRANCH  26  29
HETATM   29  C4  UNL     1      48.029  47.165  68.723  1.00  0.00     0.000 C 
HETATM   30  C5  UNL     1      48.644  47.333  70.090  1.00  0.00     0.005 C 
ENDBRANCH  26  29
ENDBRANCH  25  26
ENDBRANCH  24  25
BRANCH  24  31
HETATM   31  O1  UNL     1      45.219  49.716  68.467  1.00  0.00    -0.395 OA
ATOM     32  H1  UNL     1      44.641  50.464  68.371  1.00  0.00     0.210 HD
ENDBRANCH  24  31
ENDBRANCH   1  24
TORSDOF 17
ENDMDL
MODEL 3
REMARK VINA RESULT: -6.229574213      1.197      2.397
REMARK  17 active torsions:
REMARK  status: ('A' for Active; 'I' for Inactive)
REMARK    1  A    between atoms: C2_2  and  C3_3 
REMARK    2  A    between atoms: C3_3  and  C4_4 
REMARK    3  A    between atoms: C3_3  and  C6_6 
REMARK    4  A    between atoms: C6_6  and  C7_7 
REMARK    5  A    between atoms: C7_7  and  O1_8 
REMARK    6  A    between atoms: C7_7  and  C8_10 
REMARK    7  A    between atoms: C10_12  and  O2_13 
REMARK    8  A    between atoms: C11_15  and  C12_16 
REMARK    9  A    between atoms: C12_16  and  O3_17 
REMARK   10  A    between atoms: O3_17  and  C13_18 
REMARK   11  A    between atoms: C13_18  and  O4_19 
REMARK   12  A    between atoms: C13_18  and  C14_21 
REMARK   13  A    between atoms: C14_21  and  C15_22 
REMARK   14  A    between atoms: C15_22  and  O5_23 
REMARK   15  A    between atoms: C15_22  and  C16_25 
REMARK   16  A    between atoms: C16_25  and  O6_28 
REMARK   17  A    between atoms: C19_30  and  O7_31 
ROOT
HETATM    1  C8  UNL     1      49.450  48.248  68.532  1.00  0.00     0.046 C 
HETATM    2  C9  UNL     1      49.193  46.770  68.527  1.00  0.00     0.042 C 
HETATM    3  C10 UNL     1      47.742  46.667  68.169  1.00  0.00     0.127 C 
HETATM    4  C11 UNL     1      47.130  47.986  68.483  1.00  0.00     0.067 C 
HETATM    5  C19 UNL     1      48.212  48.810  69.178  1.00  0.00     0.133 C 
ENDROOT
BRANCH   4   6
HETATM    6  C12 UNL     1      45.974  47.831  69.401  1.00  0.00     0.180 C 
BRANCH   6   7
HETATM    7  O3  UNL     1      44.877  48.583  69.119  1.00  0.00    -0.361 OA
BRANCH   7   8
HETATM    8  C13 UNL     1      44.541  49.580  69.984  1.00  0.00     0.259 C 
BRANCH   8   9
HETATM    9  O4  UNL     1      45.305  50.741  69.833  1.00  0.00    -0.371 OA
ATOM     10  H4  UNL     1      45.670  51.069  70.647  1.00  0.00     0.212 HD
ENDBRANCH   8   9
BRANCH   8  11
HETATM   11  C14 UNL     1      44.412  49.175  71.383  1.00  0.00     0.095 C 
BRANCH  11  12
HETATM   12  C15 UNL     1      43.147  48.580  71.889  1.00  0.00     0.156 C 
BRANCH  12  13
HETATM   13  O5  UNL     1      42.272  48.529  70.717  1.00  0.00    -0.392 OA
ATOM     14  H5  UNL     1      42.433  47.673  70.337  1.00  0.00     0.210 HD
ENDBRANCH  12  13
BRANCH  12  15
HETATM   15  C16 UNL     1      42.342  49.369  72.863  1.00  0.00     0.076 C 
HETATM   16  C17 UNL     1      43.333  49.840  73.986  1.00  0.00     0.048 C 
HETATM   17  C18 UNL     1      41.742  50.618  72.337  1.00  0.00     0.048 C 
BRANCH  15  18
HETATM   18  O6  UNL     1      41.403  48.619  73.562  1.00  0.00    -0.388 OA
ATOM     19  H6  UNL     1      41.046  47.889  73.069  1.00  0.00     0.210 HD
ENDBRANCH  15  18
ENDBRANCH  12  15
ENDBRANCH  11  12
ENDBRANCH   8  11
ENDBRANCH   7   8
ENDBRANCH   6   7
ENDBRANCH   4   6
BRANCH   3  20
HETATM   20  O2  UNL     1      47.175  45.620  68.904  1.00  0.00    -0.395 OA
ATOM     21  H2  UNL     1      47.834  44.949  69.035  1.00  0.00     0.210 HD
ENDBRANCH   3  20
BRANCH   5  22
HETATM   22  O7  UNL     1      47.979  50.143  68.777  1.00  0.00    -0.395 OA
ATOM     23  H7  UNL     1      47.565  50.182  67.923  1.00  0.00     0.210 HD
ENDBRANCH   5  22
BRANCH   1  24
HETATM   24  C7  UNL     1      50.700  48.545  69.311  1.00  0.00     0.125 C 
BRANCH  24  25
HETATM   25  C6  UNL     1      50.878  47.700  70.518  1.00  0.00     0.037 C 
BRANCH  25  26
HETATM   26  C3  UNL     1      52.246  47.158  70.787  1.00  0.00    -0.013 C 
BRANCH  26  27
HETATM   27  C2  UNL     1      53.173  48.040  71.535  1.00  0.00     0.000 C 
HETATM   28  C1  UNL     1      54.598  47.540  71.571  1.00  0.00     0.005 C 
ENDBRANCH  26  27
BRANCH  26  29
HETATM   29  C4  UNL     1      52.811  46.733  69.439  1.00  0.00     0.000 C 
HETATM   30  C5  UNL     1      52.745  45.237  69.260  1.00  0.00     0.005 C 
ENDBRANCH  26  29
ENDBRANCH  25  26
ENDBRANCH  24  25
BRANCH  24  31
HETATM   31  O1  UNL     1      50.768  49.905  69.530  1.00  0.00    -0.395 OA
ATOM     32  H1  UNL     1      50.435  50.446  68.823  1.00  0.00     0.210 HD
ENDBRANCH  24  31
ENDBRANCH   1  24
TORSDOF 17
ENDMDL
MODEL 4
REMARK VINA RESULT: -6.210957604      2.793      4.337
REMARK  17 active torsions:
REMARK  status: ('A' for Active; 'I' for Inactive)
REMARK    1  A    between atoms: C2_2  and  C3_3 
REMARK    2  A    between atoms: C3_3  and  C4_4 
REMARK    3  A    between atoms: C3_3  and  C6_6 
REMARK    4  A    between atoms: C6_6  and  C7_7 
REMARK    5  A    between atoms: C7_7  and  O1_8 
REMARK    6  A    between atoms: C7_7  and  C8_10 
REMARK    7  A    between atoms: C10_12  and  O2_13 
REMARK    8  A    between atoms: C11_15  and  C12_16 
REMARK    9  A    between atoms: C12_16  and  O3_17 
REMARK   10  A    between atoms: O3_17  and  C13_18 
REMARK   11  A    between atoms: C13_18  and  O4_19 
REMARK   12  A    between atoms: C13_18  and  C14_21 
REMARK   13  A    between atoms: C14_21  and  C15_22 
REMARK   14  A    between atoms: C15_22  and  O5_23 
REMARK   15  A    between atoms: C15_22  and  C16_25 
REMARK   16  A    between atoms: C16_25  and  O6_28 
REMARK   17  A    between atoms: C19_30  and  O7_31 
ROOT
HETATM    1  C8  UNL     1      49.669  47.296  69.233  1.00  0.00     0.046 C 
HETATM    2  C9  UNL     1      49.788  48.034  70.533  1.00  0.00     0.042 C 
HETATM    3  C10 UNL     1      48.386  48.046  71.060  1.00  0.00     0.127 C 
HETATM    4  C11 UNL     1      47.490  47.813  69.896  1.00  0.00     0.067 C 
HETATM    5  C19 UNL     1      48.381  47.821  68.656  1.00  0.00     0.133 C 
ENDROOT
BRANCH   4   6
HETATM    6  C12 UNL     1      46.481  48.894  69.776  1.00  0.00     0.180 C 
BRANCH   6   7
HETATM    7  O3  UNL     1      46.490  49.597  68.613  1.00  0.00    -0.361 OA
BRANCH   7   8
HETATM    8  C13 UNL     1      46.344  50.950  68.678  1.00  0.00     0.259 C 
BRANCH   8   9
HETATM    9  O4  UNL     1      46.237  51.569  67.430  1.00  0.00    -0.371 OA
ATOM     10  H4  UNL     1      47.046  51.963  67.126  1.00  0.00     0.212 HD
ENDBRANCH   8   9
BRANCH   8  11
HETATM   11  C14 UNL     1      47.283  51.637  69.563  1.00  0.00     0.095 C 
BRANCH  11  12
HETATM   12  C15 UNL     1      48.594  52.119  69.055  1.00  0.00     0.156 C 
BRANCH  12  13
HETATM   13  O5  UNL     1      49.112  51.003  68.263  1.00  0.00    -0.392 OA
ATOM     14  H5  UNL     1      48.507  50.291  68.433  1.00  0.00     0.210 HD
ENDBRANCH  12  13
BRANCH  12  15
HETATM   15  C16 UNL     1      49.685  52.353  70.043  1.00  0.00     0.076 C 
HETATM   16  C17 UNL     1      50.907  51.485  69.576  1.00  0.00     0.048 C 
HETATM   17  C18 UNL     1      50.206  53.739  70.108  1.00  0.00     0.048 C 
BRANCH  15  18
HETATM   18  O6  UNL     1      49.412  51.861  71.314  1.00  0.00    -0.388 OA
ATOM     19  H6  UNL     1      48.785  51.147  71.327  1.00  0.00     0.210 HD
ENDBRANCH  15  18
ENDBRANCH  12  15
ENDBRANCH  11  12
ENDBRANCH   8  11
ENDBRANCH   7   8
ENDBRANCH   6   7
ENDBRANCH   4   6
BRANCH   3  20
HETATM   20  O2  UNL     1      48.154  49.278  71.682  1.00  0.00    -0.395 OA
ATOM     21  H2  UNL     1      48.991  49.674  71.893  1.00  0.00     0.210 HD
ENDBRANCH   3  20
BRANCH   5  22
HETATM   22  O7  UNL     1      47.794  46.893  67.770  1.00  0.00    -0.395 OA
ATOM     23  H7  UNL     1      47.551  47.302  66.948  1.00  0.00     0.210 HD
ENDBRANCH   5  22
BRANCH   1  24
HETATM   24  C7  UNL     1      50.859  47.593  68.367  1.00  0.00     0.125 C 
BRANCH  24  25
HETATM   25  C6  UNL     1      52.071  48.002  69.121  1.00  0.00     0.037 C 
BRANCH  25  26
HETATM   26  C3  UNL     1      53.112  46.957  69.374  1.00  0.00    -0.013 C 
BRANCH  26  27
HETATM   27  C2  UNL     1      52.622  45.608  69.742  1.00  0.00     0.000 C 
HETATM   28  C1  UNL     1      53.067  44.516  68.799  1.00  0.00     0.005 C 
ENDBRANCH  26  27
BRANCH  26  29
HETATM   29  C4  UNL     1      54.057  47.537  70.417  1.00  0.00     0.000 C 
HETATM   30  C5  UNL     1      53.321  47.912  71.679  1.00  0.00     0.005 C 
ENDBRANCH  26  29
ENDBRANCH  25  26
ENDBRANCH  24  25
BRANCH  24  31
HETATM   31  O1  UNL     1      50.469  48.459  67.367  1.00  0.00    -0.395 OA
ATOM     32  H1  UNL     1      49.891  49.161  67.642  1.00  0.00     0.210 HD
ENDBRANCH  24  31
ENDBRANCH   1  24
TORSDOF 17
ENDMDL
MODEL 5
REMARK VINA RESULT: -6.198529354      0.617      1.478
REMARK  17 active torsions:
REMARK  status: ('A' for Active; 'I' for Inactive)
REMARK    1  A    between atoms: C2_2  and  C3_3 
REMARK    2  A    between atoms: C3_3  and  C4_4 
REMARK    3  A    between atoms: C3_3  and  C6_6 
REMARK    4  A    between atoms: C6_6  and  C7_7 
REMARK    5  A    between atoms: C7_7  and  O1_8 
REMARK    6  A    between atoms: C7_7  and  C8_10 
REMARK    7  A    between atoms: C10_12  and  O2_13 
REMARK    8  A    between atoms: C11_15  and  C12_16 
REMARK    9  A    between atoms: C12_16  and  O3_17 
REMARK   10  A    between atoms: O3_17  and  C13_18 
REMARK   11  A    between atoms: C13_18  and  O4_19 
REMARK   12  A    between atoms: C13_18  and  C14_21 
REMARK   13  A    between atoms: C14_21  and  C15_22 
REMARK   14  A    between atoms: C15_22  and  O5_23 
REMARK   15  A    between atoms: C15_22  and  C16_25 
REMARK   16  A    between atoms: C16_25  and  O6_28 
REMARK   17  A    between atoms: C19_30  and  O7_31 
ROOT
HETATM    1  C8  UNL     1      49.772  47.835  68.869  1.00  0.00     0.046 C 
HETATM    2  C9  UNL     1      49.601  49.302  69.127  1.00  0.00     0.042 C 
HETATM    3  C10 UNL     1      48.179  49.416  69.581  1.00  0.00     0.127 C 
HETATM    4  C11 UNL     1      47.476  48.198  69.095  1.00  0.00     0.067 C 
HETATM    5  C19 UNL     1      48.473  47.447  68.214  1.00  0.00     0.133 C 
ENDROOT
BRANCH   4   6
HETATM    6  C12 UNL     1      46.287  48.558  68.284  1.00  0.00     0.180 C 
BRANCH   6   7
HETATM    7  O3  UNL     1      45.134  48.772  68.970  1.00  0.00    -0.361 OA
BRANCH   7   8
HETATM    8  C13 UNL     1      44.815  47.909  69.976  1.00  0.00     0.259 C 
BRANCH   8   9
HETATM    9  O4  UNL     1      43.991  46.854  69.575  1.00  0.00    -0.371 OA
ATOM     10  H4  UNL     1      43.175  46.799  70.058  1.00  0.00     0.212 HD
ENDBRANCH   8   9
BRANCH   8  11
HETATM   11  C14 UNL     1      44.357  48.536  71.214  1.00  0.00     0.095 C 
BRANCH  11  12
HETATM   12  C15 UNL     1      42.932  48.450  71.629  1.00  0.00     0.156 C 
BRANCH  12  13
HETATM   13  O5  UNL     1      42.184  48.966  70.482  1.00  0.00    -0.392 OA
ATOM     14  H5  UNL     1      41.414  49.370  70.864  1.00  0.00     0.210 HD
ENDBRANCH  12  13
BRANCH  12  15
HETATM   15  C16 UNL     1      42.473  49.328  72.741  1.00  0.00     0.076 C 
HETATM   16  C17 UNL     1      43.683  49.470  73.730  1.00  0.00     0.048 C 
HETATM   17  C18 UNL     1      42.127  50.719  72.360  1.00  0.00     0.048 C 
BRANCH  15  18
HETATM   18  O6  UNL     1      41.478  48.767  73.534  1.00  0.00    -0.388 OA
ATOM     19  H6  UNL     1      41.694  47.906  73.873  1.00  0.00     0.210 HD
ENDBRANCH  15  18
ENDBRANCH  12  15
ENDBRANCH  11  12
ENDBRANCH   8  11
ENDBRANCH   7   8
ENDBRANCH   6   7
ENDBRANCH   4   6
BRANCH   3  20
HETATM   20  O2  UNL     1      47.637  50.596  69.060  1.00  0.00    -0.395 OA
ATOM     21  H2  UNL     1      47.843  51.311  69.651  1.00  0.00     0.210 HD
ENDBRANCH   3  20
BRANCH   5  22
HETATM   22  O7  UNL     1      48.183  46.079  68.408  1.00  0.00    -0.395 OA
ATOM     23  H7  UNL     1      48.779  45.525  67.918  1.00  0.00     0.210 HD
ENDBRANCH   5  22
BRANCH   1  24
HETATM   24  C7  UNL     1      50.962  47.609  67.981  1.00  0.00     0.125 C 
BRANCH  24  25
HETATM   25  C6  UNL     1      52.264  47.627  68.694  1.00  0.00     0.037 C 
BRANCH  25  26
HETATM   26  C3  UNL     1      52.357  46.871  69.982  1.00  0.00    -0.013 C 
BRANCH  26  27
HETATM   27  C2  UNL     1      52.644  47.667  71.198  1.00  0.00     0.000 C 
HETATM   28  C1  UNL     1      54.109  47.725  71.560  1.00  0.00     0.005 C 
ENDBRANCH  26  27
BRANCH  26  29
HETATM   29  C4  UNL     1      53.380  45.766  69.757  1.00  0.00     0.000 C 
HETATM   30  C5  UNL     1      52.772  44.592  69.031  1.00  0.00     0.005 C 
ENDBRANCH  26  29
ENDBRANCH  25  26
ENDBRANCH  24  25
BRANCH  24  31
HETATM   31  O1  UNL     1      50.872  48.461  66.900  1.00  0.00    -0.395 OA
ATOM     32  H1  UNL     1      50.172  49.102  66.948  1.00  0.00     0.210 HD
ENDBRANCH  24  31
ENDBRANCH   1  24
TORSDOF 17
ENDMDL
