MODEL 1
REMARK VINA RESULT: -6.147456255      0.000      0.000
REMARK  17 active torsions:
REMARK  status: ('A' for Active; 'I' for Inactive)
REMARK    1  A    between atoms: C2_2  and  C3_3 
REMARK    2  A    between atoms: C3_3  and  C4_4 
REMARK    3  A    between atoms: C4_4  and  C5_5 
REMARK    4  A    between atoms: C5_5  and  C6_6 
REMARK    5  A    between atoms: C5_5  and  C9_9 
REMARK    6  A    between atoms: C9_9  and  O1_10 
REMARK    7  A    between atoms: C9_9  and  C10_12 
REMARK    8  A    between atoms: C10_12  and  O2_14 
REMARK    9  A    between atoms: C10_12  and  C12_16 
REMARK   10  A    between atoms: C15_19  and  C16_20 
REMARK   11  A    between atoms: C16_20  and  O3_21 
REMARK   12  A    between atoms: C16_20  and  C17_23 
REMARK   13  A    between atoms: C17_23  and  O4_24 
REMARK   14  A    between atoms: C17_23  and  C18_26 
REMARK   15  A    between atoms: C18_26  and  O5_27 
REMARK   16  A    between atoms: C18_26  and  C19_29 
REMARK   17  A    between atoms: C19_29  and  O6_30 
ROOT
HETATM    1  C12 UNL     1      47.339  48.442  68.905  1.00  0.00     0.158 C 
HETATM    2  C13 UNL     1      45.895  47.982  68.955  1.00  0.00     0.038 C 
HETATM    3  C14 UNL     1      45.224  49.366  68.823  1.00  0.00     0.037 C 
HETATM    4  C15 UNL     1      46.180  50.214  69.630  1.00  0.00     0.153 C 
HETATM    5  O7  UNL     1      47.343  49.471  69.832  1.00  0.00    -0.375 OA
ENDROOT
BRANCH   1   6
HETATM    6  C10 UNL     1      48.286  47.356  69.440  1.00  0.00     0.106 C 
HETATM    7  C11 UNL     1      48.130  47.388  70.916  1.00  0.00     0.051 C 
BRANCH   6   8
HETATM    8  C9  UNL     1      49.623  47.464  68.849  1.00  0.00     0.162 C 
BRANCH   8   9
HETATM    9  C5  UNL     1      50.817  47.139  69.716  1.00  0.00     0.045 C 
BRANCH   9  10
HETATM   10  C4  UNL     1      51.930  46.585  68.883  1.00  0.00     0.015 C 
BRANCH  10  11
HETATM   11  C3  UNL     1      52.850  45.576  69.378  1.00  0.00     0.027 C 
BRANCH  11  12
HETATM   12  C2  UNL     1      52.706  44.178  68.968  1.00  0.00    -0.037 C 
HETATM   13  C1  UNL     1      53.657  43.573  68.221  1.00  0.00     0.007 C 
ENDBRANCH  11  12
ENDBRANCH  10  11
ENDBRANCH   9  10
BRANCH   9  14
HETATM   14  C6  UNL     1      51.307  48.227  70.559  1.00  0.00    -0.086 C 
HETATM   15  C7  UNL     1      51.546  49.476  70.291  1.00  0.00     0.014 C 
HETATM   16  C8  UNL     1      51.526  47.842  72.021  1.00  0.00     0.043 C 
ENDBRANCH   9  14
ENDBRANCH   8   9
BRANCH   8  17
HETATM   17  O1  UNL     1      49.771  48.405  67.894  1.00  0.00    -0.392 OA
ATOM     18  H1  UNL     1      49.820  49.313  68.167  1.00  0.00     0.210 HD
ENDBRANCH   8  17
ENDBRANCH   6   8
BRANCH   6  19
HETATM   19  O2  UNL     1      47.670  46.151  68.995  1.00  0.00    -0.385 OA
ATOM     20  H2  UNL     1      46.759  46.322  68.787  1.00  0.00     0.210 HD
ENDBRANCH   6  19
ENDBRANCH   1   6
BRANCH   4  21
HETATM   21  C16 UNL     1      46.604  51.470  68.917  1.00  0.00     0.178 C 
BRANCH  21  22
HETATM   22  O3  UNL     1      46.565  51.358  67.533  1.00  0.00    -0.390 OA
ATOM     23  H3  UNL     1      47.139  51.971  67.089  1.00  0.00     0.210 HD
ENDBRANCH  21  22
BRANCH  21  24
HETATM   24  C17 UNL     1      47.812  52.147  69.433  1.00  0.00     0.180 C 
BRANCH  24  25
HETATM   25  O4  UNL     1      47.447  53.478  69.826  1.00  0.00    -0.390 OA
ATOM     26  H4  UNL     1      48.056  53.767  70.495  1.00  0.00     0.210 HD
ENDBRANCH  24  25
BRANCH  24  27
HETATM   27  C18 UNL     1      48.975  52.314  68.549  1.00  0.00     0.173 C 
BRANCH  27  28
HETATM   28  O5  UNL     1      49.559  51.073  68.219  1.00  0.00    -0.391 OA
ATOM     29  H5  UNL     1      49.439  50.864  67.301  1.00  0.00     0.210 HD
ENDBRANCH  27  28
BRANCH  27  30
HETATM   30  C19 UNL     1      50.043  53.263  68.902  1.00  0.00     0.198 C 
BRANCH  30  31
HETATM   31  O6  UNL     1      49.843  54.433  68.115  1.00  0.00    -0.398 OA
ATOM     32  H6  UNL     1      50.675  54.890  68.076  1.00  0.00     0.209 HD
ENDBRANCH  30  31
ENDBRANCH  27  30
ENDBRANCH  24  27
ENDBRANCH  21  24
ENDBRANCH   4  21
TORSDOF 17
ENDMDL
MODEL 2
REMARK VINA RESULT: -5.955338348      2.500      4.536
REMARK  17 active torsions:
REMARK  status: ('A' for Active; 'I' for Inactive)
REMARK    1  A    between atoms: C2_2  and  C3_3 
REMARK    2  A    between atoms: C3_3  and  C4_4 
REMARK    3  A    between atoms: C4_4  and  C5_5 
REMARK    4  A    between atoms: C5_5  and  C6_6 
REMARK    5  A    between atoms: C5_5  and  C9_9 
REMARK    6  A    between atoms: C9_9  and  O1_10 
REMARK    7  A    between atoms: C9_9  and  C10_12 
REMARK    8  A    between atoms: C10_12  and  O2_14 
REMARK    9  A    between atoms: C10_12  and  C12_16 
REMARK   10  A    between atoms: C15_19  and  C16_20 
REMARK   11  A    between atoms: C16_20  and  O3_21 
REMARK   12  A    between atoms: C16_20  and  C17_23 
REMARK   13  A    between atoms: C17_23  and  O4_24 
REMARK   14  A    between atoms: C17_23  and  C18_26 
REMARK   15  A    between atoms: C18_26  and  O5_27 
REMARK   16  A    between atoms: C18_26  and  C19_29 
REMARK   17  A    between atoms: C19_29  and  O6_30 
ROOT
HETATM    1  C12 UNL     1      47.992  49.289  69.578  1.00  0.00     0.158 C 
HETATM    2  C13 UNL     1      47.476  50.612  69.047  1.00  0.00     0.038 C 
HETATM    3  C14 UNL     1      45.969  50.354  69.252  1.00  0.00     0.037 C 
HETATM    4  C15 UNL     1      45.893  48.882  68.916  1.00  0.00     0.153 C 
HETATM    5  O7  UNL     1      47.194  48.380  68.902  1.00  0.00    -0.375 OA
ENDROOT
BRANCH   1   6
HETATM    6  C10 UNL     1      49.438  49.034  69.126  1.00  0.00     0.106 C 
HETATM    7  C11 UNL     1      49.392  47.773  68.344  1.00  0.00     0.051 C 
BRANCH   6   8
HETATM    8  C9  UNL     1      50.384  49.164  70.238  1.00  0.00     0.162 C 
BRANCH   8   9
HETATM    9  C5  UNL     1      50.607  47.967  71.133  1.00  0.00     0.045 C 
BRANCH   9  10
HETATM   10  C4  UNL     1      52.062  47.624  71.192  1.00  0.00     0.015 C 
BRANCH  10  11
HETATM   11  C3  UNL     1      52.803  47.151  70.035  1.00  0.00     0.027 C 
BRANCH  11  12
HETATM   12  C2  UNL     1      52.295  46.032  69.239  1.00  0.00    -0.037 C 
HETATM   13  C1  UNL     1      52.944  44.846  69.217  1.00  0.00     0.007 C 
ENDBRANCH  11  12
ENDBRANCH  10  11
ENDBRANCH   9  10
BRANCH   9  14
HETATM   14  C6  UNL     1      50.054  48.068  72.481  1.00  0.00    -0.086 C 
HETATM   15  C7  UNL     1      48.832  47.971  72.913  1.00  0.00     0.014 C 
HETATM   16  C8  UNL     1      51.098  48.267  73.578  1.00  0.00     0.043 C 
ENDBRANCH   9  14
ENDBRANCH   8   9
BRANCH   8  17
HETATM   17  O1  UNL     1      50.484  50.392  70.787  1.00  0.00    -0.392 OA
ATOM     18  H1  UNL     1      50.143  51.129  70.295  1.00  0.00     0.210 HD
ENDBRANCH   8  17
ENDBRANCH   6   8
BRANCH   6  19
HETATM   19  O2  UNL     1      49.666  50.082  68.188  1.00  0.00    -0.385 OA
ATOM     20  H2  UNL     1      48.894  50.194  67.647  1.00  0.00     0.210 HD
ENDBRANCH   6  19
ENDBRANCH   1   6
BRANCH   4  21
HETATM   21  C16 UNL     1      45.144  48.078  69.944  1.00  0.00     0.178 C 
BRANCH  21  22
HETATM   22  O3  UNL     1      44.269  47.152  69.390  1.00  0.00    -0.390 OA
ATOM     23  H3  UNL     1      44.292  46.306  69.822  1.00  0.00     0.210 HD
ENDBRANCH  21  22
BRANCH  21  24
HETATM   24  C17 UNL     1      44.584  48.828  71.089  1.00  0.00     0.180 C 
BRANCH  24  25
HETATM   25  O4  UNL     1      45.492  48.704  72.192  1.00  0.00    -0.390 OA
ATOM     26  H4  UNL     1      44.980  48.640  72.990  1.00  0.00     0.210 HD
ENDBRANCH  24  25
BRANCH  24  27
HETATM   27  C18 UNL     1      43.271  48.441  71.627  1.00  0.00     0.173 C 
BRANCH  27  28
HETATM   28  O5  UNL     1      42.256  48.557  70.654  1.00  0.00    -0.391 OA
ATOM     29  H5  UNL     1      41.473  48.958  71.012  1.00  0.00     0.210 HD
ENDBRANCH  27  28
BRANCH  27  30
HETATM   30  C19 UNL     1      42.788  49.024  72.889  1.00  0.00     0.198 C 
BRANCH  30  31
HETATM   31  O6  UNL     1      43.239  48.177  73.942  1.00  0.00    -0.398 OA
ATOM     32  H6  UNL     1      42.466  47.842  74.382  1.00  0.00     0.209 HD
ENDBRANCH  30  31
ENDBRANCH  27  30
ENDBRANCH  24  27
ENDBRANCH  21  24
ENDBRANCH   4  21
TORSDOF 17
ENDMDL
MODEL 3
REMARK VINA RESULT: -5.912508590      1.477      2.051
REMARK  17 active torsions:
REMARK  status: ('A' for Active; 'I' for Inactive)
REMARK    1  A    between atoms: C2_2  and  C3_3 
REMARK    2  A    between atoms: C3_3  and  C4_4 
REMARK    3  A    between atoms: C4_4  and  C5_5 
REMARK    4  A    between atoms: C5_5  and  C6_6 
REMARK    5  A    between atoms: C5_5  and  C9_9 
REMARK    6  A    between atoms: C9_9  and  O1_10 
REMARK    7  A    between atoms: C9_9  and  C10_12 
REMARK    8  A    between atoms: C10_12  and  O2_14 
REMARK    9  A    between atoms: C10_12  and  C12_16 
REMARK   10  A    between atoms: C15_19  and  C16_20 
REMARK   11  A    between atoms: C16_20  and  O3_21 
REMARK   12  A    between atoms: C16_20  and  C17_23 
REMARK   13  A    between atoms: C17_23  and  O4_24 
REMARK   14  A    between atoms: C17_23  and  C18_26 
REMARK   15  A    between atoms: C18_26  and  O5_27 
REMARK   16  A    between atoms: C18_26  and  C19_29 
REMARK   17  A    between atoms: C19_29  and  O6_30 
ROOT
HETATM    1  C12 UNL     1      47.586  48.738  69.081  1.00  0.00     0.158 C 
HETATM    2  C13 UNL     1      46.173  48.274  68.784  1.00  0.00     0.038 C 
HETATM    3  C14 UNL     1      45.518  49.663  68.632  1.00  0.00     0.037 C 
HETATM    4  C15 UNL     1      46.265  50.438  69.693  1.00  0.00     0.153 C 
HETATM    5  O7  UNL     1      47.373  49.681  70.074  1.00  0.00    -0.375 OA
ENDROOT
BRANCH   1   6
HETATM    6  C10 UNL     1      48.420  47.611  69.710  1.00  0.00     0.106 C 
HETATM    7  C11 UNL     1      48.646  48.025  71.118  1.00  0.00     0.051 C 
BRANCH   6   8
HETATM    8  C9  UNL     1      49.564  47.250  68.868  1.00  0.00     0.162 C 
BRANCH   8   9
HETATM    9  C5  UNL     1      50.887  47.934  69.124  1.00  0.00     0.045 C 
BRANCH   9  10
HETATM   10  C4  UNL     1      52.019  46.984  68.890  1.00  0.00     0.015 C 
BRANCH  10  11
HETATM   11  C3  UNL     1      53.332  47.169  69.483  1.00  0.00     0.027 C 
BRANCH  11  12
HETATM   12  C2  UNL     1      53.461  47.531  70.896  1.00  0.00    -0.037 C 
HETATM   13  C1  UNL     1      54.655  47.449  71.526  1.00  0.00     0.007 C 
ENDBRANCH  11  12
ENDBRANCH  10  11
ENDBRANCH   9  10
BRANCH   9  14
HETATM   14  C6  UNL     1      51.111  49.180  68.396  1.00  0.00    -0.086 C 
HETATM   15  C7  UNL     1      51.429  49.401  67.155  1.00  0.00     0.014 C 
HETATM   16  C8  UNL     1      50.879  50.444  69.222  1.00  0.00     0.043 C 
ENDBRANCH   9  14
ENDBRANCH   8   9
BRANCH   8  17
HETATM   17  O1  UNL     1      49.274  46.888  67.602  1.00  0.00    -0.392 OA
ATOM     18  H1  UNL     1      48.713  47.461  67.092  1.00  0.00     0.210 HD
ENDBRANCH   8  17
ENDBRANCH   6   8
BRANCH   6  19
HETATM   19  O2  UNL     1      47.502  46.523  69.751  1.00  0.00    -0.385 OA
ATOM     20  H2  UNL     1      46.724  46.749  69.256  1.00  0.00     0.210 HD
ENDBRANCH   6  19
ENDBRANCH   1   6
BRANCH   4  21
HETATM   21  C16 UNL     1      46.804  51.752  69.197  1.00  0.00     0.178 C 
BRANCH  21  22
HETATM   22  O3  UNL     1      47.023  51.776  67.826  1.00  0.00    -0.390 OA
ATOM     23  H3  UNL     1      47.566  52.502  67.543  1.00  0.00     0.210 HD
ENDBRANCH  21  22
BRANCH  21  24
HETATM   24  C17 UNL     1      47.890  52.363  69.992  1.00  0.00     0.180 C 
BRANCH  24  25
HETATM   25  O4  UNL     1      47.552  52.241  71.381  1.00  0.00    -0.390 OA
ATOM     26  H4  UNL     1      47.692  53.084  71.795  1.00  0.00     0.210 HD
ENDBRANCH  24  25
BRANCH  24  27
HETATM   27  C18 UNL     1      48.209  53.786  69.799  1.00  0.00     0.173 C 
BRANCH  27  28
HETATM   28  O5  UNL     1      47.338  54.391  68.869  1.00  0.00    -0.391 OA
ATOM     29  H5  UNL     1      47.451  55.334  68.847  1.00  0.00     0.210 HD
ENDBRANCH  27  28
BRANCH  27  30
HETATM   30  C19 UNL     1      49.589  54.200  69.498  1.00  0.00     0.198 C 
BRANCH  30  31
HETATM   31  O6  UNL     1      49.819  53.923  68.121  1.00  0.00    -0.398 OA
ATOM     32  H6  UNL     1      50.200  54.705  67.737  1.00  0.00     0.209 HD
ENDBRANCH  30  31
ENDBRANCH  27  30
ENDBRANCH  24  27
ENDBRANCH  21  24
ENDBRANCH   4  21
TORSDOF 17
ENDMDL
MODEL 4
REMARK VINA RESULT: -5.886666754      2.091      6.026
REMARK  17 active torsions:
REMARK  status: ('A' for Active; 'I' for Inactive)
REMARK    1  A    between atoms: C2_2  and  C3_3 
REMARK    2  A    between atoms: C3_3  and  C4_4 
REMARK    3  A    between atoms: C4_4  and  C5_5 
REMARK    4  A    between atoms: C5_5  and  C6_6 
REMARK    5  A    between atoms: C5_5  and  C9_9 
REMARK    6  A    between atoms: C9_9  and  O1_10 
REMARK    7  A    between atoms: C9_9  and  C10_12 
REMARK    8  A    between atoms: C10_12  and  O2_14 
REMARK    9  A    between atoms: C10_12  and  C12_16 
REMARK   10  A    between atoms: C15_19  and  C16_20 
REMARK   11  A    between atoms: C16_20  and  O3_21 
REMARK   12  A    between atoms: C16_20  and  C17_23 
REMARK   13  A    between atoms: C17_23  and  O4_24 
REMARK   14  A    between atoms: C17_23  and  C18_26 
REMARK   15  A    between atoms: C18_26  and  O5_27 
REMARK   16  A    between atoms: C18_26  and  C19_29 
REMARK   17  A    between atoms: C19_29  and  O6_30 
ROOT
HETATM    1  C12 UNL     1      49.012  50.631  69.234  1.00  0.00     0.158 C 
HETATM    2  C13 UNL     1      49.831  51.387  70.262  1.00  0.00     0.038 C 
HETATM    3  C14 UNL     1      51.197  50.729  69.976  1.00  0.00     0.037 C 
HETATM    4  C15 UNL     1      50.763  49.311  69.680  1.00  0.00     0.153 C 
HETATM    5  O7  UNL     1      49.383  49.320  69.482  1.00  0.00    -0.375 OA
ENDROOT
BRANCH   1   6
HETATM    6  C10 UNL     1      47.509  50.734  69.537  1.00  0.00     0.106 C 
HETATM    7  C11 UNL     1      47.346  51.992  70.308  1.00  0.00     0.051 C 
BRANCH   6   8
HETATM    8  C9  UNL     1      46.978  49.479  70.075  1.00  0.00     0.162 C 
BRANCH   8   9
HETATM    9  C5  UNL     1      45.678  48.952  69.514  1.00  0.00     0.045 C 
BRANCH   9  10
HETATM   10  C4  UNL     1      45.764  47.474  69.298  1.00  0.00     0.015 C 
BRANCH  10  11
HETATM   11  C3  UNL     1      47.013  46.799  68.988  1.00  0.00     0.027 C 
BRANCH  11  12
HETATM   12  C2  UNL     1      47.056  45.760  67.957  1.00  0.00    -0.037 C 
HETATM   13  C1  UNL     1      47.391  44.487  68.270  1.00  0.00     0.007 C 
ENDBRANCH  11  12
ENDBRANCH  10  11
ENDBRANCH   9  10
BRANCH   9  14
HETATM   14  C6  UNL     1      44.475  49.284  70.273  1.00  0.00    -0.086 C 
HETATM   15  C7  UNL     1      43.866  50.418  70.457  1.00  0.00     0.014 C 
HETATM   16  C8  UNL     1      43.782  48.085  70.917  1.00  0.00     0.043 C 
ENDBRANCH   9  14
ENDBRANCH   8   9
BRANCH   8  17
HETATM   17  O1  UNL     1      47.255  49.229  71.371  1.00  0.00    -0.392 OA
ATOM     18  H1  UNL     1      48.082  48.810  71.577  1.00  0.00     0.210 HD
ENDBRANCH   8  17
ENDBRANCH   6   8
BRANCH   6  19
HETATM   19  O2  UNL     1      46.943  50.973  68.251  1.00  0.00    -0.385 OA
ATOM     20  H2  UNL     1      46.584  51.851  68.224  1.00  0.00     0.210 HD
ENDBRANCH   6  19
ENDBRANCH   1   6
BRANCH   4  21
HETATM   21  C16 UNL     1      51.365  48.759  68.416  1.00  0.00     0.178 C 
BRANCH  21  22
HETATM   22  O3  UNL     1      50.712  49.181  67.264  1.00  0.00    -0.390 OA
ATOM     23  H3  UNL     1      51.140  48.899  66.464  1.00  0.00     0.210 HD
ENDBRANCH  21  22
BRANCH  21  24
HETATM   24  C17 UNL     1      51.710  47.322  68.421  1.00  0.00     0.180 C 
BRANCH  24  25
HETATM   25  O4  UNL     1      50.534  46.581  68.776  1.00  0.00    -0.390 OA
ATOM     26  H4  UNL     1      50.709  46.118  69.586  1.00  0.00     0.210 HD
ENDBRANCH  24  25
BRANCH  24  27
HETATM   27  C18 UNL     1      52.758  46.838  69.334  1.00  0.00     0.173 C 
BRANCH  27  28
HETATM   28  O5  UNL     1      54.039  47.263  68.924  1.00  0.00    -0.391 OA
ATOM     29  H5  UNL     1      54.277  46.893  68.082  1.00  0.00     0.210 HD
ENDBRANCH  27  28
BRANCH  27  30
HETATM   30  C19 UNL     1      52.823  45.413  69.695  1.00  0.00     0.198 C 
BRANCH  30  31
HETATM   31  O6  UNL     1      52.647  44.667  68.495  1.00  0.00    -0.398 OA
ATOM     32  H6  UNL     1      53.416  44.119  68.390  1.00  0.00     0.209 HD
ENDBRANCH  30  31
ENDBRANCH  27  30
ENDBRANCH  24  27
ENDBRANCH  21  24
ENDBRANCH   4  21
TORSDOF 17
ENDMDL
MODEL 5
REMARK VINA RESULT: -5.820106114      1.920      5.843
REMARK  17 active torsions:
REMARK  status: ('A' for Active; 'I' for Inactive)
REMARK    1  A    between atoms: C2_2  and  C3_3 
REMARK    2  A    between atoms: C3_3  and  C4_4 
REMARK    3  A    between atoms: C4_4  and  C5_5 
REMARK    4  A    between atoms: C5_5  and  C6_6 
REMARK    5  A    between atoms: C5_5  and  C9_9 
REMARK    6  A    between atoms: C9_9  and  O1_10 
REMARK    7  A    between atoms: C9_9  and  C10_12 
REMARK    8  A    between atoms: C10_12  and  O2_14 
REMARK    9  A    between atoms: C10_12  and  C12_16 
REMARK   10  A    between atoms: C15_19  and  C16_20 
REMARK   11  A    between atoms: C16_20  and  O3_21 
REMARK   12  A    between atoms: C16_20  and  C17_23 
REMARK   13  A    between atoms: C17_23  and  O4_24 
REMARK   14  A    between atoms: C17_23  and  C18_26 
REMARK   15  A    between atoms: C18_26  and  O5_27 
REMARK   16  A    between atoms: C18_26  and  C19_29 
REMARK   17  A    between atoms: C19_29  and  O6_30 
ROOT
HETATM    1  C12 UNL     1      48.502  51.612  68.665  1.00  0.00     0.158 C 
HETATM    2  C13 UNL     1      49.164  52.944  68.962  1.00  0.00     0.038 C 
HETATM    3  C14 UNL     1      50.632  52.476  68.884  1.00  0.00     0.037 C 
HETATM    4  C15 UNL     1      50.516  51.097  69.494  1.00  0.00     0.153 C 
HETATM    5  O7  UNL     1      49.162  50.764  69.538  1.00  0.00    -0.375 OA
ENDROOT
BRANCH   1   6
HETATM    6  C10 UNL     1      47.023  51.621  69.085  1.00  0.00     0.106 C 
HETATM    7  C11 UNL     1      46.801  52.944  69.722  1.00  0.00     0.051 C 
BRANCH   6   8
HETATM    8  C9  UNL     1      46.658  50.398  69.805  1.00  0.00     0.162 C 
BRANCH   8   9
HETATM    9  C5  UNL     1      45.445  49.627  69.338  1.00  0.00     0.045 C 
BRANCH   9  10
HETATM   10  C4  UNL     1      45.832  48.237  68.942  1.00  0.00     0.015 C 
BRANCH  10  11
HETATM   11  C3  UNL     1      47.180  47.886  68.531  1.00  0.00     0.027 C 
BRANCH  11  12
HETATM   12  C2  UNL     1      47.691  46.532  68.750  1.00  0.00    -0.037 C 
HETATM   13  C1  UNL     1      47.048  45.457  68.240  1.00  0.00     0.007 C 
ENDBRANCH  11  12
ENDBRANCH  10  11
ENDBRANCH   9  10
BRANCH   9  14
HETATM   14  C6  UNL     1      44.315  49.596  70.263  1.00  0.00    -0.086 C 
HETATM   15  C7  UNL     1      43.485  50.526  70.631  1.00  0.00     0.014 C 
HETATM   16  C8  UNL     1      44.026  48.219  70.860  1.00  0.00     0.043 C 
ENDBRANCH   9  14
ENDBRANCH   8   9
BRANCH   8  17
HETATM   17  O1  UNL     1      46.952  50.379  71.121  1.00  0.00    -0.392 OA
ATOM     18  H1  UNL     1      47.555  51.033  71.453  1.00  0.00     0.210 HD
ENDBRANCH   8  17
ENDBRANCH   6   8
BRANCH   6  19
HETATM   19  O2  UNL     1      46.339  51.655  67.836  1.00  0.00    -0.385 OA
ATOM     20  H2  UNL     1      46.795  52.241  67.243  1.00  0.00     0.210 HD
ENDBRANCH   6  19
ENDBRANCH   1   6
BRANCH   4  21
HETATM   21  C16 UNL     1      51.185  50.029  68.673  1.00  0.00     0.178 C 
BRANCH  21  22
HETATM   22  O3  UNL     1      51.107  50.254  67.304  1.00  0.00    -0.390 OA
ATOM     23  H3  UNL     1      50.272  50.004  66.928  1.00  0.00     0.210 HD
ENDBRANCH  21  22
BRANCH  21  24
HETATM   24  C17 UNL     1      50.921  48.629  69.069  1.00  0.00     0.180 C 
BRANCH  24  25
HETATM   25  O4  UNL     1      51.300  48.474  70.444  1.00  0.00    -0.390 OA
ATOM     26  H4  UNL     1      51.605  47.582  70.568  1.00  0.00     0.210 HD
ENDBRANCH  24  25
BRANCH  24  27
HETATM   27  C18 UNL     1      51.606  47.539  68.357  1.00  0.00     0.173 C 
BRANCH  27  28
HETATM   28  O5  UNL     1      50.847  47.079  67.260  1.00  0.00    -0.391 OA
ATOM     29  H5  UNL     1      50.954  46.144  67.130  1.00  0.00     0.210 HD
ENDBRANCH  27  28
BRANCH  27  30
HETATM   30  C19 UNL     1      52.120  46.378  69.100  1.00  0.00     0.198 C 
BRANCH  30  31
HETATM   31  O6  UNL     1      53.491  46.637  69.387  1.00  0.00    -0.398 OA
ATOM     32  H6  UNL     1      54.005  46.202  68.716  1.00  0.00     0.209 HD
ENDBRANCH  30  31
ENDBRANCH  27  30
ENDBRANCH  24  27
ENDBRANCH  21  24
ENDBRANCH   4  21
TORSDOF 17
ENDMDL
