MODEL 1
REMARK VINA RESULT: -5.539098609      0.000      0.000
REMARK  17 active torsions:
REMARK  status: ('A' for Active; 'I' for Inactive)
REMARK    1  A    between atoms: C2_2  and  C15_25 
REMARK    2  A    between atoms: C3_3  and  C4_4 
REMARK    3  A    between atoms: C4_4  and  C5_5 
REMARK    4  A    between atoms: C5_5  and  O1_6 
REMARK    5  A    between atoms: C5_5  and  C6_8 
REMARK    6  A    between atoms: C6_8  and  O2_9 
REMARK    7  A    between atoms: C6_8  and  C7_11 
REMARK    8  A    between atoms: C7_11  and  O3_12 
REMARK    9  A    between atoms: C7_11  and  C8_14 
REMARK   10  A    between atoms: C8_14  and  O4_15 
REMARK   11  A    between atoms: C8_14  and  C9_17 
REMARK   12  A    between atoms: C9_17  and  O5_18 
REMARK   13  A    between atoms: C9_17  and  C10_20 
REMARK   14  A    between atoms: C10_20  and  C11_21 
REMARK   15  A    between atoms: C11_21  and  C12_22 
REMARK   16  A    between atoms: C16_27  and  C18_29 
REMARK   17  A    between atoms: C18_29  and  O7_31 
ROOT
HETATM    1  C6  UNL     1      50.376  51.176  69.458  1.00  0.00     0.178 C 
ENDROOT
BRANCH   1   2
HETATM    2  C5  UNL     1      49.257  52.139  69.327  1.00  0.00     0.152 C 
BRANCH   2   3
HETATM    3  C4  UNL     1      47.896  51.629  69.033  1.00  0.00     0.061 C 
BRANCH   3   4
HETATM    4  C3  UNL     1      47.163  50.868  70.022  1.00  0.00    -0.019 C 
HETATM    5  C2  UNL     1      46.160  50.021  69.724  1.00  0.00    -0.056 C 
HETATM    6  C1  UNL     1      45.761  49.834  68.314  1.00  0.00     0.046 C 
BRANCH   5   7
HETATM    7  C15 UNL     1      45.451  49.272  70.783  1.00  0.00     0.188 A 
HETATM    8  O6  UNL     1      45.360  49.794  72.057  1.00  0.00    -0.362 OA
HETATM    9  C16 UNL     1      44.183  49.762  71.347  1.00  0.00     0.113 A 
HETATM   10  C17 UNL     1      43.633  51.120  70.971  1.00  0.00     0.052 C 
BRANCH   9  11
HETATM   11  C18 UNL     1      43.128  48.746  71.667  1.00  0.00     0.151 C 
HETATM   12  C19 UNL     1      42.345  49.117  72.911  1.00  0.00     0.042 C 
BRANCH  11  13
HETATM   13  O7  UNL     1      42.213  48.648  70.620  1.00  0.00    -0.393 OA
ATOM     14  H7  UNL     1      41.438  49.166  70.807  1.00  0.00     0.210 HD
ENDBRANCH  11  13
ENDBRANCH   9  11
ENDBRANCH   5   7
ENDBRANCH   3   4
ENDBRANCH   2   3
BRANCH   2  15
HETATM   15  O1  UNL     1      49.621  52.909  68.131  1.00  0.00    -0.393 OA
ATOM     16  H1  UNL     1      50.508  52.628  67.933  1.00  0.00     0.210 HD
ENDBRANCH   2  15
ENDBRANCH   1   2
BRANCH   1  17
HETATM   17  O2  UNL     1      51.569  51.780  69.700  1.00  0.00    -0.390 OA
ATOM     18  H2  UNL     1      51.689  52.012  70.614  1.00  0.00     0.210 HD
ENDBRANCH   1  17
BRANCH   1  19
HETATM   19  C7  UNL     1      50.321  50.046  68.511  1.00  0.00     0.180 C 
BRANCH  19  20
HETATM   20  O3  UNL     1      51.044  50.303  67.366  1.00  0.00    -0.390 OA
ATOM     21  H3  UNL     1      50.721  49.803  66.625  1.00  0.00     0.210 HD
ENDBRANCH  19  20
BRANCH  19  22
HETATM   22  C8  UNL     1      50.871  48.754  69.070  1.00  0.00     0.178 C 
BRANCH  22  23
HETATM   23  O4  UNL     1      50.793  48.819  70.456  1.00  0.00    -0.390 OA
ATOM     24  H4  UNL     1      51.511  48.310  70.814  1.00  0.00     0.210 HD
ENDBRANCH  22  23
BRANCH  22  25
HETATM   25  C9  UNL     1      50.218  47.515  68.596  1.00  0.00     0.149 C 
BRANCH  25  26
HETATM   26  O5  UNL     1      50.907  47.120  67.421  1.00  0.00    -0.393 OA
ATOM     27  H5  UNL     1      50.898  46.170  67.410  1.00  0.00     0.210 HD
ENDBRANCH  25  26
BRANCH  25  28
HETATM   28  C10 UNL     1      48.779  47.682  68.200  1.00  0.00     0.035 C 
BRANCH  28  29
HETATM   29  C11 UNL     1      47.955  46.750  69.056  1.00  0.00     0.006 C 
BRANCH  29  30
HETATM   30  C12 UNL     1      46.969  45.951  68.242  1.00  0.00    -0.023 C 
HETATM   31  C13 UNL     1      45.567  46.068  68.828  1.00  0.00     0.009 C 
HETATM   32  C14 UNL     1      47.306  44.504  68.133  1.00  0.00     0.009 C 
ENDBRANCH  29  30
ENDBRANCH  28  29
ENDBRANCH  25  28
ENDBRANCH  22  25
ENDBRANCH  19  22
ENDBRANCH   1  19
TORSDOF 17
ENDMDL
MODEL 2
REMARK VINA RESULT: -5.381618454      5.454      9.474
REMARK  17 active torsions:
REMARK  status: ('A' for Active; 'I' for Inactive)
REMARK    1  A    between atoms: C2_2  and  C15_25 
REMARK    2  A    between atoms: C3_3  and  C4_4 
REMARK    3  A    between atoms: C4_4  and  C5_5 
REMARK    4  A    between atoms: C5_5  and  O1_6 
REMARK    5  A    between atoms: C5_5  and  C6_8 
REMARK    6  A    between atoms: C6_8  and  O2_9 
REMARK    7  A    between atoms: C6_8  and  C7_11 
REMARK    8  A    between atoms: C7_11  and  O3_12 
REMARK    9  A    between atoms: C7_11  and  C8_14 
REMARK   10  A    between atoms: C8_14  and  O4_15 
REMARK   11  A    between atoms: C8_14  and  C9_17 
REMARK   12  A    between atoms: C9_17  and  O5_18 
REMARK   13  A    between atoms: C9_17  and  C10_20 
REMARK   14  A    between atoms: C10_20  and  C11_21 
REMARK   15  A    between atoms: C11_21  and  C12_22 
REMARK   16  A    between atoms: C16_27  and  C18_29 
REMARK   17  A    between atoms: C18_29  and  O7_31 
ROOT
HETATM    1  C6  UNL     1      52.205  48.313  69.626  1.00  0.00     0.178 C 
ENDROOT
BRANCH   1   2
HETATM    2  C5  UNL     1      53.194  47.302  70.070  1.00  0.00     0.152 C 
BRANCH   2   3
HETATM    3  C4  UNL     1      54.047  47.596  71.248  1.00  0.00     0.061 C 
BRANCH   3   4
HETATM    4  C3  UNL     1      55.198  46.772  71.549  1.00  0.00    -0.019 C 
HETATM    5  C2  UNL     1      55.925  46.884  72.676  1.00  0.00    -0.056 C 
HETATM    6  C1  UNL     1      55.552  47.896  73.685  1.00  0.00     0.046 C 
BRANCH   5   7
HETATM    7  C15 UNL     1      57.092  46.009  72.924  1.00  0.00     0.188 A 
HETATM    8  O6  UNL     1      57.740  45.404  71.867  1.00  0.00    -0.362 OA
HETATM    9  C16 UNL     1      58.445  46.402  72.499  1.00  0.00     0.113 A 
HETATM   10  C17 UNL     1      58.673  47.642  71.664  1.00  0.00     0.052 C 
BRANCH   9  11
HETATM   11  C18 UNL     1      59.583  46.067  73.414  1.00  0.00     0.151 C 
HETATM   12  C19 UNL     1      60.545  45.079  72.783  1.00  0.00     0.042 C 
BRANCH  11  13
HETATM   13  O7  UNL     1      60.316  47.213  73.721  1.00  0.00    -0.393 OA
ATOM     14  H7  UNL     1      60.651  47.165  74.608  1.00  0.00     0.210 HD
ENDBRANCH  11  13
ENDBRANCH   9  11
ENDBRANCH   5   7
ENDBRANCH   3   4
ENDBRANCH   2   3
BRANCH   2  15
HETATM   15  O1  UNL     1      54.137  47.245  68.946  1.00  0.00    -0.393 OA
ATOM     16  H1  UNL     1      53.634  47.560  68.203  1.00  0.00     0.210 HD
ENDBRANCH   2  15
ENDBRANCH   1   2
BRANCH   1  17
HETATM   17  O2  UNL     1      51.815  49.147  70.627  1.00  0.00    -0.390 OA
ATOM     18  H2  UNL     1      51.306  48.707  71.298  1.00  0.00     0.210 HD
ENDBRANCH   1  17
BRANCH   1  19
HETATM   19  C7  UNL     1      51.195  47.802  68.681  1.00  0.00     0.180 C 
BRANCH  19  20
HETATM   20  O3  UNL     1      51.256  46.431  68.559  1.00  0.00    -0.390 OA
ATOM     21  H3  UNL     1      52.144  46.107  68.656  1.00  0.00     0.210 HD
ENDBRANCH  19  20
BRANCH  19  22
HETATM   22  C8  UNL     1      49.772  48.121  69.079  1.00  0.00     0.178 C 
BRANCH  22  23
HETATM   23  O4  UNL     1      49.273  49.051  68.176  1.00  0.00    -0.390 OA
ATOM     24  H4  UNL     1      49.976  49.651  67.955  1.00  0.00     0.210 HD
ENDBRANCH  22  23
BRANCH  22  25
HETATM   25  C9  UNL     1      48.849  46.967  69.160  1.00  0.00     0.149 C 
BRANCH  25  26
HETATM   26  O5  UNL     1      48.482  46.651  67.827  1.00  0.00    -0.393 OA
ATOM     27  H5  UNL     1      48.597  45.713  67.731  1.00  0.00     0.210 HD
ENDBRANCH  25  26
BRANCH  25  28
HETATM   28  C10 UNL     1      47.568  47.246  69.892  1.00  0.00     0.035 C 
BRANCH  28  29
HETATM   29  C11 UNL     1      46.427  46.964  68.944  1.00  0.00     0.006 C 
BRANCH  29  30
HETATM   30  C12 UNL     1      45.324  47.986  69.060  1.00  0.00    -0.023 C 
HETATM   31  C13 UNL     1      45.764  49.322  68.471  1.00  0.00     0.009 C 
HETATM   32  C14 UNL     1      44.866  48.225  70.457  1.00  0.00     0.009 C 
ENDBRANCH  29  30
ENDBRANCH  28  29
ENDBRANCH  25  28
ENDBRANCH  22  25
ENDBRANCH  19  22
ENDBRANCH   1  19
TORSDOF 17
ENDMDL
MODEL 3
REMARK VINA RESULT: -5.326289371      2.798      4.436
REMARK  17 active torsions:
REMARK  status: ('A' for Active; 'I' for Inactive)
REMARK    1  A    between atoms: C2_2  and  C15_25 
REMARK    2  A    between atoms: C3_3  and  C4_4 
REMARK    3  A    between atoms: C4_4  and  C5_5 
REMARK    4  A    between atoms: C5_5  and  O1_6 
REMARK    5  A    between atoms: C5_5  and  C6_8 
REMARK    6  A    between atoms: C6_8  and  O2_9 
REMARK    7  A    between atoms: C6_8  and  C7_11 
REMARK    8  A    between atoms: C7_11  and  O3_12 
REMARK    9  A    between atoms: C7_11  and  C8_14 
REMARK   10  A    between atoms: C8_14  and  O4_15 
REMARK   11  A    between atoms: C8_14  and  C9_17 
REMARK   12  A    between atoms: C9_17  and  O5_18 
REMARK   13  A    between atoms: C9_17  and  C10_20 
REMARK   14  A    between atoms: C10_20  and  C11_21 
REMARK   15  A    between atoms: C11_21  and  C12_22 
REMARK   16  A    between atoms: C16_27  and  C18_29 
REMARK   17  A    between atoms: C18_29  and  O7_31 
ROOT
HETATM    1  C6  UNL     1      50.505  49.081  68.552  1.00  0.00     0.178 C 
ENDROOT
BRANCH   1   2
HETATM    2  C5  UNL     1      49.342  49.639  69.282  1.00  0.00     0.152 C 
BRANCH   2   3
HETATM    3  C4  UNL     1      48.065  48.883  69.292  1.00  0.00     0.061 C 
BRANCH   3   4
HETATM    4  C3  UNL     1      46.975  49.288  70.154  1.00  0.00    -0.019 C 
HETATM    5  C2  UNL     1      45.785  49.724  69.701  1.00  0.00    -0.056 C 
HETATM    6  C1  UNL     1      45.547  49.807  68.245  1.00  0.00     0.046 C 
BRANCH   5   7
HETATM    7  C15 UNL     1      44.710  50.122  70.635  1.00  0.00     0.188 A 
HETATM    8  O6  UNL     1      43.389  50.033  70.247  1.00  0.00    -0.362 OA
HETATM    9  C16 UNL     1      43.786  49.127  71.203  1.00  0.00     0.113 A 
HETATM   10  C17 UNL     1      43.807  47.687  70.741  1.00  0.00     0.052 C 
BRANCH   9  11
HETATM   11  C18 UNL     1      43.375  49.301  72.634  1.00  0.00     0.151 C 
HETATM   12  C19 UNL     1      41.953  49.813  72.756  1.00  0.00     0.042 C 
BRANCH  11  13
HETATM   13  O7  UNL     1      43.431  48.083  73.309  1.00  0.00    -0.393 OA
ATOM     14  H7  UNL     1      42.570  47.838  73.627  1.00  0.00     0.210 HD
ENDBRANCH  11  13
ENDBRANCH   9  11
ENDBRANCH   5   7
ENDBRANCH   3   4
ENDBRANCH   2   3
BRANCH   2  15
HETATM   15  O1  UNL     1      49.033  50.861  68.528  1.00  0.00    -0.393 OA
ATOM     16  H1  UNL     1      48.527  50.555  67.784  1.00  0.00     0.210 HD
ENDBRANCH   2  15
ENDBRANCH   1   2
BRANCH   1  17
HETATM   17  O2  UNL     1      50.853  49.822  67.466  1.00  0.00    -0.390 OA
ATOM     18  H2  UNL     1      50.932  49.303  66.674  1.00  0.00     0.210 HD
ENDBRANCH   1  17
BRANCH   1  19
HETATM   19  C7  UNL     1      50.511  47.610  68.451  1.00  0.00     0.180 C 
BRANCH  19  20
HETATM   20  O3  UNL     1      50.811  47.186  67.175  1.00  0.00    -0.390 OA
ATOM     21  H3  UNL     1      50.242  46.478  66.895  1.00  0.00     0.210 HD
ENDBRANCH  19  20
BRANCH  19  22
HETATM   22  C8  UNL     1      51.516  46.940  69.359  1.00  0.00     0.178 C 
BRANCH  22  23
HETATM   23  O4  UNL     1      51.921  45.757  68.753  1.00  0.00    -0.390 OA
ATOM     24  H4  UNL     1      52.330  45.978  67.924  1.00  0.00     0.210 HD
ENDBRANCH  22  23
BRANCH  22  25
HETATM   25  C9  UNL     1      52.706  47.746  69.713  1.00  0.00     0.149 C 
BRANCH  25  26
HETATM   26  O5  UNL     1      53.761  47.291  68.882  1.00  0.00    -0.393 OA
ATOM     27  H5  UNL     1      53.411  47.250  68.000  1.00  0.00     0.210 HD
ENDBRANCH  25  26
BRANCH  25  28
HETATM   28  C10 UNL     1      53.180  47.568  71.126  1.00  0.00     0.035 C 
BRANCH  28  29
HETATM   29  C11 UNL     1      54.688  47.497  71.099  1.00  0.00     0.006 C 
BRANCH  29  30
HETATM   30  C12 UNL     1      55.261  47.040  72.417  1.00  0.00    -0.023 C 
HETATM   31  C13 UNL     1      55.102  48.124  73.478  1.00  0.00     0.009 C 
HETATM   32  C14 UNL     1      56.700  46.663  72.354  1.00  0.00     0.009 C 
ENDBRANCH  29  30
ENDBRANCH  28  29
ENDBRANCH  25  28
ENDBRANCH  22  25
ENDBRANCH  19  22
ENDBRANCH   1  19
TORSDOF 17
ENDMDL
MODEL 4
REMARK VINA RESULT: -5.303256622      3.025      5.208
REMARK  17 active torsions:
REMARK  status: ('A' for Active; 'I' for Inactive)
REMARK    1  A    between atoms: C2_2  and  C15_25 
REMARK    2  A    between atoms: C3_3  and  C4_4 
REMARK    3  A    between atoms: C4_4  and  C5_5 
REMARK    4  A    between atoms: C5_5  and  O1_6 
REMARK    5  A    between atoms: C5_5  and  C6_8 
REMARK    6  A    between atoms: C6_8  and  O2_9 
REMARK    7  A    between atoms: C6_8  and  C7_11 
REMARK    8  A    between atoms: C7_11  and  O3_12 
REMARK    9  A    between atoms: C7_11  and  C8_14 
REMARK   10  A    between atoms: C8_14  and  O4_15 
REMARK   11  A    between atoms: C8_14  and  C9_17 
REMARK   12  A    between atoms: C9_17  and  O5_18 
REMARK   13  A    between atoms: C9_17  and  C10_20 
REMARK   14  A    between atoms: C10_20  and  C11_21 
REMARK   15  A    between atoms: C11_21  and  C12_22 
REMARK   16  A    between atoms: C16_27  and  C18_29 
REMARK   17  A    between atoms: C18_29  and  O7_31 
ROOT
HETATM    1  C6  UNL     1      49.126  47.898  68.680  1.00  0.00     0.178 C 
ENDROOT
BRANCH   1   2
HETATM    2  C5  UNL     1      47.940  47.227  68.098  1.00  0.00     0.152 C 
BRANCH   2   3
HETATM    3  C4  UNL     1      46.642  47.310  68.810  1.00  0.00     0.061 C 
BRANCH   3   4
HETATM    4  C3  UNL     1      45.859  48.527  68.779  1.00  0.00    -0.019 C 
HETATM    5  C2  UNL     1      45.659  49.316  69.851  1.00  0.00    -0.056 C 
HETATM    6  C1  UNL     1      46.260  48.946  71.149  1.00  0.00     0.046 C 
BRANCH   5   7
HETATM    7  C15 UNL     1      44.848  50.549  69.752  1.00  0.00     0.188 A 
HETATM    8  O6  UNL     1      45.044  51.579  70.649  1.00  0.00    -0.362 OA
HETATM    9  C16 UNL     1      45.455  51.832  69.361  1.00  0.00     0.113 A 
HETATM   10  C17 UNL     1      46.951  51.969  69.189  1.00  0.00     0.052 C 
BRANCH   9  11
HETATM   11  C18 UNL     1      44.654  52.733  68.470  1.00  0.00     0.151 C 
HETATM   12  C19 UNL     1      44.755  54.184  68.898  1.00  0.00     0.042 C 
BRANCH  11  13
HETATM   13  O7  UNL     1      45.119  52.659  67.158  1.00  0.00    -0.393 OA
ATOM     14  H7  UNL     1      45.803  53.301  67.011  1.00  0.00     0.210 HD
ENDBRANCH  11  13
ENDBRANCH   9  11
ENDBRANCH   5   7
ENDBRANCH   3   4
ENDBRANCH   2   3
BRANCH   2  15
HETATM   15  O1  UNL     1      48.298  45.805  68.163  1.00  0.00    -0.393 OA
ATOM     16  H1  UNL     1      49.243  45.806  68.265  1.00  0.00     0.210 HD
ENDBRANCH   2  15
ENDBRANCH   1   2
BRANCH   1  17
HETATM   17  O2  UNL     1      49.072  49.253  68.578  1.00  0.00    -0.390 OA
ATOM     18  H2  UNL     1      48.909  49.680  69.411  1.00  0.00     0.210 HD
ENDBRANCH   1  17
BRANCH   1  19
HETATM   19  C7  UNL     1      50.404  47.208  68.420  1.00  0.00     0.180 C 
BRANCH  19  20
HETATM   20  O3  UNL     1      50.732  47.226  67.081  1.00  0.00    -0.390 OA
ATOM     21  H3  UNL     1      51.652  47.419  66.946  1.00  0.00     0.210 HD
ENDBRANCH  19  20
BRANCH  19  22
HETATM   22  C8  UNL     1      51.583  47.815  69.145  1.00  0.00     0.178 C 
BRANCH  22  23
HETATM   23  O4  UNL     1      51.139  48.270  70.380  1.00  0.00    -0.390 OA
ATOM     24  H4  UNL     1      51.776  48.010  71.035  1.00  0.00     0.210 HD
ENDBRANCH  22  23
BRANCH  22  25
HETATM   25  C9  UNL     1      52.751  46.928  69.336  1.00  0.00     0.149 C 
BRANCH  25  26
HETATM   26  O5  UNL     1      52.346  45.634  68.922  1.00  0.00    -0.393 OA
ATOM     27  H5  UNL     1      52.382  45.631  67.973  1.00  0.00     0.210 HD
ENDBRANCH  25  26
BRANCH  25  28
HETATM   28  C10 UNL     1      53.200  46.789  70.762  1.00  0.00     0.035 C 
BRANCH  28  29
HETATM   29  C11 UNL     1      54.504  47.537  70.909  1.00  0.00     0.006 C 
BRANCH  29  30
HETATM   30  C12 UNL     1      55.249  47.142  72.158  1.00  0.00    -0.023 C 
HETATM   31  C13 UNL     1      54.887  48.065  73.316  1.00  0.00     0.009 C 
HETATM   32  C14 UNL     1      56.731  47.150  72.007  1.00  0.00     0.009 C 
ENDBRANCH  29  30
ENDBRANCH  28  29
ENDBRANCH  25  28
ENDBRANCH  22  25
ENDBRANCH  19  22
ENDBRANCH   1  19
TORSDOF 17
ENDMDL
MODEL 5
REMARK VINA RESULT: -5.242584858      2.710      4.342
REMARK  17 active torsions:
REMARK  status: ('A' for Active; 'I' for Inactive)
REMARK    1  A    between atoms: C2_2  and  C15_25 
REMARK    2  A    between atoms: C3_3  and  C4_4 
REMARK    3  A    between atoms: C4_4  and  C5_5 
REMARK    4  A    between atoms: C5_5  and  O1_6 
REMARK    5  A    between atoms: C5_5  and  C6_8 
REMARK    6  A    between atoms: C6_8  and  O2_9 
REMARK    7  A    between atoms: C6_8  and  C7_11 
REMARK    8  A    between atoms: C7_11  and  O3_12 
REMARK    9  A    between atoms: C7_11  and  C8_14 
REMARK   10  A    between atoms: C8_14  and  O4_15 
REMARK   11  A    between atoms: C8_14  and  C9_17 
REMARK   12  A    between atoms: C9_17  and  O5_18 
REMARK   13  A    between atoms: C9_17  and  C10_20 
REMARK   14  A    between atoms: C10_20  and  C11_21 
REMARK   15  A    between atoms: C11_21  and  C12_22 
REMARK   16  A    between atoms: C16_27  and  C18_29 
REMARK   17  A    between atoms: C18_29  and  O7_31 
ROOT
HETATM    1  C6  UNL     1      50.838  49.240  68.517  1.00  0.00     0.178 C 
ENDROOT
BRANCH   1   2
HETATM    2  C5  UNL     1      50.053  49.942  69.560  1.00  0.00     0.152 C 
BRANCH   2   3
HETATM    3  C4  UNL     1      48.593  50.123  69.365  1.00  0.00     0.061 C 
BRANCH   3   4
HETATM    4  C3  UNL     1      47.651  49.631  70.347  1.00  0.00    -0.019 C 
HETATM    5  C2  UNL     1      46.526  48.961  70.036  1.00  0.00    -0.056 C 
HETATM    6  C1  UNL     1      46.207  48.695  68.619  1.00  0.00     0.046 C 
BRANCH   5   7
HETATM    7  C15 UNL     1      45.604  48.483  71.090  1.00  0.00     0.188 A 
HETATM    8  O6  UNL     1      45.534  49.144  72.298  1.00  0.00    -0.362 OA
HETATM    9  C16 UNL     1      44.429  49.273  71.490  1.00  0.00     0.113 A 
HETATM   10  C17 UNL     1      44.200  50.666  70.947  1.00  0.00     0.052 C 
BRANCH   9  11
HETATM   11  C18 UNL     1      43.166  48.527  71.802  1.00  0.00     0.151 C 
HETATM   12  C19 UNL     1      42.473  49.079  73.032  1.00  0.00     0.042 C 
BRANCH  11  13
HETATM   13  O7  UNL     1      42.266  48.629  70.743  1.00  0.00    -0.393 OA
ATOM     14  H7  UNL     1      41.733  47.845  70.682  1.00  0.00     0.210 HD
ENDBRANCH  11  13
ENDBRANCH   9  11
ENDBRANCH   5   7
ENDBRANCH   3   4
ENDBRANCH   2   3
BRANCH   2  15
HETATM   15  O1  UNL     1      50.594  51.306  69.521  1.00  0.00    -0.393 OA
ATOM     16  H1  UNL     1      51.533  51.183  69.441  1.00  0.00     0.210 HD
ENDBRANCH   2  15
ENDBRANCH   1   2
BRANCH   1  17
HETATM   17  O2  UNL     1      50.865  49.910  67.334  1.00  0.00    -0.390 OA
ATOM     18  H2  UNL     1      50.147  49.673  66.759  1.00  0.00     0.210 HD
ENDBRANCH   1  17
BRANCH   1  19
HETATM   19  C7  UNL     1      50.668  47.775  68.510  1.00  0.00     0.180 C 
BRANCH  19  20
HETATM   20  O3  UNL     1      50.824  47.248  67.247  1.00  0.00    -0.390 OA
ATOM     21  H3  UNL     1      50.021  46.853  66.927  1.00  0.00     0.210 HD
ENDBRANCH  19  20
BRANCH  19  22
HETATM   22  C8  UNL     1      51.654  47.043  69.391  1.00  0.00     0.178 C 
BRANCH  22  23
HETATM   23  O4  UNL     1      51.995  45.854  68.757  1.00  0.00    -0.390 OA
ATOM     24  H4  UNL     1      51.204  45.337  68.658  1.00  0.00     0.210 HD
ENDBRANCH  22  23
BRANCH  22  25
HETATM   25  C9  UNL     1      52.884  47.786  69.742  1.00  0.00     0.149 C 
BRANCH  25  26
HETATM   26  O5  UNL     1      53.933  47.209  68.982  1.00  0.00    -0.393 OA
ATOM     27  H5  UNL     1      53.670  47.267  68.071  1.00  0.00     0.210 HD
ENDBRANCH  25  26
BRANCH  25  28
HETATM   28  C10 UNL     1      53.295  47.664  71.181  1.00  0.00     0.035 C 
BRANCH  28  29
HETATM   29  C11 UNL     1      54.608  46.918  71.223  1.00  0.00     0.006 C 
BRANCH  29  30
HETATM   30  C12 UNL     1      55.555  47.490  72.247  1.00  0.00    -0.023 C 
HETATM   31  C13 UNL     1      56.467  46.402  72.804  1.00  0.00     0.009 C 
HETATM   32  C14 UNL     1      54.876  48.156  73.394  1.00  0.00     0.009 C 
ENDBRANCH  29  30
ENDBRANCH  28  29
ENDBRANCH  25  28
ENDBRANCH  22  25
ENDBRANCH  19  22
ENDBRANCH   1  19
TORSDOF 17
ENDMDL
