MODEL 1
REMARK VINA RESULT: -6.609570079      0.000      0.000
REMARK  8 active torsions:
REMARK  status: ('A' for Active; 'I' for Inactive)
REMARK    1  A    between atoms: N1_1  and  N2_4 
REMARK    2  A    between atoms: C1_6  and  C2_7 
REMARK    3  A    between atoms: C1_6  and  N7_17 
REMARK    4  A    between atoms: C2_7  and  N3_8 
REMARK       I    between atoms: C3_10  and  N5_12 
REMARK    5  A    between atoms: N5_12  and  N6_14 
REMARK    6  A    between atoms: N7_17  and  C4_19 
REMARK    7  A    between atoms: C4_19  and  C5_20 
REMARK    8  A    between atoms: C5_20  and  N8_21 
ROOT
HETATM    1  N2  UNL     1     -32.142  59.650  72.647  1.00  0.00    -0.294 N 
ATOM      2  H2  UNL     1     -32.184  59.412  71.656  1.00  0.00     0.187 HD
HETATM    3  C1  UNL     1     -33.137  59.313  73.385  1.00  0.00     0.109 C 
ENDROOT
BRANCH   3   4
HETATM    4  C2  UNL     1     -34.278  58.598  72.739  1.00  0.00     0.199 C 
BRANCH   4   5
HETATM    5  N3  UNL     1     -35.434  59.441  72.741  1.00  0.00    -0.356 N 
HETATM    6  C3  UNL     1     -36.548  59.055  73.259  1.00  0.00     0.202 C 
HETATM    7  N4  UNL     1     -37.629  59.959  73.212  1.00  0.00    -0.062 NA
HETATM    8  N5  UNL     1     -36.631  57.768  73.839  1.00  0.00    -0.280 N 
ATOM      9  H5  UNL     1     -36.084  57.546  74.671  1.00  0.00     0.189 HD
ATOM     10  H3  UNL     1     -35.375  60.369  72.322  1.00  0.00     0.162 HD
BRANCH   8  11
HETATM   11  N6  UNL     1     -37.470  56.793  73.267  1.00  0.00    -0.343 N 
ATOM     12  H62 UNL     1     -38.385  57.072  72.914  1.00  0.00     0.176 HD
ATOM     13  H61 UNL     1     -37.158  55.823  73.211  1.00  0.00     0.176 HD
ENDBRANCH   8  11
ENDBRANCH   4   5
ENDBRANCH   3   4
BRANCH   3  14
HETATM   14  N7  UNL     1     -33.243  59.567  74.768  1.00  0.00    -0.376 N 
ATOM     15  H7  UNL     1     -33.139  60.518  75.122  1.00  0.00     0.160 HD
BRANCH  14  16
HETATM   16  C4  UNL     1     -33.499  58.487  75.678  1.00  0.00     0.141 C 
BRANCH  16  17
HETATM   17  C5  UNL     1     -32.285  58.098  76.498  1.00  0.00     0.157 C 
BRANCH  17  18
HETATM   18  N8  UNL     1     -31.891  56.748  76.072  1.00  0.00    -0.265 N 
HETATM   19  C6  UNL     1     -32.336  55.734  76.838  1.00  0.00     0.254 A 
HETATM   20  O1  UNL     1     -33.052  55.946  77.859  1.00  0.00    -0.268 OA
HETATM   21  C7  UNL     1     -31.992  54.456  76.479  1.00  0.00     0.119 A 
HETATM   22  C8  UNL     1     -31.214  54.254  75.367  1.00  0.00     0.125 A 
HETATM   23  N9  UNL     1     -30.838  52.914  74.971  1.00  0.00    -0.082 NA
HETATM   24  N10 UNL     1     -30.800  55.307  74.640  1.00  0.00    -0.296 N 
HETATM   25  C9  UNL     1     -31.131  56.561  74.981  1.00  0.00     0.330 A 
ATOM     26  H10 UNL     1     -30.222  55.149  73.814  1.00  0.00     0.171 HD
HETATM   27  O2  UNL     1     -30.729  57.520  74.283  1.00  0.00    -0.246 OA
ENDBRANCH  17  18
ENDBRANCH  16  17
ENDBRANCH  14  16
ENDBRANCH   3  14
BRANCH   1  28
HETATM   28  N1  UNL     1     -31.019  60.314  73.104  1.00  0.00    -0.344 N 
ATOM     29  H12 UNL     1     -31.039  60.635  74.071  1.00  0.00     0.176 HD
ATOM     30  H11 UNL     1     -30.188  60.498  72.542  1.00  0.00     0.176 HD
ENDBRANCH   1  28
TORSDOF 8
ENDMDL
MODEL 2
REMARK VINA RESULT: -6.396501481      2.379      3.812
REMARK  8 active torsions:
REMARK  status: ('A' for Active; 'I' for Inactive)
REMARK    1  A    between atoms: N1_1  and  N2_4 
REMARK    2  A    between atoms: C1_6  and  C2_7 
REMARK    3  A    between atoms: C1_6  and  N7_17 
REMARK    4  A    between atoms: C2_7  and  N3_8 
REMARK       I    between atoms: C3_10  and  N5_12 
REMARK    5  A    between atoms: N5_12  and  N6_14 
REMARK    6  A    between atoms: N7_17  and  C4_19 
REMARK    7  A    between atoms: C4_19  and  C5_20 
REMARK    8  A    between atoms: C5_20  and  N8_21 
ROOT
HETATM    1  N2  UNL     1     -36.974  58.640  74.608  1.00  0.00    -0.294 N 
ATOM      2  H2  UNL     1     -37.536  59.335  75.101  1.00  0.00     0.187 HD
HETATM    3  C1  UNL     1     -35.742  58.518  74.946  1.00  0.00     0.109 C 
ENDROOT
BRANCH   3   4
HETATM    4  C2  UNL     1     -35.223  59.401  76.033  1.00  0.00     0.199 C 
BRANCH   4   5
HETATM    5  N3  UNL     1     -35.951  59.153  77.240  1.00  0.00    -0.356 N 
HETATM    6  C3  UNL     1     -35.451  58.450  78.196  1.00  0.00     0.202 C 
HETATM    7  N4  UNL     1     -36.247  58.264  79.344  1.00  0.00    -0.062 NA
HETATM    8  N5  UNL     1     -34.151  57.910  78.050  1.00  0.00    -0.280 N 
ATOM      9  H5  UNL     1     -33.344  58.531  77.987  1.00  0.00     0.189 HD
ATOM     10  H3  UNL     1     -36.888  59.542  77.345  1.00  0.00     0.162 HD
BRANCH   8  11
HETATM   11  N6  UNL     1     -33.974  56.515  77.992  1.00  0.00    -0.343 N 
ATOM     12  H62 UNL     1     -34.339  55.938  78.749  1.00  0.00     0.176 HD
ATOM     13  H61 UNL     1     -33.484  56.097  77.201  1.00  0.00     0.176 HD
ENDBRANCH   8  11
ENDBRANCH   4   5
ENDBRANCH   3   4
BRANCH   3  14
HETATM   14  N7  UNL     1     -34.828  57.613  74.367  1.00  0.00    -0.376 N 
ATOM     15  H7  UNL     1     -34.709  56.682  74.767  1.00  0.00     0.160 HD
BRANCH  14  16
HETATM   16  C4  UNL     1     -34.065  58.002  73.215  1.00  0.00     0.141 C 
BRANCH  16  17
HETATM   17  C5  UNL     1     -32.585  58.155  73.503  1.00  0.00     0.157 C 
BRANCH  17  18
HETATM   18  N8  UNL     1     -32.079  56.827  73.876  1.00  0.00    -0.265 N 
HETATM   19  C6  UNL     1     -31.871  56.623  75.191  1.00  0.00     0.254 A 
HETATM   20  O1  UNL     1     -32.104  57.529  76.042  1.00  0.00    -0.268 OA
HETATM   21  C7  UNL     1     -31.397  55.398  75.586  1.00  0.00     0.119 A 
HETATM   22  C8  UNL     1     -31.152  54.433  74.642  1.00  0.00     0.125 A 
HETATM   23  N9  UNL     1     -30.651  53.134  75.036  1.00  0.00    -0.082 NA
HETATM   24  N10 UNL     1     -31.380  54.695  73.342  1.00  0.00    -0.296 N 
HETATM   25  C9  UNL     1     -31.844  55.889  72.944  1.00  0.00     0.330 A 
ATOM     26  H10 UNL     1     -31.197  53.972  72.646  1.00  0.00     0.171 HD
HETATM   27  O2  UNL     1     -32.046  56.101  71.727  1.00  0.00    -0.246 OA
ENDBRANCH  17  18
ENDBRANCH  16  17
ENDBRANCH  14  16
ENDBRANCH   3  14
BRANCH   1  28
HETATM   28  N1  UNL     1     -37.592  57.894  73.622  1.00  0.00    -0.344 N 
ATOM     29  H12 UNL     1     -37.022  57.187  73.157  1.00  0.00     0.176 HD
ATOM     30  H11 UNL     1     -38.566  58.005  73.338  1.00  0.00     0.176 HD
ENDBRANCH   1  28
TORSDOF 8
ENDMDL
MODEL 3
REMARK VINA RESULT: -6.289022305      2.075      5.749
REMARK  8 active torsions:
REMARK  status: ('A' for Active; 'I' for Inactive)
REMARK    1  A    between atoms: N1_1  and  N2_4 
REMARK    2  A    between atoms: C1_6  and  C2_7 
REMARK    3  A    between atoms: C1_6  and  N7_17 
REMARK    4  A    between atoms: C2_7  and  N3_8 
REMARK       I    between atoms: C3_10  and  N5_12 
REMARK    5  A    between atoms: N5_12  and  N6_14 
REMARK    6  A    between atoms: N7_17  and  C4_19 
REMARK    7  A    between atoms: C4_19  and  C5_20 
REMARK    8  A    between atoms: C5_20  and  N8_21 
ROOT
HETATM    1  N2  UNL     1     -30.671  57.514  74.887  1.00  0.00    -0.294 N 
ATOM      2  H2  UNL     1     -30.314  56.873  74.178  1.00  0.00     0.187 HD
HETATM    3  C1  UNL     1     -31.412  57.028  75.815  1.00  0.00     0.109 C 
ENDROOT
BRANCH   3   4
HETATM    4  C2  UNL     1     -31.697  55.562  75.788  1.00  0.00     0.199 C 
BRANCH   4   5
HETATM    5  N3  UNL     1     -30.957  54.949  74.727  1.00  0.00    -0.356 N 
HETATM    6  C3  UNL     1     -31.541  54.262  73.807  1.00  0.00     0.202 C 
HETATM    7  N4  UNL     1     -30.724  53.700  72.806  1.00  0.00    -0.062 NA
HETATM    8  N5  UNL     1     -32.946  54.109  73.847  1.00  0.00    -0.280 N 
ATOM      9  H5  UNL     1     -33.553  54.920  73.726  1.00  0.00     0.189 HD
ATOM     10  H3  UNL     1     -29.943  55.060  74.699  1.00  0.00     0.162 HD
BRANCH   8  11
HETATM   11  N6  UNL     1     -33.508  52.834  74.053  1.00  0.00    -0.343 N 
ATOM     12  H62 UNL     1     -34.394  52.605  73.603  1.00  0.00     0.176 HD
ATOM     13  H61 UNL     1     -33.028  52.157  74.646  1.00  0.00     0.176 HD
ENDBRANCH   8  11
ENDBRANCH   4   5
ENDBRANCH   3   4
BRANCH   3  14
HETATM   14  N7  UNL     1     -31.988  57.771  76.867  1.00  0.00    -0.376 N 
ATOM     15  H7  UNL     1     -31.391  58.216  77.564  1.00  0.00     0.160 HD
BRANCH  14  16
HETATM   16  C4  UNL     1     -33.415  57.901  76.956  1.00  0.00     0.141 C 
BRANCH  16  17
HETATM   17  C5  UNL     1     -33.900  59.318  76.725  1.00  0.00     0.157 C 
BRANCH  17  18
HETATM   18  N8  UNL     1     -34.852  59.271  75.608  1.00  0.00    -0.265 N 
HETATM   19  C6  UNL     1     -34.319  59.362  74.374  1.00  0.00     0.254 A 
HETATM   20  O1  UNL     1     -33.071  59.476  74.204  1.00  0.00    -0.268 OA
HETATM   21  C7  UNL     1     -35.171  59.324  73.300  1.00  0.00     0.119 A 
HETATM   22  C8  UNL     1     -36.521  59.199  73.513  1.00  0.00     0.125 A 
HETATM   23  N9  UNL     1     -37.437  59.159  72.394  1.00  0.00    -0.082 NA
HETATM   24  N10 UNL     1     -36.995  59.113  74.769  1.00  0.00    -0.296 N 
HETATM   25  C9  UNL     1     -36.172  59.148  75.827  1.00  0.00     0.330 A 
ATOM     26  H10 UNL     1     -37.999  59.019  74.919  1.00  0.00     0.171 HD
HETATM   27  O2  UNL     1     -36.645  59.065  76.983  1.00  0.00    -0.246 OA
ENDBRANCH  17  18
ENDBRANCH  16  17
ENDBRANCH  14  16
ENDBRANCH   3  14
BRANCH   1  28
HETATM   28  N1  UNL     1     -30.322  58.848  74.784  1.00  0.00    -0.344 N 
ATOM     29  H12 UNL     1     -29.711  59.220  75.511  1.00  0.00     0.176 HD
ATOM     30  H11 UNL     1     -30.633  59.470  74.037  1.00  0.00     0.176 HD
ENDBRANCH   1  28
TORSDOF 8
ENDMDL
MODEL 4
REMARK VINA RESULT: -6.243381838      1.770      2.633
REMARK  8 active torsions:
REMARK  status: ('A' for Active; 'I' for Inactive)
REMARK    1  A    between atoms: N1_1  and  N2_4 
REMARK    2  A    between atoms: C1_6  and  C2_7 
REMARK    3  A    between atoms: C1_6  and  N7_17 
REMARK    4  A    between atoms: C2_7  and  N3_8 
REMARK       I    between atoms: C3_10  and  N5_12 
REMARK    5  A    between atoms: N5_12  and  N6_14 
REMARK    6  A    between atoms: N7_17  and  C4_19 
REMARK    7  A    between atoms: C4_19  and  C5_20 
REMARK    8  A    between atoms: C5_20  and  N8_21 
ROOT
HETATM    1  N2  UNL     1     -35.652  59.743  78.246  1.00  0.00    -0.294 N 
ATOM      2  H2  UNL     1     -36.578  59.568  78.637  1.00  0.00     0.187 HD
HETATM    3  C1  UNL     1     -35.434  59.373  77.036  1.00  0.00     0.109 C 
ENDROOT
BRANCH   3   4
HETATM    4  C2  UNL     1     -36.550  58.716  76.292  1.00  0.00     0.199 C 
BRANCH   4   5
HETATM    5  N3  UNL     1     -36.932  59.534  75.182  1.00  0.00    -0.356 N 
HETATM    6  C3  UNL     1     -37.026  59.052  73.992  1.00  0.00     0.202 C 
HETATM    7  N4  UNL     1     -37.411  59.940  72.966  1.00  0.00    -0.062 NA
HETATM    8  N5  UNL     1     -36.744  57.683  73.776  1.00  0.00    -0.280 N 
ATOM      9  H5  UNL     1     -37.341  56.967  74.190  1.00  0.00     0.189 HD
ATOM     10  H3  UNL     1     -37.135  60.521  75.338  1.00  0.00     0.162 HD
BRANCH   8  11
HETATM   11  N6  UNL     1     -35.639  57.310  72.988  1.00  0.00    -0.343 N 
ATOM     12  H62 UNL     1     -35.800  56.805  72.117  1.00  0.00     0.176 HD
ATOM     13  H61 UNL     1     -34.694  57.545  73.293  1.00  0.00     0.176 HD
ENDBRANCH   8  11
ENDBRANCH   4   5
ENDBRANCH   3   4
BRANCH   3  14
HETATM   14  N7  UNL     1     -34.214  59.535  76.346  1.00  0.00    -0.376 N 
ATOM     15  H7  UNL     1     -33.797  60.461  76.257  1.00  0.00     0.160 HD
BRANCH  14  16
HETATM   16  C4  UNL     1     -33.560  58.394  75.769  1.00  0.00     0.141 C 
BRANCH  16  17
HETATM   17  C5  UNL     1     -32.259  58.040  76.462  1.00  0.00     0.157 C 
BRANCH  17  18
HETATM   18  N8  UNL     1     -31.887  56.691  76.015  1.00  0.00    -0.265 N 
HETATM   19  C6  UNL     1     -32.262  55.679  76.820  1.00  0.00     0.254 A 
HETATM   20  O1  UNL     1     -32.899  55.892  77.892  1.00  0.00    -0.268 OA
HETATM   21  C7  UNL     1     -31.935  54.401  76.444  1.00  0.00     0.119 A 
HETATM   22  C8  UNL     1     -31.244  54.197  75.276  1.00  0.00     0.125 A 
HETATM   23  N9  UNL     1     -30.887  52.858  74.861  1.00  0.00    -0.082 NA
HETATM   24  N10 UNL     1     -30.896  55.249  74.512  1.00  0.00    -0.296 N 
HETATM   25  C9  UNL     1     -31.211  56.503  74.870  1.00  0.00     0.330 A 
ATOM     26  H10 UNL     1     -30.383  55.089  73.645  1.00  0.00     0.171 HD
HETATM   27  O2  UNL     1     -30.873  57.459  74.136  1.00  0.00    -0.246 OA
ENDBRANCH  17  18
ENDBRANCH  16  17
ENDBRANCH  14  16
ENDBRANCH   3  14
BRANCH   1  28
HETATM   28  N1  UNL     1     -34.717  60.362  79.055  1.00  0.00    -0.344 N 
ATOM     29  H12 UNL     1     -33.750  60.055  78.955  1.00  0.00     0.176 HD
ATOM     30  H11 UNL     1     -34.933  61.094  79.732  1.00  0.00     0.176 HD
ENDBRANCH   1  28
TORSDOF 8
ENDMDL
MODEL 5
REMARK VINA RESULT: -6.202389440      2.448      4.072
REMARK  8 active torsions:
REMARK  status: ('A' for Active; 'I' for Inactive)
REMARK    1  A    between atoms: N1_1  and  N2_4 
REMARK    2  A    between atoms: C1_6  and  C2_7 
REMARK    3  A    between atoms: C1_6  and  N7_17 
REMARK    4  A    between atoms: C2_7  and  N3_8 
REMARK       I    between atoms: C3_10  and  N5_12 
REMARK    5  A    between atoms: N5_12  and  N6_14 
REMARK    6  A    between atoms: N7_17  and  C4_19 
REMARK    7  A    between atoms: C4_19  and  C5_20 
REMARK    8  A    between atoms: C5_20  and  N8_21 
ROOT
HETATM    1  N2  UNL     1     -37.014  58.696  74.686  1.00  0.00    -0.294 N 
ATOM      2  H2  UNL     1     -37.620  59.377  75.144  1.00  0.00     0.187 HD
HETATM    3  C1  UNL     1     -35.789  58.636  75.065  1.00  0.00     0.109 C 
ENDROOT
BRANCH   3   4
HETATM    4  C2  UNL     1     -35.342  59.567  76.145  1.00  0.00     0.199 C 
BRANCH   4   5
HETATM    5  N3  UNL     1     -36.037  59.261  77.358  1.00  0.00    -0.356 N 
HETATM    6  C3  UNL     1     -35.502  58.533  78.275  1.00  0.00     0.202 C 
HETATM    7  N4  UNL     1     -36.268  58.290  79.434  1.00  0.00    -0.062 NA
HETATM    8  N5  UNL     1     -34.198  58.023  78.079  1.00  0.00    -0.280 N 
ATOM      9  H5  UNL     1     -33.403  58.660  78.021  1.00  0.00     0.189 HD
ATOM     10  H3  UNL     1     -36.978  59.629  77.499  1.00  0.00     0.162 HD
BRANCH   8  11
HETATM   11  N6  UNL     1     -33.997  56.634  77.965  1.00  0.00    -0.343 N 
ATOM     12  H62 UNL     1     -33.415  56.160  78.656  1.00  0.00     0.176 HD
ATOM     13  H61 UNL     1     -34.431  56.119  77.200  1.00  0.00     0.176 HD
ENDBRANCH   8  11
ENDBRANCH   4   5
ENDBRANCH   3   4
BRANCH   3  14
HETATM   14  N7  UNL     1     -34.819  57.758  74.537  1.00  0.00    -0.376 N 
ATOM     15  H7  UNL     1     -34.567  56.911  75.047  1.00  0.00     0.160 HD
BRANCH  14  16
HETATM   16  C4  UNL     1     -34.188  58.056  73.283  1.00  0.00     0.141 C 
BRANCH  16  17
HETATM   17  C5  UNL     1     -32.682  58.192  73.390  1.00  0.00     0.157 C 
BRANCH  17  18
HETATM   18  N8  UNL     1     -32.168  56.909  73.887  1.00  0.00    -0.265 N 
HETATM   19  C6  UNL     1     -32.045  55.929  72.972  1.00  0.00     0.254 A 
HETATM   20  O1  UNL     1     -32.354  56.117  71.760  1.00  0.00    -0.268 OA
HETATM   21  C7  UNL     1     -31.570  54.712  73.391  1.00  0.00     0.119 A 
HETATM   22  C8  UNL     1     -31.241  54.534  74.712  1.00  0.00     0.125 A 
HETATM   23  N9  UNL     1     -30.740  53.259  75.176  1.00  0.00    -0.082 NA
HETATM   24  N10 UNL     1     -31.386  55.552  75.580  1.00  0.00    -0.296 N 
HETATM   25  C9  UNL     1     -31.849  56.746  75.181  1.00  0.00     0.330 A 
ATOM     26  H10 UNL     1     -31.139  55.412  76.560  1.00  0.00     0.171 HD
HETATM   27  O2  UNL     1     -31.971  57.672  76.015  1.00  0.00    -0.246 OA
ENDBRANCH  17  18
ENDBRANCH  16  17
ENDBRANCH  14  16
ENDBRANCH   3  14
BRANCH   1  28
HETATM   28  N1  UNL     1     -37.568  57.900  73.701  1.00  0.00    -0.344 N 
ATOM     29  H12 UNL     1     -38.384  57.347  73.964  1.00  0.00     0.176 HD
ATOM     30  H11 UNL     1     -37.217  57.834  72.746  1.00  0.00     0.176 HD
ENDBRANCH   1  28
TORSDOF 8
ENDMDL
