MODEL 1
REMARK VINA RESULT: -6.976281907      0.000      0.000
REMARK  9 active torsions:
REMARK  status: ('A' for Active; 'I' for Inactive)
REMARK       I    between atoms: C1_4  and  N3_6 
REMARK    1  A    between atoms: N3_6  and  C2_8 
REMARK    2  A    between atoms: C5_17  and  N6_18 
REMARK    3  A    between atoms: N6_18  and  C6_20 
REMARK    4  A    between atoms: C6_20  and  C7_21 
REMARK    5  A    between atoms: C7_21  and  O3_22 
REMARK    6  A    between atoms: O3_22  and  N7_23 
REMARK    7  A    between atoms: N7_23  and  C8_24 
REMARK    8  A    between atoms: C8_24  and  C9_25 
REMARK    9  A    between atoms: C9_25  and  O4_26 
ROOT
HETATM    1  C2  UNL     1     -33.771  59.395  76.233  1.00  0.00     0.690 C 
HETATM    2  N4  UNL     1     -33.806  59.718  74.937  1.00  0.00    -0.141 N 
ATOM      3  H4  UNL     1     -34.542  60.359  74.640  1.00  0.00     0.189 HD
HETATM    4  C3  UNL     1     -32.959  59.276  73.988  1.00  0.00     0.341 C 
HETATM    5  O1  UNL     1     -33.236  59.683  72.847  1.00  0.00    -0.246 OA
HETATM    6  N5  UNL     1     -31.878  58.480  74.054  1.00  0.00    -0.272 N 
ATOM      7  H5  UNL     1     -31.441  58.218  73.171  1.00  0.00     0.174 HD
HETATM    8  C4  UNL     1     -31.313  57.992  75.191  1.00  0.00     0.293 C 
HETATM    9  O2  UNL     1     -30.097  57.691  75.097  1.00  0.00    -0.264 OA
HETATM   10  C5  UNL     1     -31.928  57.799  76.417  1.00  0.00     0.185 C 
HETATM   11  N8  UNL     1     -32.935  58.573  76.898  1.00  0.00    -0.171 N 
ATOM     12  H8  UNL     1     -33.078  58.526  77.907  1.00  0.00     0.186 HD
ENDROOT
BRANCH  10  13
HETATM   13  N6  UNL     1     -31.531  56.843  77.130  1.00  0.00    -0.369 N 
ATOM     14  H6  UNL     1     -30.657  57.016  77.627  1.00  0.00     0.161 HD
BRANCH  13  15
HETATM   15  C6  UNL     1     -32.103  55.560  77.359  1.00  0.00     0.149 C 
BRANCH  15  16
HETATM   16  C7  UNL     1     -32.061  54.794  76.023  1.00  0.00     0.215 C 
BRANCH  16  17
HETATM   17  O3  UNL     1     -31.280  53.680  76.173  1.00  0.00    -0.285 OA
BRANCH  17  18
HETATM   18  N7  UNL     1     -30.617  53.382  75.073  1.00  0.00    -0.099 NA
BRANCH  18  19
HETATM   19  C8  UNL     1     -31.287  53.850  73.907  1.00  0.00     0.168 C 
BRANCH  19  20
HETATM   20  C9  UNL     1     -31.703  52.615  73.107  1.00  0.00     0.182 C 
BRANCH  20  21
HETATM   21  O4  UNL     1     -31.684  51.507  73.941  1.00  0.00    -0.400 OA
ATOM     22  H4  UNL     1     -32.503  51.035  73.847  1.00  0.00     0.209 HD
ENDBRANCH  20  21
ENDBRANCH  19  20
ENDBRANCH  18  19
ENDBRANCH  17  18
ENDBRANCH  16  17
ENDBRANCH  15  16
ENDBRANCH  13  15
ENDBRANCH  10  13
BRANCH   1  23
HETATM   23  N3  UNL     1     -34.660  59.939  76.958  1.00  0.00    -0.163 N 
HETATM   24  C1  UNL     1     -35.922  59.412  77.260  1.00  0.00     0.200 C 
HETATM   25  N1  UNL     1     -36.973  59.567  76.528  1.00  0.00    -0.373 N 
HETATM   26  N2  UNL     1     -36.074  58.654  78.449  1.00  0.00    -0.063 NA
ATOM     27  H12 UNL     1     -37.891  59.183  76.747  1.00  0.00     0.158 HD
ATOM     28  H11 UNL     1     -36.863  60.113  75.672  1.00  0.00     0.158 HD
ATOM     29  H3  UNL     1     -34.433  60.849  77.360  1.00  0.00     0.187 HD
ENDBRANCH   1  23
TORSDOF 9
ENDMDL
MODEL 2
REMARK VINA RESULT: -6.883407007      2.748      4.638
REMARK  9 active torsions:
REMARK  status: ('A' for Active; 'I' for Inactive)
REMARK       I    between atoms: C1_4  and  N3_6 
REMARK    1  A    between atoms: N3_6  and  C2_8 
REMARK    2  A    between atoms: C5_17  and  N6_18 
REMARK    3  A    between atoms: N6_18  and  C6_20 
REMARK    4  A    between atoms: C6_20  and  C7_21 
REMARK    5  A    between atoms: C7_21  and  O3_22 
REMARK    6  A    between atoms: O3_22  and  N7_23 
REMARK    7  A    between atoms: N7_23  and  C8_24 
REMARK    8  A    between atoms: C8_24  and  C9_25 
REMARK    9  A    between atoms: C9_25  and  O4_26 
ROOT
HETATM    1  C2  UNL     1     -33.522  58.512  76.577  1.00  0.00     0.690 C 
HETATM    2  N4  UNL     1     -33.450  57.397  77.309  1.00  0.00    -0.141 N 
ATOM      3  H4  UNL     1     -34.067  57.333  78.118  1.00  0.00     0.189 HD
HETATM    4  C3  UNL     1     -32.636  56.349  77.076  1.00  0.00     0.341 C 
HETATM    5  O1  UNL     1     -32.720  55.454  77.935  1.00  0.00    -0.246 OA
HETATM    6  N5  UNL     1     -31.756  56.101  76.090  1.00  0.00    -0.272 N 
ATOM      7  H5  UNL     1     -31.187  55.260  76.178  1.00  0.00     0.174 HD
HETATM    8  C4  UNL     1     -31.554  56.870  74.987  1.00  0.00     0.293 C 
HETATM    9  O2  UNL     1     -31.076  56.267  73.995  1.00  0.00    -0.264 OA
HETATM   10  C5  UNL     1     -31.818  58.223  74.848  1.00  0.00     0.185 C 
HETATM   11  N8  UNL     1     -32.829  58.874  75.479  1.00  0.00    -0.171 N 
ATOM     12  H8  UNL     1     -33.103  59.764  75.063  1.00  0.00     0.186 HD
ENDROOT
BRANCH  10  13
HETATM   13  N6  UNL     1     -31.072  58.893  74.090  1.00  0.00    -0.369 N 
ATOM     14  H6  UNL     1     -30.094  58.600  74.086  1.00  0.00     0.161 HD
BRANCH  13  15
HETATM   15  C6  UNL     1     -31.369  59.993  73.238  1.00  0.00     0.149 C 
BRANCH  15  16
HETATM   16  C7  UNL     1     -31.508  59.440  71.807  1.00  0.00     0.215 C 
BRANCH  16  17
HETATM   17  O3  UNL     1     -30.547  58.488  71.601  1.00  0.00    -0.285 OA
BRANCH  17  18
HETATM   18  N7  UNL     1     -30.718  57.842  70.464  1.00  0.00    -0.099 NA
BRANCH  18  19
HETATM   19  C8  UNL     1     -30.481  58.680  69.339  1.00  0.00     0.168 C 
BRANCH  19  20
HETATM   20  C9  UNL     1     -29.030  58.453  68.912  1.00  0.00     0.182 C 
BRANCH  20  21
HETATM   21  O4  UNL     1     -28.214  58.516  70.032  1.00  0.00    -0.400 OA
ATOM     22  H4  UNL     1     -27.721  57.707  70.102  1.00  0.00     0.209 HD
ENDBRANCH  20  21
ENDBRANCH  19  20
ENDBRANCH  18  19
ENDBRANCH  17  18
ENDBRANCH  16  17
ENDBRANCH  15  16
ENDBRANCH  13  15
ENDBRANCH  10  13
BRANCH   1  23
HETATM   23  N3  UNL     1     -34.373  59.370  76.968  1.00  0.00    -0.163 N 
HETATM   24  C1  UNL     1     -35.727  59.134  77.234  1.00  0.00     0.200 C 
HETATM   25  N1  UNL     1     -36.664  59.176  76.348  1.00  0.00    -0.373 N 
HETATM   26  N2  UNL     1     -36.114  58.826  78.564  1.00  0.00    -0.063 NA
ATOM     27  H12 UNL     1     -37.650  59.004  76.542  1.00  0.00     0.158 HD
ATOM     28  H11 UNL     1     -36.386  59.398  75.392  1.00  0.00     0.158 HD
ATOM     29  H3  UNL     1     -34.037  60.324  77.101  1.00  0.00     0.187 HD
ENDBRANCH   1  23
TORSDOF 9
ENDMDL
MODEL 3
REMARK VINA RESULT: -6.816695323      2.692      5.219
REMARK  9 active torsions:
REMARK  status: ('A' for Active; 'I' for Inactive)
REMARK       I    between atoms: C1_4  and  N3_6 
REMARK    1  A    between atoms: N3_6  and  C2_8 
REMARK    2  A    between atoms: C5_17  and  N6_18 
REMARK    3  A    between atoms: N6_18  and  C6_20 
REMARK    4  A    between atoms: C6_20  and  C7_21 
REMARK    5  A    between atoms: C7_21  and  O3_22 
REMARK    6  A    between atoms: O3_22  and  N7_23 
REMARK    7  A    between atoms: N7_23  and  C8_24 
REMARK    8  A    between atoms: C8_24  and  C9_25 
REMARK    9  A    between atoms: C9_25  and  O4_26 
ROOT
HETATM    1  C2  UNL     1     -33.542  58.416  76.620  1.00  0.00     0.690 C 
HETATM    2  N4  UNL     1     -34.231  58.847  77.681  1.00  0.00    -0.141 N 
ATOM      3  H4  UNL     1     -33.725  58.918  78.563  1.00  0.00     0.189 HD
HETATM    4  C3  UNL     1     -35.531  59.197  77.690  1.00  0.00     0.341 C 
HETATM    5  O1  UNL     1     -35.952  59.515  78.816  1.00  0.00    -0.246 OA
HETATM    6  N5  UNL     1     -36.447  59.263  76.708  1.00  0.00    -0.272 N 
ATOM      7  H5  UNL     1     -37.405  59.481  76.983  1.00  0.00     0.174 HD
HETATM    8  C4  UNL     1     -36.214  59.067  75.383  1.00  0.00     0.293 C 
HETATM    9  O2  UNL     1     -37.034  59.619  74.608  1.00  0.00    -0.264 OA
HETATM   10  C5  UNL     1     -35.185  58.335  74.813  1.00  0.00     0.185 C 
HETATM   11  N8  UNL     1     -33.945  58.212  75.350  1.00  0.00    -0.171 N 
ATOM     12  H8  UNL     1     -33.213  57.924  74.700  1.00  0.00     0.186 HD
ENDROOT
BRANCH  10  13
HETATM   13  N6  UNL     1     -35.415  57.745  73.726  1.00  0.00    -0.369 N 
ATOM     14  H6  UNL     1     -36.134  57.024  73.776  1.00  0.00     0.161 HD
BRANCH  13  15
HETATM   15  C6  UNL     1     -34.835  57.921  72.439  1.00  0.00     0.149 C 
BRANCH  15  16
HETATM   16  C7  UNL     1     -33.710  56.878  72.296  1.00  0.00     0.215 C 
BRANCH  16  17
HETATM   17  O3  UNL     1     -32.580  57.355  72.901  1.00  0.00    -0.285 OA
BRANCH  17  18
HETATM   18  N7  UNL     1     -31.593  57.537  72.046  1.00  0.00    -0.099 NA
BRANCH  18  19
HETATM   19  C8  UNL     1     -31.095  58.869  72.089  1.00  0.00     0.168 C 
BRANCH  19  20
HETATM   20  C9  UNL     1     -31.160  59.323  73.548  1.00  0.00     0.182 C 
BRANCH  20  21
HETATM   21  O4  UNL     1     -30.224  58.613  74.285  1.00  0.00    -0.400 OA
ATOM     22  H4  UNL     1     -30.581  57.759  74.499  1.00  0.00     0.209 HD
ENDBRANCH  20  21
ENDBRANCH  19  20
ENDBRANCH  18  19
ENDBRANCH  17  18
ENDBRANCH  16  17
ENDBRANCH  15  16
ENDBRANCH  13  15
ENDBRANCH  10  13
BRANCH   1  23
HETATM   23  N3  UNL     1     -32.317  58.153  76.832  1.00  0.00    -0.163 N 
HETATM   24  C1  UNL     1     -31.752  56.878  76.956  1.00  0.00     0.200 C 
HETATM   25  N1  UNL     1     -31.688  56.212  78.059  1.00  0.00    -0.373 N 
HETATM   26  N2  UNL     1     -31.207  56.262  75.801  1.00  0.00    -0.063 NA
ATOM     27  H12 UNL     1     -31.276  55.283  78.149  1.00  0.00     0.158 HD
ATOM     28  H11 UNL     1     -32.080  56.655  78.890  1.00  0.00     0.158 HD
ATOM     29  H3  UNL     1     -31.684  58.948  76.920  1.00  0.00     0.187 HD
ENDBRANCH   1  23
TORSDOF 9
ENDMDL
MODEL 4
REMARK VINA RESULT: -6.758430616      2.650      3.770
REMARK  9 active torsions:
REMARK  status: ('A' for Active; 'I' for Inactive)
REMARK       I    between atoms: C1_4  and  N3_6 
REMARK    1  A    between atoms: N3_6  and  C2_8 
REMARK    2  A    between atoms: C5_17  and  N6_18 
REMARK    3  A    between atoms: N6_18  and  C6_20 
REMARK    4  A    between atoms: C6_20  and  C7_21 
REMARK    5  A    between atoms: C7_21  and  O3_22 
REMARK    6  A    between atoms: O3_22  and  N7_23 
REMARK    7  A    between atoms: N7_23  and  C8_24 
REMARK    8  A    between atoms: C8_24  and  C9_25 
REMARK    9  A    between atoms: C9_25  and  O4_26 
ROOT
HETATM    1  C2  UNL     1     -36.318  59.046  75.466  1.00  0.00     0.690 C 
HETATM    2  N4  UNL     1     -36.354  59.645  76.659  1.00  0.00    -0.141 N 
ATOM      3  H4  UNL     1     -37.145  60.260  76.845  1.00  0.00     0.189 HD
HETATM    4  C3  UNL     1     -35.441  59.510  77.640  1.00  0.00     0.341 C 
HETATM    5  O1  UNL     1     -35.674  60.215  78.637  1.00  0.00    -0.246 OA
HETATM    6  N5  UNL     1     -34.332  58.755  77.732  1.00  0.00    -0.272 N 
ATOM      7  H5  UNL     1     -33.748  58.889  78.557  1.00  0.00     0.174 HD
HETATM    8  C4  UNL     1     -33.917  57.830  76.826  1.00  0.00     0.293 C 
HETATM    9  O2  UNL     1     -33.172  56.928  77.284  1.00  0.00    -0.264 OA
HETATM   10  C5  UNL     1     -34.227  57.780  75.477  1.00  0.00     0.185 C 
HETATM   11  N8  UNL     1     -35.401  58.205  74.946  1.00  0.00    -0.171 N 
ATOM     12  H8  UNL     1     -35.623  57.835  74.021  1.00  0.00     0.186 HD
ENDROOT
BRANCH  10  13
HETATM   13  N6  UNL     1     -33.363  57.313  74.692  1.00  0.00    -0.369 N 
ATOM     14  H6  UNL     1     -33.345  56.295  74.634  1.00  0.00     0.161 HD
BRANCH  13  15
HETATM   15  C6  UNL     1     -32.407  57.974  73.870  1.00  0.00     0.149 C 
BRANCH  15  16
HETATM   16  C7  UNL     1     -31.032  57.812  74.544  1.00  0.00     0.215 C 
BRANCH  16  17
HETATM   17  O3  UNL     1     -30.743  56.479  74.653  1.00  0.00    -0.285 OA
BRANCH  17  18
HETATM   18  N7  UNL     1     -31.135  55.794  73.597  1.00  0.00    -0.099 NA
BRANCH  18  19
HETATM   19  C8  UNL     1     -31.153  54.394  73.851  1.00  0.00     0.168 C 
BRANCH  19  20
HETATM   20  C9  UNL     1     -31.293  54.218  75.365  1.00  0.00     0.182 C 
BRANCH  20  21
HETATM   21  O4  UNL     1     -32.583  54.558  75.743  1.00  0.00    -0.400 OA
ATOM     22  H4  UNL     1     -32.702  54.348  76.662  1.00  0.00     0.209 HD
ENDBRANCH  20  21
ENDBRANCH  19  20
ENDBRANCH  18  19
ENDBRANCH  17  18
ENDBRANCH  16  17
ENDBRANCH  15  16
ENDBRANCH  13  15
ENDBRANCH  10  13
BRANCH   1  23
HETATM   23  N3  UNL     1     -37.293  59.304  74.693  1.00  0.00    -0.163 N 
HETATM   24  C1  UNL     1     -37.374  58.997  73.329  1.00  0.00     0.200 C 
HETATM   25  N1  UNL     1     -36.924  59.750  72.383  1.00  0.00    -0.373 N 
HETATM   26  N2  UNL     1     -37.990  57.779  72.944  1.00  0.00    -0.063 NA
ATOM     27  H12 UNL     1     -36.983  59.526  71.390  1.00  0.00     0.158 HD
ATOM     28  H11 UNL     1     -36.481  60.626  72.660  1.00  0.00     0.158 HD
ATOM     29  H3  UNL     1     -38.094  59.781  75.106  1.00  0.00     0.187 HD
ENDBRANCH   1  23
TORSDOF 9
ENDMDL
MODEL 5
REMARK VINA RESULT: -6.743436328      2.127      4.402
REMARK  9 active torsions:
REMARK  status: ('A' for Active; 'I' for Inactive)
REMARK       I    between atoms: C1_4  and  N3_6 
REMARK    1  A    between atoms: N3_6  and  C2_8 
REMARK    2  A    between atoms: C5_17  and  N6_18 
REMARK    3  A    between atoms: N6_18  and  C6_20 
REMARK    4  A    between atoms: C6_20  and  C7_21 
REMARK    5  A    between atoms: C7_21  and  O3_22 
REMARK    6  A    between atoms: O3_22  and  N7_23 
REMARK    7  A    between atoms: N7_23  and  C8_24 
REMARK    8  A    between atoms: C8_24  and  C9_25 
REMARK    9  A    between atoms: C9_25  and  O4_26 
ROOT
HETATM    1  C2  UNL     1     -33.520  58.399  76.527  1.00  0.00     0.690 C 
HETATM    2  N4  UNL     1     -33.575  57.351  77.353  1.00  0.00    -0.141 N 
ATOM      3  H4  UNL     1     -34.270  57.384  78.098  1.00  0.00     0.189 HD
HETATM    4  C3  UNL     1     -32.795  56.254  77.293  1.00  0.00     0.341 C 
HETATM    5  O1  UNL     1     -33.007  55.443  78.210  1.00  0.00    -0.246 OA
HETATM    6  N5  UNL     1     -31.837  55.885  76.425  1.00  0.00    -0.272 N 
ATOM      7  H5  UNL     1     -31.322  55.032  76.640  1.00  0.00     0.174 HD
HETATM    8  C4  UNL     1     -31.491  56.545  75.287  1.00  0.00     0.293 C 
HETATM    9  O2  UNL     1     -30.949  55.838  74.402  1.00  0.00    -0.264 OA
HETATM   10  C5  UNL     1     -31.672  57.890  75.010  1.00  0.00     0.185 C 
HETATM   11  N8  UNL     1     -32.706  58.635  75.479  1.00  0.00    -0.171 N 
ATOM     12  H8  UNL     1     -32.894  59.495  74.964  1.00  0.00     0.186 HD
ENDROOT
BRANCH  10  13
HETATM   13  N6  UNL     1     -30.823  58.460  74.279  1.00  0.00    -0.369 N 
ATOM     14  H6  UNL     1     -29.852  58.304  74.550  1.00  0.00     0.161 HD
BRANCH  13  15
HETATM   15  C6  UNL     1     -30.997  59.287  73.134  1.00  0.00     0.149 C 
BRANCH  15  16
HETATM   16  C7  UNL     1     -31.593  58.408  72.018  1.00  0.00     0.215 C 
BRANCH  16  17
HETATM   17  O3  UNL     1     -32.953  58.373  72.158  1.00  0.00    -0.285 OA
BRANCH  17  18
HETATM   18  N7  UNL     1     -33.447  59.531  72.548  1.00  0.00    -0.099 NA
BRANCH  18  19
HETATM   19  C8  UNL     1     -34.863  59.486  72.680  1.00  0.00     0.168 C 
BRANCH  19  20
HETATM   20  C9  UNL     1     -35.261  58.009  72.701  1.00  0.00     0.182 C 
BRANCH  20  21
HETATM   21  O4  UNL     1     -35.130  57.523  73.993  1.00  0.00    -0.400 OA
ATOM     22  H4  UNL     1     -35.876  56.971  74.195  1.00  0.00     0.209 HD
ENDBRANCH  20  21
ENDBRANCH  19  20
ENDBRANCH  18  19
ENDBRANCH  17  18
ENDBRANCH  16  17
ENDBRANCH  15  16
ENDBRANCH  13  15
ENDBRANCH  10  13
BRANCH   1  23
HETATM   23  N3  UNL     1     -34.361  59.323  76.757  1.00  0.00    -0.163 N 
HETATM   24  C1  UNL     1     -35.727  59.155  77.018  1.00  0.00     0.200 C 
HETATM   25  N1  UNL     1     -36.640  59.077  76.110  1.00  0.00    -0.373 N 
HETATM   26  N2  UNL     1     -36.154  59.063  78.367  1.00  0.00    -0.063 NA
ATOM     27  H12 UNL     1     -37.634  58.954  76.300  1.00  0.00     0.158 HD
ATOM     28  H11 UNL     1     -36.333  59.143  75.139  1.00  0.00     0.158 HD
ATOM     29  H3  UNL     1     -34.008  60.279  76.751  1.00  0.00     0.187 HD
ENDBRANCH   1  23
TORSDOF 9
ENDMDL
