MODEL 1
REMARK VINA RESULT: -6.818463879      0.000      0.000
REMARK  7 active torsions:
REMARK  status: ('A' for Active; 'I' for Inactive)
REMARK    1  A    between atoms: N1_1  and  C1_4 
REMARK       I    between atoms: N4_12  and  C4_13 
REMARK    2  A    between atoms: C4_13  and  C5_15 
REMARK    3  A    between atoms: C5_15  and  N5_16 
REMARK    4  A    between atoms: N5_16  and  C6_18 
REMARK    5  A    between atoms: C6_18  and  C7_19 
REMARK    6  A    between atoms: C7_19  and  O3_20 
REMARK    7  A    between atoms: O3_20  and  N6_21 
ROOT
HETATM    1  C1  UNL     1     -35.531  58.645  78.391  1.00  0.00     0.680 A 
HETATM    2  N2  UNL     1     -36.464  59.177  77.558  1.00  0.00    -0.154 N 
ATOM      3  H2  UNL     1     -37.359  59.476  77.945  1.00  0.00     0.187 HD
HETATM    4  C2  UNL     1     -36.245  59.321  76.245  1.00  0.00     0.291 A 
HETATM    5  O1  UNL     1     -37.139  59.818  75.511  1.00  0.00    -0.265 OA
HETATM    6  C3  UNL     1     -35.049  58.928  75.694  1.00  0.00     0.164 A 
HETATM    7  N3  UNL     1     -34.185  58.752  74.699  1.00  0.00    -0.281 N 
ATOM      8  H3  UNL     1     -34.235  58.950  73.700  1.00  0.00     0.188 HD
HETATM    9  N4  UNL     1     -33.244  58.232  75.455  1.00  0.00    -0.202 N 
HETATM   10  C4  UNL     1     -31.910  57.709  75.331  1.00  0.00     0.261 C 
HETATM   11  O2  UNL     1     -31.305  57.283  76.345  1.00  0.00    -0.269 OA
HETATM   12  C9  UNL     1     -34.074  58.382  76.517  1.00  0.00     0.179 A 
HETATM   13  N9  UNL     1     -34.370  58.271  77.823  1.00  0.00    -0.172 N 
ATOM     14  H9  UNL     1     -33.658  57.869  78.434  1.00  0.00     0.186 HD
ENDROOT
BRANCH  10  15
HETATM   15  C5  UNL     1     -31.341  57.715  73.984  1.00  0.00     0.219 C 
BRANCH  15  16
HETATM   16  N5  UNL     1     -30.626  58.907  73.708  1.00  0.00    -0.411 N 
ATOM     17  H5  UNL     1     -29.706  59.088  74.108  1.00  0.00     0.153 HD
BRANCH  16  18
HETATM   18  C6  UNL     1     -31.265  59.839  72.840  1.00  0.00     0.143 C 
BRANCH  18  19
HETATM   19  C7  UNL     1     -31.437  59.273  71.428  1.00  0.00     0.220 C 
BRANCH  19  20
HETATM   20  O3  UNL     1     -30.246  58.723  70.994  1.00  0.00    -0.277 OA
BRANCH  20  21
HETATM   21  N6  UNL     1     -29.602  58.808  69.832  1.00  0.00    -0.241 N 
HETATM   22  C8  UNL     1     -29.464  57.863  69.008  1.00  0.00     0.221 C 
HETATM   23  N7  UNL     1     -28.754  58.023  67.763  1.00  0.00    -0.065 NA
HETATM   24  N8  UNL     1     -29.983  56.560  69.220  1.00  0.00    -0.065 NA
ATOM     25  H6  UNL     1     -29.188  59.707  69.589  1.00  0.00     0.196 HD
ENDBRANCH  20  21
ENDBRANCH  19  20
ENDBRANCH  18  19
ENDBRANCH  16  18
ENDBRANCH  15  16
ENDBRANCH  10  15
BRANCH   1  26
HETATM   26  N1  UNL     1     -35.750  58.516  79.656  1.00  0.00    -0.234 N 
ATOM     27  H12 UNL     1     -36.019  59.305  80.243  1.00  0.00     0.174 HD
ATOM     28  H11 UNL     1     -35.665  57.613  80.122  1.00  0.00     0.174 HD
ENDBRANCH   1  26
TORSDOF 7
ENDMDL
MODEL 2
REMARK VINA RESULT: -6.802229776      2.313      4.373
REMARK  7 active torsions:
REMARK  status: ('A' for Active; 'I' for Inactive)
REMARK    1  A    between atoms: N1_1  and  C1_4 
REMARK       I    between atoms: N4_12  and  C4_13 
REMARK    2  A    between atoms: C4_13  and  C5_15 
REMARK    3  A    between atoms: C5_15  and  N5_16 
REMARK    4  A    between atoms: N5_16  and  C6_18 
REMARK    5  A    between atoms: C6_18  and  C7_19 
REMARK    6  A    between atoms: C7_19  and  O3_20 
REMARK    7  A    between atoms: O3_20  and  N6_21 
ROOT
HETATM    1  C1  UNL     1     -33.343  56.886  77.411  1.00  0.00     0.680 A 
HETATM    2  N2  UNL     1     -34.439  57.663  77.621  1.00  0.00    -0.154 N 
ATOM      3  H2  UNL     1     -35.083  57.415  78.371  1.00  0.00     0.187 HD
HETATM    4  C2  UNL     1     -34.697  58.742  76.873  1.00  0.00     0.291 A 
HETATM    5  O1  UNL     1     -35.725  59.432  77.103  1.00  0.00    -0.265 OA
HETATM    6  C3  UNL     1     -33.847  59.102  75.854  1.00  0.00     0.164 A 
HETATM    7  N3  UNL     1     -33.437  59.861  74.843  1.00  0.00    -0.281 N 
ATOM      8  H3  UNL     1     -33.822  60.701  74.412  1.00  0.00     0.188 HD
HETATM    9  N4  UNL     1     -32.361  59.148  74.594  1.00  0.00    -0.202 N 
HETATM   10  C4  UNL     1     -31.244  59.139  73.687  1.00  0.00     0.261 C 
HETATM   11  O2  UNL     1     -30.372  58.242  73.773  1.00  0.00    -0.269 OA
HETATM   12  C9  UNL     1     -32.718  58.330  75.614  1.00  0.00     0.179 A 
HETATM   13  N9  UNL     1     -32.529  57.262  76.408  1.00  0.00    -0.172 N 
ATOM     14  H9  UNL     1     -31.702  56.690  76.236  1.00  0.00     0.186 HD
ENDROOT
BRANCH  10  15
HETATM   15  C5  UNL     1     -31.212  60.218  72.700  1.00  0.00     0.219 C 
BRANCH  15  16
HETATM   16  N5  UNL     1     -31.167  59.728  71.370  1.00  0.00    -0.411 N 
ATOM     17  H5  UNL     1     -30.326  59.802  70.797  1.00  0.00     0.153 HD
BRANCH  16  18
HETATM   18  C6  UNL     1     -32.361  59.126  70.880  1.00  0.00     0.143 C 
BRANCH  18  19
HETATM   19  C7  UNL     1     -33.537  60.106  70.892  1.00  0.00     0.220 C 
BRANCH  19  20
HETATM   20  O3  UNL     1     -34.496  59.679  71.791  1.00  0.00    -0.277 OA
BRANCH  20  21
HETATM   21  N6  UNL     1     -35.728  60.114  72.046  1.00  0.00    -0.241 N 
HETATM   22  C8  UNL     1     -36.538  59.570  72.845  1.00  0.00     0.221 C 
HETATM   23  N7  UNL     1     -37.862  60.095  73.076  1.00  0.00    -0.065 NA
HETATM   24  N8  UNL     1     -36.238  58.398  73.585  1.00  0.00    -0.065 NA
ATOM     25  H6  UNL     1     -36.040  60.952  71.558  1.00  0.00     0.196 HD
ENDBRANCH  20  21
ENDBRANCH  19  20
ENDBRANCH  18  19
ENDBRANCH  16  18
ENDBRANCH  15  16
ENDBRANCH  10  15
BRANCH   1  26
HETATM   26  N1  UNL     1     -33.099  55.850  78.141  1.00  0.00    -0.234 N 
ATOM     27  H12 UNL     1     -33.823  55.172  78.378  1.00  0.00     0.174 HD
ATOM     28  H11 UNL     1     -32.166  55.664  78.509  1.00  0.00     0.174 HD
ENDBRANCH   1  26
TORSDOF 7
ENDMDL
MODEL 3
REMARK VINA RESULT: -6.765199523      1.599      2.203
REMARK  7 active torsions:
REMARK  status: ('A' for Active; 'I' for Inactive)
REMARK    1  A    between atoms: N1_1  and  C1_4 
REMARK       I    between atoms: N4_12  and  C4_13 
REMARK    2  A    between atoms: C4_13  and  C5_15 
REMARK    3  A    between atoms: C5_15  and  N5_16 
REMARK    4  A    between atoms: N5_16  and  C6_18 
REMARK    5  A    between atoms: C6_18  and  C7_19 
REMARK    6  A    between atoms: C7_19  and  O3_20 
REMARK    7  A    between atoms: O3_20  and  N6_21 
ROOT
HETATM    1  C1  UNL     1     -33.418  56.805  77.553  1.00  0.00     0.680 A 
HETATM    2  N2  UNL     1     -34.435  57.657  77.854  1.00  0.00    -0.154 N 
ATOM      3  H2  UNL     1     -35.053  57.433  78.634  1.00  0.00     0.187 HD
HETATM    4  C2  UNL     1     -34.649  58.780  77.158  1.00  0.00     0.291 A 
HETATM    5  O1  UNL     1     -35.604  59.538  77.472  1.00  0.00    -0.265 OA
HETATM    6  C3  UNL     1     -33.833  59.109  76.102  1.00  0.00     0.164 A 
HETATM    7  N3  UNL     1     -33.423  59.871  75.092  1.00  0.00    -0.281 N 
ATOM      8  H3  UNL     1     -33.765  60.753  74.713  1.00  0.00     0.188 HD
HETATM    9  N4  UNL     1     -32.424  59.087  74.756  1.00  0.00    -0.202 N 
HETATM   10  C4  UNL     1     -31.366  59.025  73.784  1.00  0.00     0.261 C 
HETATM   11  O2  UNL     1     -30.564  58.059  73.788  1.00  0.00    -0.269 OA
HETATM   12  C9  UNL     1     -32.785  58.262  75.769  1.00  0.00     0.179 A 
HETATM   13  N9  UNL     1     -32.637  57.153  76.516  1.00  0.00    -0.172 N 
ATOM     14  H9  UNL     1     -31.869  56.526  76.276  1.00  0.00     0.186 HD
ENDROOT
BRANCH  10  15
HETATM   15  C5  UNL     1     -31.304  60.133  72.831  1.00  0.00     0.219 C 
BRANCH  15  16
HETATM   16  N5  UNL     1     -31.017  59.694  71.514  1.00  0.00    -0.411 N 
ATOM     17  H5  UNL     1     -30.063  59.649  71.158  1.00  0.00     0.153 HD
BRANCH  16  18
HETATM   18  C6  UNL     1     -32.137  59.320  70.717  1.00  0.00     0.143 C 
BRANCH  18  19
HETATM   19  C7  UNL     1     -32.266  57.800  70.598  1.00  0.00     0.220 C 
BRANCH  19  20
HETATM   20  O3  UNL     1     -31.082  57.263  70.129  1.00  0.00    -0.277 OA
BRANCH  20  21
HETATM   21  N6  UNL     1     -30.447  57.396  68.967  1.00  0.00    -0.241 N 
HETATM   22  C8  UNL     1     -29.288  57.872  68.824  1.00  0.00     0.221 C 
HETATM   23  N7  UNL     1     -28.656  57.988  67.532  1.00  0.00    -0.065 NA
HETATM   24  N8  UNL     1     -28.497  58.341  69.904  1.00  0.00    -0.065 NA
ATOM     25  H6  UNL     1     -30.936  57.090  68.126  1.00  0.00     0.196 HD
ENDBRANCH  20  21
ENDBRANCH  19  20
ENDBRANCH  18  19
ENDBRANCH  16  18
ENDBRANCH  15  16
ENDBRANCH  10  15
BRANCH   1  26
HETATM   26  N1  UNL     1     -33.216  55.728  78.233  1.00  0.00    -0.234 N 
ATOM     27  H12 UNL     1     -33.561  55.616  79.186  1.00  0.00     0.174 HD
ATOM     28  H11 UNL     1     -32.704  54.937  77.841  1.00  0.00     0.174 HD
ENDBRANCH   1  26
TORSDOF 7
ENDMDL
MODEL 4
REMARK VINA RESULT: -6.605635782      2.307      3.868
REMARK  7 active torsions:
REMARK  status: ('A' for Active; 'I' for Inactive)
REMARK    1  A    between atoms: N1_1  and  C1_4 
REMARK       I    between atoms: N4_12  and  C4_13 
REMARK    2  A    between atoms: C4_13  and  C5_15 
REMARK    3  A    between atoms: C5_15  and  N5_16 
REMARK    4  A    between atoms: N5_16  and  C6_18 
REMARK    5  A    between atoms: C6_18  and  C7_19 
REMARK    6  A    between atoms: C7_19  and  O3_20 
REMARK    7  A    between atoms: O3_20  and  N6_21 
ROOT
HETATM    1  C1  UNL     1     -35.401  59.006  77.735  1.00  0.00     0.680 A 
HETATM    2  N2  UNL     1     -34.327  58.173  77.773  1.00  0.00    -0.154 N 
ATOM      3  H2  UNL     1     -33.929  57.920  78.678  1.00  0.00     0.187 HD
HETATM    4  C2  UNL     1     -33.776  57.674  76.660  1.00  0.00     0.291 A 
HETATM    5  O1  UNL     1     -32.782  56.906  76.743  1.00  0.00    -0.265 OA
HETATM    6  C3  UNL     1     -34.290  57.996  75.426  1.00  0.00     0.164 A 
HETATM    7  N3  UNL     1     -34.344  57.953  74.099  1.00  0.00    -0.281 N 
ATOM      8  H3  UNL     1     -33.778  57.469  73.402  1.00  0.00     0.188 HD
HETATM    9  N4  UNL     1     -35.382  58.752  74.000  1.00  0.00    -0.202 N 
HETATM   10  C4  UNL     1     -36.217  59.335  72.984  1.00  0.00     0.261 C 
HETATM   11  O2  UNL     1     -37.166  60.090  73.308  1.00  0.00    -0.269 OA
HETATM   12  C9  UNL     1     -35.387  58.843  75.353  1.00  0.00     0.179 A 
HETATM   13  N9  UNL     1     -35.882  59.303  76.515  1.00  0.00    -0.172 N 
ATOM     14  H9  UNL     1     -36.687  59.927  76.468  1.00  0.00     0.186 HD
ENDROOT
BRANCH  10  15
HETATM   15  C5  UNL     1     -35.883  58.989  71.603  1.00  0.00     0.219 C 
BRANCH  15  16
HETATM   16  N5  UNL     1     -34.882  59.835  71.065  1.00  0.00    -0.411 N 
ATOM     17  H5  UNL     1     -35.068  60.811  70.834  1.00  0.00     0.153 HD
BRANCH  16  18
HETATM   18  C6  UNL     1     -33.600  59.246  70.864  1.00  0.00     0.143 C 
BRANCH  18  19
HETATM   19  C7  UNL     1     -32.470  60.251  71.102  1.00  0.00     0.220 C 
BRANCH  19  20
HETATM   20  O3  UNL     1     -31.350  59.595  71.577  1.00  0.00    -0.277 OA
BRANCH  20  21
HETATM   21  N6  UNL     1     -30.835  59.492  72.800  1.00  0.00    -0.241 N 
HETATM   22  C8  UNL     1     -30.884  58.461  73.523  1.00  0.00     0.221 C 
HETATM   23  N7  UNL     1     -30.303  58.417  74.843  1.00  0.00    -0.065 NA
HETATM   24  N8  UNL     1     -31.512  57.254  73.122  1.00  0.00    -0.065 NA
ATOM     25  H6  UNL     1     -30.364  60.312  73.181  1.00  0.00     0.196 HD
ENDBRANCH  20  21
ENDBRANCH  19  20
ENDBRANCH  18  19
ENDBRANCH  16  18
ENDBRANCH  15  16
ENDBRANCH  10  15
BRANCH   1  26
HETATM   26  N1  UNL     1     -35.928  59.478  78.815  1.00  0.00    -0.234 N 
ATOM     27  H12 UNL     1     -36.114  60.472  78.937  1.00  0.00     0.174 HD
ATOM     28  H11 UNL     1     -36.185  58.870  79.593  1.00  0.00     0.174 HD
ENDBRANCH   1  26
TORSDOF 7
ENDMDL
MODEL 5
REMARK VINA RESULT: -6.588898200      3.566      4.768
REMARK  7 active torsions:
REMARK  status: ('A' for Active; 'I' for Inactive)
REMARK    1  A    between atoms: N1_1  and  C1_4 
REMARK       I    between atoms: N4_12  and  C4_13 
REMARK    2  A    between atoms: C4_13  and  C5_15 
REMARK    3  A    between atoms: C5_15  and  N5_16 
REMARK    4  A    between atoms: N5_16  and  C6_18 
REMARK    5  A    between atoms: C6_18  and  C7_19 
REMARK    6  A    between atoms: C7_19  and  O3_20 
REMARK    7  A    between atoms: O3_20  and  N6_21 
ROOT
HETATM    1  C1  UNL     1     -36.975  58.075  73.397  1.00  0.00     0.680 A 
HETATM    2  N2  UNL     1     -37.390  58.841  74.442  1.00  0.00    -0.154 N 
ATOM      3  H2  UNL     1     -38.369  59.119  74.493  1.00  0.00     0.187 HD
HETATM    4  C2  UNL     1     -36.550  59.240  75.406  1.00  0.00     0.291 A 
HETATM    5  O1  UNL     1     -36.978  59.948  76.355  1.00  0.00    -0.265 OA
HETATM    6  C3  UNL     1     -35.224  58.880  75.365  1.00  0.00     0.164 A 
HETATM    7  N3  UNL     1     -33.974  58.850  75.814  1.00  0.00    -0.281 N 
ATOM      8  H3  UNL     1     -33.526  59.257  76.635  1.00  0.00     0.188 HD
HETATM    9  N4  UNL     1     -33.516  58.110  74.829  1.00  0.00    -0.202 N 
HETATM   10  C4  UNL     1     -32.280  57.520  74.392  1.00  0.00     0.261 C 
HETATM   11  O2  UNL     1     -32.246  56.840  73.337  1.00  0.00    -0.269 OA
HETATM   12  C9  UNL     1     -34.770  58.099  74.312  1.00  0.00     0.179 A 
HETATM   13  N9  UNL     1     -35.673  57.739  73.384  1.00  0.00    -0.172 N 
ATOM     14  H9  UNL     1     -35.345  57.166  72.607  1.00  0.00     0.186 HD
ENDROOT
BRANCH  10  15
HETATM   15  C5  UNL     1     -31.116  57.766  75.242  1.00  0.00     0.219 C 
BRANCH  15  16
HETATM   16  N5  UNL     1     -30.841  56.676  76.106  1.00  0.00    -0.411 N 
ATOM     17  H5  UNL     1     -30.100  56.005  75.907  1.00  0.00     0.153 HD
BRANCH  16  18
HETATM   18  C6  UNL     1     -31.659  56.573  77.268  1.00  0.00     0.143 C 
BRANCH  18  19
HETATM   19  C7  UNL     1     -32.485  55.284  77.268  1.00  0.00     0.220 C 
BRANCH  19  20
HETATM   20  O3  UNL     1     -31.960  54.390  76.354  1.00  0.00    -0.277 OA
BRANCH  20  21
HETATM   21  N6  UNL     1     -32.392  53.987  75.161  1.00  0.00    -0.241 N 
HETATM   22  C8  UNL     1     -31.666  53.830  74.142  1.00  0.00     0.221 C 
HETATM   23  N7  UNL     1     -32.199  53.388  72.876  1.00  0.00    -0.065 NA
HETATM   24  N8  UNL     1     -30.268  54.073  74.133  1.00  0.00    -0.065 NA
ATOM     25  H6  UNL     1     -33.387  53.789  75.063  1.00  0.00     0.196 HD
ENDBRANCH  20  21
ENDBRANCH  19  20
ENDBRANCH  18  19
ENDBRANCH  16  18
ENDBRANCH  15  16
ENDBRANCH  10  15
BRANCH   1  26
HETATM   26  N1  UNL     1     -37.793  57.691  72.476  1.00  0.00    -0.234 N 
ATOM     27  H12 UNL     1     -38.425  56.902  72.607  1.00  0.00     0.174 HD
ATOM     28  H11 UNL     1     -37.843  58.166  71.575  1.00  0.00     0.174 HD
ENDBRANCH   1  26
TORSDOF 7
ENDMDL
