MODEL 1
REMARK VINA RESULT: -3.611178430      0.000      0.000
REMARK  1 active torsions:
REMARK  status: ('A' for Active; 'I' for Inactive)
REMARK    1  A    between atoms: C4_5  and  O2_6 
ROOT
HETATM    1  C1  UNL     1      18.720   1.818  19.988  1.00  0.00     0.024 C 
HETATM    2  C2  UNL     1      17.528   1.046  20.436  1.00  0.00     0.072 C 
HETATM    3  C3  UNL     1      17.868  -0.167  21.261  1.00  0.00     0.186 C 
HETATM    4  O1  UNL     1      18.053  -1.239  20.427  1.00  0.00    -0.351 OA
HETATM    5  C4  UNL     1      16.933  -1.467  19.680  1.00  0.00     0.322 C 
HETATM    6  S1  UNL     1      16.675   0.232  19.021  1.00  0.00    -0.103 SA
ENDROOT
BRANCH   5   7
HETATM    7  O2  UNL     1      17.236  -2.349  18.662  1.00  0.00    -0.362 OA
ATOM      8  H2  UNL     1      18.172  -2.514  18.660  1.00  0.00     0.213 HD
ENDBRANCH   5   7
TORSDOF 1
ENDMDL
MODEL 2
REMARK VINA RESULT: -3.558228373      1.235      1.535
REMARK  1 active torsions:
REMARK  status: ('A' for Active; 'I' for Inactive)
REMARK    1  A    between atoms: C4_5  and  O2_6 
ROOT
HETATM    1  C1  UNL     1      18.951   2.545  19.383  1.00  0.00     0.024 C 
HETATM    2  C2  UNL     1      18.226   1.921  20.526  1.00  0.00     0.072 C 
HETATM    3  C3  UNL     1      19.122   1.155  21.465  1.00  0.00     0.186 C 
HETATM    4  O1  UNL     1      19.228  -0.140  21.027  1.00  0.00    -0.351 OA
HETATM    5  C4  UNL     1      17.997  -0.726  20.957  1.00  0.00     0.322 C 
HETATM    6  S1  UNL     1      17.123   0.556  19.966  1.00  0.00    -0.103 SA
ENDROOT
BRANCH   5   7
HETATM    7  O2  UNL     1      18.095  -1.909  20.253  1.00  0.00    -0.362 OA
ATOM      8  H2  UNL     1      17.621  -2.589  20.715  1.00  0.00     0.213 HD
ENDBRANCH   5   7
TORSDOF 1
ENDMDL
MODEL 3
REMARK VINA RESULT: -3.541071867      9.104      9.752
REMARK  1 active torsions:
REMARK  status: ('A' for Active; 'I' for Inactive)
REMARK    1  A    between atoms: C4_5  and  O2_6 
ROOT
HETATM    1  C1  UNL     1       8.526   2.682  13.992  1.00  0.00     0.024 C 
HETATM    2  C2  UNL     1      10.004   2.527  13.884  1.00  0.00     0.072 C 
HETATM    3  C3  UNL     1      10.444   1.761  12.664  1.00  0.00     0.186 C 
HETATM    4  O1  UNL     1      10.482   0.424  12.963  1.00  0.00    -0.351 OA
HETATM    5  C4  UNL     1      11.330   0.188  14.006  1.00  0.00     0.322 C 
HETATM    6  S1  UNL     1      10.668   1.423  15.200  1.00  0.00    -0.103 SA
ENDROOT
BRANCH   5   7
HETATM    7  O2  UNL     1      11.136  -1.097  14.470  1.00  0.00    -0.362 OA
ATOM      8  H2  UNL     1      10.504  -1.538  13.914  1.00  0.00     0.213 HD
ENDBRANCH   5   7
TORSDOF 1
ENDMDL
MODEL 4
REMARK VINA RESULT: -3.464817056      9.228      9.736
REMARK  1 active torsions:
REMARK  status: ('A' for Active; 'I' for Inactive)
REMARK    1  A    between atoms: C4_5  and  O2_6 
ROOT
HETATM    1  C1  UNL     1       8.576   4.143  15.222  1.00  0.00     0.024 C 
HETATM    2  C2  UNL     1       9.677   3.421  14.525  1.00  0.00     0.072 C 
HETATM    3  C3  UNL     1       9.218   2.202  13.769  1.00  0.00     0.186 C 
HETATM    4  O1  UNL     1       9.247   1.117  14.607  1.00  0.00    -0.351 OA
HETATM    5  C4  UNL     1      10.505   0.926  15.102  1.00  0.00     0.322 C 
HETATM    6  S1  UNL     1      10.833   2.629  15.721  1.00  0.00    -0.103 SA
ENDROOT
BRANCH   5   7
HETATM    7  O2  UNL     1      10.450   0.025  16.147  1.00  0.00    -0.362 OA
ATOM      8  H2  UNL     1      10.822  -0.803  15.866  1.00  0.00     0.213 HD
ENDBRANCH   5   7
TORSDOF 1
ENDMDL
MODEL 5
REMARK VINA RESULT: -3.383582678      3.379      4.114
REMARK  1 active torsions:
REMARK  status: ('A' for Active; 'I' for Inactive)
REMARK    1  A    between atoms: C4_5  and  O2_6 
ROOT
HETATM    1  C1  UNL     1      14.898   1.599  18.643  1.00  0.00     0.024 C 
HETATM    2  C2  UNL     1      15.643   2.232  19.767  1.00  0.00     0.072 C 
HETATM    3  C3  UNL     1      16.174   3.604  19.445  1.00  0.00     0.186 C 
HETATM    4  O1  UNL     1      17.423   3.483  18.891  1.00  0.00    -0.351 OA
HETATM    5  C4  UNL     1      18.266   2.832  19.745  1.00  0.00     0.322 C 
HETATM    6  S1  UNL     1      17.227   1.357  20.109  1.00  0.00    -0.103 SA
ENDROOT
BRANCH   5   7
HETATM    7  O2  UNL     1      19.412   2.472  19.066  1.00  0.00    -0.362 OA
ATOM      8  H2  UNL     1      20.103   3.093  19.264  1.00  0.00     0.213 HD
ENDBRANCH   5   7
TORSDOF 1
ENDMDL
