MODEL 1
REMARK VINA RESULT: -4.076681892      0.000      0.000
REMARK  3 active torsions:
REMARK  status: ('A' for Active; 'I' for Inactive)
REMARK    1  A    between atoms: N1_2  and  O1_3 
REMARK    2  A    between atoms: O1_3  and  C2_4 
REMARK    3  A    between atoms: C2_4  and  N2_6 
ROOT
HETATM    1  N2  UNL     1      11.085  -0.397  14.412  1.00  0.00    -0.263 N 
ATOM      2  H2  UNL     1      10.772  -1.317  14.724  1.00  0.00     0.181 HD
HETATM    3  C3  UNL     1      12.057  -0.323  13.391  1.00  0.00     0.184 C 
HETATM    4  N3  UNL     1      12.842  -0.266  12.538  1.00  0.00    -0.172 NA
ENDROOT
BRANCH   1   5
HETATM    5  C2  UNL     1      10.530   0.749  15.016  1.00  0.00     0.243 C 
HETATM    6  S1  UNL     1      11.466   1.694  15.943  1.00  0.00    -0.031 SA
BRANCH   5   7
HETATM    7  O1  UNL     1       9.203   1.050  14.811  1.00  0.00    -0.214 OA
BRANCH   7   8
HETATM    8  N1  UNL     1       8.740   1.729  13.712  1.00  0.00    -0.096 NA
HETATM    9  C1  UNL     1       8.509   3.110  14.091  1.00  0.00     0.168 C 
ENDBRANCH   7   8
ENDBRANCH   5   7
ENDBRANCH   1   5
TORSDOF 3
ENDMDL
MODEL 2
REMARK VINA RESULT: -4.025012981      2.710      3.202
REMARK  3 active torsions:
REMARK  status: ('A' for Active; 'I' for Inactive)
REMARK    1  A    between atoms: N1_2  and  O1_3 
REMARK    2  A    between atoms: O1_3  and  C2_4 
REMARK    3  A    between atoms: C2_4  and  N2_6 
ROOT
HETATM    1  N2  UNL     1      12.871   1.123  15.177  1.00  0.00    -0.263 N 
ATOM      2  H2  UNL     1      13.779   0.879  15.574  1.00  0.00     0.181 HD
HETATM    3  C3  UNL     1      12.074   2.077  15.844  1.00  0.00     0.184 C 
HETATM    4  N3  UNL     1      11.430   2.877  16.384  1.00  0.00    -0.172 NA
ENDROOT
BRANCH   1   5
HETATM    5  C2  UNL     1      12.462   0.493  13.983  1.00  0.00     0.243 C 
HETATM    6  S1  UNL     1      13.579   0.038  12.900  1.00  0.00    -0.031 SA
BRANCH   5   7
HETATM    7  O1  UNL     1      11.123   0.273  13.756  1.00  0.00    -0.214 OA
BRANCH   7   8
HETATM    8  N1  UNL     1      10.479   0.640  12.600  1.00  0.00    -0.096 NA
HETATM    9  C1  UNL     1      10.027   2.010  12.745  1.00  0.00     0.168 C 
ENDBRANCH   7   8
ENDBRANCH   5   7
ENDBRANCH   1   5
TORSDOF 3
ENDMDL
MODEL 3
REMARK VINA RESULT: -3.955109552      2.333      3.594
REMARK  3 active torsions:
REMARK  status: ('A' for Active; 'I' for Inactive)
REMARK    1  A    between atoms: N1_2  and  O1_3 
REMARK    2  A    between atoms: O1_3  and  C2_4 
REMARK    3  A    between atoms: C2_4  and  N2_6 
ROOT
HETATM    1  N2  UNL     1      10.864   0.749  16.448  1.00  0.00    -0.263 N 
ATOM      2  H2  UNL     1      10.503  -0.042  16.981  1.00  0.00     0.181 HD
HETATM    3  C3  UNL     1      11.744   1.650  17.084  1.00  0.00     0.184 C 
HETATM    4  N3  UNL     1      12.482   2.378  17.605  1.00  0.00    -0.172 NA
ENDROOT
BRANCH   1   5
HETATM    5  C2  UNL     1      10.464   0.900  15.104  1.00  0.00     0.243 C 
HETATM    6  S1  UNL     1       9.773   2.287  14.629  1.00  0.00    -0.031 SA
BRANCH   5   7
HETATM    7  O1  UNL     1      10.667  -0.131  14.215  1.00  0.00    -0.214 OA
BRANCH   7   8
HETATM    8  N1  UNL     1      11.284   0.025  12.999  1.00  0.00    -0.096 NA
HETATM    9  C1  UNL     1      12.717  -0.079  13.197  1.00  0.00     0.168 C 
ENDBRANCH   7   8
ENDBRANCH   5   7
ENDBRANCH   1   5
TORSDOF 3
ENDMDL
MODEL 4
REMARK VINA RESULT: -3.832054586      1.350      1.350
REMARK  3 active torsions:
REMARK  status: ('A' for Active; 'I' for Inactive)
REMARK    1  A    between atoms: N1_2  and  O1_3 
REMARK    2  A    between atoms: O1_3  and  C2_4 
REMARK    3  A    between atoms: C2_4  and  N2_6 
ROOT
HETATM    1  N2  UNL     1      12.850   0.872  14.741  1.00  0.00    -0.263 N 
ATOM      2  H2  UNL     1      13.650   0.989  15.363  1.00  0.00     0.181 HD
HETATM    3  C3  UNL     1      13.059   0.306  13.465  1.00  0.00     0.184 C 
HETATM    4  N3  UNL     1      13.232  -0.178  12.425  1.00  0.00    -0.172 NA
ENDROOT
BRANCH   1   5
HETATM    5  C2  UNL     1      11.578   1.284  15.189  1.00  0.00     0.243 C 
HETATM    6  S1  UNL     1      11.467   2.450  16.309  1.00  0.00    -0.031 SA
BRANCH   5   7
HETATM    7  O1  UNL     1      10.450   0.691  14.670  1.00  0.00    -0.214 OA
BRANCH   7   8
HETATM    8  N1  UNL     1       9.337   1.391  14.275  1.00  0.00    -0.096 NA
HETATM    9  C1  UNL     1       9.634   2.049  13.017  1.00  0.00     0.168 C 
ENDBRANCH   7   8
ENDBRANCH   5   7
ENDBRANCH   1   5
TORSDOF 3
ENDMDL
MODEL 5
REMARK VINA RESULT: -3.820733377      2.189      2.790
REMARK  3 active torsions:
REMARK  status: ('A' for Active; 'I' for Inactive)
REMARK    1  A    between atoms: N1_2  and  O1_3 
REMARK    2  A    between atoms: O1_3  and  C2_4 
REMARK    3  A    between atoms: C2_4  and  N2_6 
ROOT
HETATM    1  N2  UNL     1      11.012   0.708  16.455  1.00  0.00    -0.263 N 
ATOM      2  H2  UNL     1      10.843  -0.079  17.080  1.00  0.00     0.181 HD
HETATM    3  C3  UNL     1      11.689   1.840  16.957  1.00  0.00     0.184 C 
HETATM    4  N3  UNL     1      12.263   2.761  17.368  1.00  0.00    -0.172 NA
ENDROOT
BRANCH   1   5
HETATM    5  C2  UNL     1      10.561   0.623  15.121  1.00  0.00     0.243 C 
HETATM    6  S1  UNL     1      11.627   0.324  13.937  1.00  0.00    -0.031 SA
BRANCH   5   7
HETATM    7  O1  UNL     1       9.224   0.793  14.845  1.00  0.00    -0.214 OA
BRANCH   7   8
HETATM    8  N1  UNL     1       8.743   1.739  13.973  1.00  0.00    -0.096 NA
HETATM    9  C1  UNL     1       8.973   3.050  14.549  1.00  0.00     0.168 C 
ENDBRANCH   7   8
ENDBRANCH   5   7
ENDBRANCH   1   5
TORSDOF 3
ENDMDL
