MODEL 1
REMARK VINA RESULT: -4.173764100      0.000      0.000
REMARK  2 active torsions:
REMARK  status: ('A' for Active; 'I' for Inactive)
REMARK    1  A    between atoms: C4_5  and  O1_6 
REMARK    2  A    between atoms: N1_8  and  O2_9 
ROOT
HETATM    1  C1  UNL     1      16.027   1.411  19.466  1.00  0.00     0.029 C 
HETATM    2  C2  UNL     1      17.359   0.958  18.980  1.00  0.00     0.095 C 
HETATM    3  C3  UNL     1      18.444   1.773  19.624  1.00  0.00     0.099 C 
HETATM    4  S1  UNL     1      18.851   0.715  21.071  1.00  0.00    -0.119 SA
HETATM    5  C4  UNL     1      17.781  -0.695  20.575  1.00  0.00     0.282 C 
HETATM    6  N1  UNL     1      17.638  -0.429  19.182  1.00  0.00    -0.156 NA
ENDROOT
BRANCH   5   7
HETATM    7  O1  UNL     1      18.485  -1.900  20.711  1.00  0.00    -0.370 OA
ATOM      8  H1  UNL     1      17.878  -2.631  20.723  1.00  0.00     0.212 HD
ENDBRANCH   5   7
BRANCH   6   9
HETATM    9  O2  UNL     1      16.583  -1.135  18.721  1.00  0.00    -0.309 OA
ATOM     10  H2  UNL     1      15.799  -0.624  18.882  1.00  0.00     0.237 HD
ENDBRANCH   6   9
TORSDOF 2
ENDMDL
MODEL 2
REMARK VINA RESULT: -3.902671907      1.502      1.551
REMARK  2 active torsions:
REMARK  status: ('A' for Active; 'I' for Inactive)
REMARK    1  A    between atoms: C4_5  and  O1_6 
REMARK    2  A    between atoms: N1_8  and  O2_9 
ROOT
HETATM    1  C1  UNL     1      15.990   1.646  19.618  1.00  0.00     0.029 C 
HETATM    2  C2  UNL     1      17.321   1.637  18.951  1.00  0.00     0.095 C 
HETATM    3  C3  UNL     1      17.981   2.977  19.105  1.00  0.00     0.099 C 
HETATM    4  S1  UNL     1      18.979   2.693  20.621  1.00  0.00    -0.119 SA
HETATM    5  C4  UNL     1      18.618   0.894  20.744  1.00  0.00     0.282 C 
HETATM    6  N1  UNL     1      18.219   0.623  19.404  1.00  0.00    -0.156 NA
ENDROOT
BRANCH   5   7
HETATM    7  O1  UNL     1      19.803   0.185  20.990  1.00  0.00    -0.370 OA
ATOM      8  H1  UNL     1      19.601  -0.720  21.199  1.00  0.00     0.212 HD
ENDBRANCH   5   7
BRANCH   6   9
HETATM    9  O2  UNL     1      17.555  -0.554  19.389  1.00  0.00    -0.309 OA
ATOM     10  H2  UNL     1      17.173  -0.684  20.249  1.00  0.00     0.237 HD
ENDBRANCH   6   9
TORSDOF 2
ENDMDL
MODEL 3
REMARK VINA RESULT: -3.838597819      8.383      8.894
REMARK  2 active torsions:
REMARK  status: ('A' for Active; 'I' for Inactive)
REMARK    1  A    between atoms: C4_5  and  O1_6 
REMARK    2  A    between atoms: N1_8  and  O2_9 
ROOT
HETATM    1  C1  UNL     1      11.234   3.158  15.749  1.00  0.00     0.029 C 
HETATM    2  C2  UNL     1      10.094   2.270  15.391  1.00  0.00     0.095 C 
HETATM    3  C3  UNL     1       9.629   2.570  13.995  1.00  0.00     0.099 C 
HETATM    4  S1  UNL     1      10.606   1.342  13.039  1.00  0.00    -0.119 SA
HETATM    5  C4  UNL     1      11.299   0.477  14.506  1.00  0.00     0.282 C 
HETATM    6  N1  UNL     1      10.359   0.871  15.501  1.00  0.00    -0.156 NA
ENDROOT
BRANCH   5   7
HETATM    7  O1  UNL     1      11.189  -0.911  14.338  1.00  0.00    -0.370 OA
ATOM      8  H1  UNL     1      11.099  -1.120  13.415  1.00  0.00     0.212 HD
ENDBRANCH   5   7
BRANCH   6   9
HETATM    9  O2  UNL     1      10.908   0.648  16.715  1.00  0.00    -0.309 OA
ATOM     10  H2  UNL     1      11.809   0.946  16.686  1.00  0.00     0.237 HD
ENDBRANCH   6   9
TORSDOF 2
ENDMDL
MODEL 4
REMARK VINA RESULT: -3.771938956      1.697      2.596
REMARK  2 active torsions:
REMARK  status: ('A' for Active; 'I' for Inactive)
REMARK    1  A    between atoms: C4_5  and  O1_6 
REMARK    2  A    between atoms: N1_8  and  O2_9 
ROOT
HETATM    1  C1  UNL     1      19.162   0.612  20.905  1.00  0.00     0.029 C 
HETATM    2  C2  UNL     1      17.783   0.121  21.178  1.00  0.00     0.095 C 
HETATM    3  C3  UNL     1      16.783   1.191  20.845  1.00  0.00     0.099 C 
HETATM    4  S1  UNL     1      16.368   0.742  19.112  1.00  0.00    -0.119 SA
HETATM    5  C4  UNL     1      17.321  -0.830  19.096  1.00  0.00     0.282 C 
HETATM    6  N1  UNL     1      17.422  -1.080  20.495  1.00  0.00    -0.156 NA
ENDROOT
BRANCH   5   7
HETATM    7  O1  UNL     1      16.545  -1.854  18.533  1.00  0.00    -0.370 OA
ATOM      8  H1  UNL     1      15.863  -1.480  17.987  1.00  0.00     0.212 HD
ENDBRANCH   5   7
BRANCH   6   9
HETATM    9  O2  UNL     1      18.408  -1.982  20.695  1.00  0.00    -0.309 OA
ATOM     10  H2  UNL     1      19.214  -1.612  20.354  1.00  0.00     0.237 HD
ENDBRANCH   6   9
TORSDOF 2
ENDMDL
MODEL 5
REMARK VINA RESULT: -3.751137729      8.959      9.669
REMARK  2 active torsions:
REMARK  status: ('A' for Active; 'I' for Inactive)
REMARK    1  A    between atoms: C4_5  and  O1_6 
REMARK    2  A    between atoms: N1_8  and  O2_9 
ROOT
HETATM    1  C1  UNL     1      10.622   3.054  15.634  1.00  0.00     0.029 C 
HETATM    2  C2  UNL     1       9.647   2.091  15.052  1.00  0.00     0.095 C 
HETATM    3  C3  UNL     1       8.869   2.752  13.951  1.00  0.00     0.099 C 
HETATM    4  S1  UNL     1       9.879   2.281  12.490  1.00  0.00    -0.119 SA
HETATM    5  C4  UNL     1      11.008   1.153  13.402  1.00  0.00     0.282 C 
HETATM    6  N1  UNL     1      10.217   0.879  14.555  1.00  0.00    -0.156 NA
ENDROOT
BRANCH   5   7
HETATM    7  O1  UNL     1      11.162  -0.046  12.692  1.00  0.00    -0.370 OA
ATOM      8  H1  UNL     1      11.590  -0.694  13.240  1.00  0.00     0.212 HD
ENDBRANCH   5   7
BRANCH   6   9
HETATM    9  O2  UNL     1      11.024   0.377  15.515  1.00  0.00    -0.309 OA
ATOM     10  H2  UNL     1      10.728  -0.504  15.713  1.00  0.00     0.237 HD
ENDBRANCH   6   9
TORSDOF 2
ENDMDL
