MODEL 1
REMARK VINA RESULT: -7.156847237      0.000      0.000
REMARK  5 active torsions:
REMARK  status: ('A' for Active; 'I' for Inactive)
REMARK    1  A    between atoms: N1_2  and  C2_5 
REMARK    2  A    between atoms: C2_5  and  C3_6 
REMARK    3  A    between atoms: C3_6  and  C4_7 
REMARK    4  A    between atoms: C4_7  and  C5_8 
REMARK    5  A    between atoms: C5_8  and  C6_9 
ROOT
HETATM    1  C6  UNL     1      63.999  35.973  70.209  1.00  0.00    -0.006 C 
HETATM    2  C7  UNL     1      62.612  36.019  70.813  1.00  0.00     0.038 C 
HETATM    3  C8  UNL     1      62.560  34.920  71.868  1.00  0.00     0.191 C 
HETATM    4  N2  UNL     1      63.228  33.784  71.223  1.00  0.00    -0.066 N 
ATOM      5  H21 UNL     1      63.057  33.668  70.225  1.00  0.00     0.278 HD
ATOM      6  H22 UNL     1      62.879  32.858  71.467  1.00  0.00     0.278 HD
HETATM    7  C9  UNL     1      64.613  34.079  71.615  1.00  0.00     0.191 C 
HETATM    8  C10 UNL     1      64.371  34.085  73.136  1.00  0.00     0.040 C 
HETATM    9  C11 UNL     1      63.395  35.272  73.070  1.00  0.00     0.018 C 
HETATM   10  C12 UNL     1      64.412  36.307  72.574  1.00  0.00     0.013 C 
HETATM   11  C13 UNL     1      64.921  35.538  71.355  1.00  0.00     0.021 C 
ENDROOT
BRANCH   1  12
HETATM   12  C5  UNL     1      64.475  37.319  69.750  1.00  0.00     0.005 C 
BRANCH  12  13
HETATM   13  C4  UNL     1      63.620  37.893  68.646  1.00  0.00     0.002 C 
BRANCH  13  14
HETATM   14  C3  UNL     1      63.867  39.355  68.413  1.00  0.00     0.027 C 
BRANCH  14  15
HETATM   15  C2  UNL     1      62.878  39.816  67.368  1.00  0.00     0.231 C 
BRANCH  15  16
HETATM   16  N1  UNL     1      61.672  40.321  67.922  1.00  0.00    -0.079 N 
HETATM   17  C1  UNL     1      60.974  41.142  66.971  1.00  0.00     0.266 C 
ATOM     18  H12 UNL     1      61.838  40.818  68.797  1.00  0.00     0.276 HD
ATOM     19  H11 UNL     1      61.079  39.572  68.279  1.00  0.00     0.276 HD
ENDBRANCH  15  16
ENDBRANCH  14  15
ENDBRANCH  13  14
ENDBRANCH  12  13
ENDBRANCH   1  12
TORSDOF 5
ENDMDL
MODEL 2
REMARK VINA RESULT: -6.986074109      1.182      1.203
REMARK  5 active torsions:
REMARK  status: ('A' for Active; 'I' for Inactive)
REMARK    1  A    between atoms: N1_2  and  C2_5 
REMARK    2  A    between atoms: C2_5  and  C3_6 
REMARK    3  A    between atoms: C3_6  and  C4_7 
REMARK    4  A    between atoms: C4_7  and  C5_8 
REMARK    5  A    between atoms: C5_8  and  C6_9 
ROOT
HETATM    1  C6  UNL     1      63.880  36.059  70.093  1.00  0.00    -0.006 C 
HETATM    2  C7  UNL     1      62.573  36.065  70.856  1.00  0.00     0.038 C 
HETATM    3  C8  UNL     1      62.690  34.986  71.927  1.00  0.00     0.191 C 
HETATM    4  N2  UNL     1      63.321  33.864  71.226  1.00  0.00    -0.066 N 
ATOM      5  H21 UNL     1      63.039  33.721  70.257  1.00  0.00     0.278 HD
ATOM      6  H22 UNL     1      63.040  32.930  71.524  1.00  0.00     0.278 HD
HETATM    7  C9  UNL     1      64.730  34.218  71.446  1.00  0.00     0.191 C 
HETATM    8  C10 UNL     1      64.670  34.246  72.984  1.00  0.00     0.040 C 
HETATM    9  C11 UNL     1      63.646  35.394  73.016  1.00  0.00     0.018 C 
HETATM   10  C12 UNL     1      64.555  36.456  72.386  1.00  0.00     0.013 C 
HETATM   11  C13 UNL     1      64.947  35.682  71.128  1.00  0.00     0.021 C 
ENDROOT
BRANCH   1  12
HETATM   12  C5  UNL     1      64.244  37.412  69.559  1.00  0.00     0.005 C 
BRANCH  12  13
HETATM   13  C4  UNL     1      63.455  37.785  68.328  1.00  0.00     0.002 C 
BRANCH  13  14
HETATM   14  C3  UNL     1      63.674  39.206  67.899  1.00  0.00     0.027 C 
BRANCH  14  15
HETATM   15  C2  UNL     1      63.137  39.337  66.492  1.00  0.00     0.231 C 
BRANCH  15  16
HETATM   16  N1  UNL     1      63.986  40.085  65.635  1.00  0.00    -0.079 N 
HETATM   17  C1  UNL     1      63.635  41.478  65.650  1.00  0.00     0.266 C 
ATOM     18  H12 UNL     1      63.990  39.709  64.686  1.00  0.00     0.276 HD
ATOM     19  H11 UNL     1      64.970  39.944  65.862  1.00  0.00     0.276 HD
ENDBRANCH  15  16
ENDBRANCH  14  15
ENDBRANCH  13  14
ENDBRANCH  12  13
ENDBRANCH   1  12
TORSDOF 5
ENDMDL
MODEL 3
REMARK VINA RESULT: -6.756234118      1.254      1.655
REMARK  5 active torsions:
REMARK  status: ('A' for Active; 'I' for Inactive)
REMARK    1  A    between atoms: N1_2  and  C2_5 
REMARK    2  A    between atoms: C2_5  and  C3_6 
REMARK    3  A    between atoms: C3_6  and  C4_7 
REMARK    4  A    between atoms: C4_7  and  C5_8 
REMARK    5  A    between atoms: C5_8  and  C6_9 
ROOT
HETATM    1  C6  UNL     1      63.960  35.925  70.218  1.00  0.00    -0.006 C 
HETATM    2  C7  UNL     1      62.600  35.957  70.882  1.00  0.00     0.038 C 
HETATM    3  C8  UNL     1      62.608  34.862  71.942  1.00  0.00     0.191 C 
HETATM    4  N2  UNL     1      63.260  33.731  71.273  1.00  0.00    -0.066 N 
ATOM      5  H21 UNL     1      63.046  33.609  70.283  1.00  0.00     0.278 HD
ATOM      6  H22 UNL     1      62.932  32.802  71.535  1.00  0.00     0.278 HD
HETATM    7  C9  UNL     1      64.657  34.043  71.602  1.00  0.00     0.191 C 
HETATM    8  C10 UNL     1      64.483  34.052  73.132  1.00  0.00     0.040 C 
HETATM    9  C11 UNL     1      63.491  35.228  73.105  1.00  0.00     0.018 C 
HETATM   10  C12 UNL     1      64.473  36.273  72.560  1.00  0.00     0.013 C 
HETATM   11  C13 UNL     1      64.936  35.504  71.324  1.00  0.00     0.021 C 
ENDROOT
BRANCH   1  12
HETATM   12  C5  UNL     1      64.400  37.274  69.733  1.00  0.00     0.005 C 
BRANCH  12  13
HETATM   13  C4  UNL     1      63.596  37.758  68.550  1.00  0.00     0.002 C 
BRANCH  13  14
HETATM   14  C3  UNL     1      63.224  39.209  68.649  1.00  0.00     0.027 C 
BRANCH  14  15
HETATM   15  C2  UNL     1      64.058  39.956  67.634  1.00  0.00     0.231 C 
BRANCH  15  16
HETATM   16  N1  UNL     1      64.758  41.060  68.187  1.00  0.00    -0.079 N 
HETATM   17  C1  UNL     1      66.032  40.652  68.710  1.00  0.00     0.266 C 
ATOM     18  H12 UNL     1      64.200  41.546  68.890  1.00  0.00     0.276 HD
ATOM     19  H11 UNL     1      64.854  41.820  67.514  1.00  0.00     0.276 HD
ENDBRANCH  15  16
ENDBRANCH  14  15
ENDBRANCH  13  14
ENDBRANCH  12  13
ENDBRANCH   1  12
TORSDOF 5
ENDMDL
MODEL 4
REMARK VINA RESULT: -6.610207789      1.997      2.737
REMARK  5 active torsions:
REMARK  status: ('A' for Active; 'I' for Inactive)
REMARK    1  A    between atoms: N1_2  and  C2_5 
REMARK    2  A    between atoms: C2_5  and  C3_6 
REMARK    3  A    between atoms: C3_6  and  C4_7 
REMARK    4  A    between atoms: C4_7  and  C5_8 
REMARK    5  A    between atoms: C5_8  and  C6_9 
ROOT
HETATM    1  C6  UNL     1      63.126  35.624  70.460  1.00  0.00    -0.006 C 
HETATM    2  C7  UNL     1      62.163  35.254  71.567  1.00  0.00     0.038 C 
HETATM    3  C8  UNL     1      62.889  34.254  72.459  1.00  0.00     0.191 C 
HETATM    4  N2  UNL     1      63.561  33.361  71.510  1.00  0.00    -0.066 N 
ATOM      5  H21 UNL     1      63.048  33.143  70.656  1.00  0.00     0.278 HD
ATOM      6  H22 UNL     1      63.650  32.386  71.794  1.00  0.00     0.278 HD
HETATM    7  C9  UNL     1      64.816  34.105  71.342  1.00  0.00     0.191 C 
HETATM    8  C10 UNL     1      65.220  34.114  72.828  1.00  0.00     0.040 C 
HETATM    9  C11 UNL     1      63.981  34.920  73.255  1.00  0.00     0.018 C 
HETATM   10  C12 UNL     1      64.329  36.198  72.483  1.00  0.00     0.013 C 
HETATM   11  C13 UNL     1      64.517  35.569  71.104  1.00  0.00     0.021 C 
ENDROOT
BRANCH   1  12
HETATM   12  C5  UNL     1      62.927  37.025  69.963  1.00  0.00     0.005 C 
BRANCH  12  13
HETATM   13  C4  UNL     1      64.002  37.458  68.996  1.00  0.00     0.002 C 
BRANCH  13  14
HETATM   14  C3  UNL     1      64.365  38.907  69.134  1.00  0.00     0.027 C 
BRANCH  14  15
HETATM   15  C2  UNL     1      65.645  38.974  69.935  1.00  0.00     0.231 C 
BRANCH  15  16
HETATM   16  N1  UNL     1      65.447  39.404  71.274  1.00  0.00    -0.079 N 
HETATM   17  C1  UNL     1      66.609  39.140  72.076  1.00  0.00     0.266 C 
ATOM     18  H12 UNL     1      64.607  38.992  71.681  1.00  0.00     0.276 HD
ATOM     19  H11 UNL     1      65.175  40.386  71.317  1.00  0.00     0.276 HD
ENDBRANCH  15  16
ENDBRANCH  14  15
ENDBRANCH  13  14
ENDBRANCH  12  13
ENDBRANCH   1  12
TORSDOF 5
ENDMDL
MODEL 5
REMARK VINA RESULT: -6.475064811      1.085      1.597
REMARK  5 active torsions:
REMARK  status: ('A' for Active; 'I' for Inactive)
REMARK    1  A    between atoms: N1_2  and  C2_5 
REMARK    2  A    between atoms: C2_5  and  C3_6 
REMARK    3  A    between atoms: C3_6  and  C4_7 
REMARK    4  A    between atoms: C4_7  and  C5_8 
REMARK    5  A    between atoms: C5_8  and  C6_9 
ROOT
HETATM    1  C6  UNL     1      63.297  36.115  70.725  1.00  0.00    -0.006 C 
HETATM    2  C7  UNL     1      64.295  36.833  71.608  1.00  0.00     0.038 C 
HETATM    3  C8  UNL     1      64.587  35.903  72.780  1.00  0.00     0.191 C 
HETATM    4  N2  UNL     1      63.268  35.378  73.148  1.00  0.00    -0.066 N 
ATOM      5  H21 UNL     1      62.488  36.030  73.078  1.00  0.00     0.278 HD
ATOM      6  H22 UNL     1      63.119  35.189  74.139  1.00  0.00     0.278 HD
HETATM    7  C9  UNL     1      63.225  34.215  72.251  1.00  0.00     0.191 C 
HETATM    8  C10 UNL     1      64.508  33.541  72.770  1.00  0.00     0.040 C 
HETATM    9  C11 UNL     1      65.407  34.716  72.348  1.00  0.00     0.018 C 
HETATM   10  C12 UNL     1      65.172  34.583  70.839  1.00  0.00     0.013 C 
HETATM   11  C13 UNL     1      63.645  34.626  70.857  1.00  0.00     0.021 C 
ENDROOT
BRANCH   1  12
HETATM   12  C5  UNL     1      63.443  36.473  69.276  1.00  0.00     0.005 C 
BRANCH  12  13
HETATM   13  C4  UNL     1      63.862  37.909  69.071  1.00  0.00     0.002 C 
BRANCH  13  14
HETATM   14  C3  UNL     1      63.434  38.460  67.742  1.00  0.00     0.027 C 
BRANCH  14  15
HETATM   15  C2  UNL     1      63.107  39.921  67.948  1.00  0.00     0.231 C 
BRANCH  15  16
HETATM   16  N1  UNL     1      61.715  40.170  68.086  1.00  0.00    -0.079 N 
HETATM   17  C1  UNL     1      61.222  40.951  66.985  1.00  0.00     0.266 C 
ATOM     18  H12 UNL     1      61.498  40.605  68.983  1.00  0.00     0.276 HD
ATOM     19  H11 UNL     1      61.188  39.305  68.200  1.00  0.00     0.276 HD
ENDBRANCH  15  16
ENDBRANCH  14  15
ENDBRANCH  13  14
ENDBRANCH  12  13
ENDBRANCH   1  12
TORSDOF 5
ENDMDL
