MODEL 1
REMARK VINA RESULT: -6.814693124      0.000      0.000
REMARK  5 active torsions:
REMARK  status: ('A' for Active; 'I' for Inactive)
REMARK    1  A    between atoms: C2_5  and  C3_6 
REMARK    2  A    between atoms: C3_6  and  C4_7 
REMARK    3  A    between atoms: C4_7  and  C5_8 
REMARK    4  A    between atoms: N2_11  and  C8_12 
REMARK    5  A    between atoms: C8_12  and  C9_13 
ROOT
HETATM    1  C4  UNL     1      63.012  39.211  68.622  1.00  0.00     0.010 C 
ENDROOT
BRANCH   1   2
HETATM    2  C3  UNL     1      63.334  40.227  67.597  1.00  0.00     0.063 C 
BRANCH   2   3
HETATM    3  C2  UNL     1      62.181  40.538  66.707  1.00  0.00     0.386 C 
HETATM    4  N1  UNL     1      61.807  41.964  66.695  1.00  0.00    -0.022 N 
HETATM    5  C1  UNL     1      60.433  41.494  66.501  1.00  0.00     0.467 C 
ATOM      6  H12 UNL     1      62.243  42.629  66.056  1.00  0.00     0.281 HD
ATOM      7  H11 UNL     1      62.057  42.591  67.459  1.00  0.00     0.281 HD
HETATM    8  N3  UNL     1      60.844  40.325  67.296  1.00  0.00    -0.022 N 
ATOM      9  H32 UNL     1      60.700  40.281  68.305  1.00  0.00     0.281 HD
ATOM     10  H31 UNL     1      60.360  39.430  67.229  1.00  0.00     0.281 HD
ENDBRANCH   2   3
ENDBRANCH   1   2
BRANCH   1  11
HETATM   11  C5  UNL     1      64.063  38.145  68.795  1.00  0.00     0.005 C 
HETATM   12  C6  UNL     1      64.921  38.487  70.005  1.00  0.00     0.026 C 
HETATM   13  C7  UNL     1      65.023  37.184  70.805  1.00  0.00     0.122 C 
HETATM   14  N2  UNL     1      63.969  36.364  70.362  1.00  0.00    -0.393 N 
HETATM   15  C12 UNL     1      63.493  36.791  69.105  1.00  0.00     0.126 C 
BRANCH  14  16
HETATM   16  C8  UNL     1      63.063  35.834  71.294  1.00  0.00     0.062 C 
BRANCH  16  17
HETATM   17  C9  UNL     1      63.635  35.433  72.610  1.00  0.00     0.024 A 
HETATM   18  C10 UNL     1      62.824  34.561  73.543  1.00  0.00     0.010 A 
HETATM   19  C11 UNL     1      63.877  33.898  72.747  1.00  0.00     0.010 A 
ENDBRANCH  16  17
ENDBRANCH  14  16
ENDBRANCH   1  11
TORSDOF 5
ENDMDL
MODEL 2
REMARK VINA RESULT: -6.728546547      1.875      3.239
REMARK  5 active torsions:
REMARK  status: ('A' for Active; 'I' for Inactive)
REMARK    1  A    between atoms: C2_5  and  C3_6 
REMARK    2  A    between atoms: C3_6  and  C4_7 
REMARK    3  A    between atoms: C4_7  and  C5_8 
REMARK    4  A    between atoms: N2_11  and  C8_12 
REMARK    5  A    between atoms: C8_12  and  C9_13 
ROOT
HETATM    1  C4  UNL     1      64.380  36.932  69.929  1.00  0.00     0.010 C 
ENDROOT
BRANCH   1   2
HETATM    2  C3  UNL     1      63.543  37.230  68.746  1.00  0.00     0.063 C 
BRANCH   2   3
HETATM    3  C2  UNL     1      63.530  38.677  68.396  1.00  0.00     0.386 C 
HETATM    4  N1  UNL     1      62.308  39.381  68.827  1.00  0.00    -0.022 N 
HETATM    5  C1  UNL     1      62.486  40.205  67.629  1.00  0.00     0.467 C 
ATOM      6  H12 UNL     1      62.226  39.795  69.756  1.00  0.00     0.281 HD
ATOM      7  H11 UNL     1      61.438  38.883  69.012  1.00  0.00     0.281 HD
HETATM    8  N3  UNL     1      63.075  38.997  67.028  1.00  0.00    -0.022 N 
ATOM      9  H32 UNL     1      62.520  38.343  66.477  1.00  0.00     0.281 HD
ATOM     10  H31 UNL     1      63.723  39.047  66.241  1.00  0.00     0.281 HD
ENDBRANCH   2   3
ENDBRANCH   1   2
BRANCH   1  11
HETATM   11  C5  UNL     1      63.608  36.759  71.211  1.00  0.00     0.005 C 
HETATM   12  C6  UNL     1      62.636  35.599  71.053  1.00  0.00     0.026 C 
HETATM   13  C7  UNL     1      62.812  34.753  72.320  1.00  0.00     0.122 C 
HETATM   14  N2  UNL     1      64.053  35.122  72.872  1.00  0.00    -0.393 N 
HETATM   15  C12 UNL     1      64.471  36.375  72.378  1.00  0.00     0.126 C 
BRANCH  14  16
HETATM   16  C8  UNL     1      65.013  34.135  73.141  1.00  0.00     0.062 C 
BRANCH  16  17
HETATM   17  C9  UNL     1      65.440  33.300  71.983  1.00  0.00     0.024 A 
HETATM   18  C10 UNL     1      66.421  33.861  70.978  1.00  0.00     0.010 A 
HETATM   19  C11 UNL     1      66.956  32.936  71.997  1.00  0.00     0.010 A 
ENDBRANCH  16  17
ENDBRANCH  14  16
ENDBRANCH   1  11
TORSDOF 5
ENDMDL
MODEL 3
REMARK VINA RESULT: -6.606611128      3.679      7.855
REMARK  5 active torsions:
REMARK  status: ('A' for Active; 'I' for Inactive)
REMARK    1  A    between atoms: C2_5  and  C3_6 
REMARK    2  A    between atoms: C3_6  and  C4_7 
REMARK    3  A    between atoms: C4_7  and  C5_8 
REMARK    4  A    between atoms: N2_11  and  C8_12 
REMARK    5  A    between atoms: C8_12  and  C9_13 
ROOT
HETATM    1  C4  UNL     1      66.284  34.068  72.290  1.00  0.00     0.010 C 
ENDROOT
BRANCH   1   2
HETATM    2  C3  UNL     1      67.005  33.552  71.107  1.00  0.00     0.063 C 
BRANCH   2   3
HETATM    3  C2  UNL     1      68.199  32.738  71.464  1.00  0.00     0.386 C 
HETATM    4  N1  UNL     1      68.573  31.748  70.438  1.00  0.00    -0.022 N 
HETATM    5  C1  UNL     1      69.015  30.911  71.555  1.00  0.00     0.467 C 
ATOM      6  H12 UNL     1      69.195  31.985  69.665  1.00  0.00     0.281 HD
ATOM      7  H11 UNL     1      67.903  31.412  69.747  1.00  0.00     0.281 HD
HETATM    8  N3  UNL     1      67.936  31.561  72.317  1.00  0.00    -0.022 N 
ATOM      9  H32 UNL     1      67.007  31.149  72.396  1.00  0.00     0.281 HD
ATOM     10  H31 UNL     1      67.953  31.618  73.335  1.00  0.00     0.281 HD
ENDBRANCH   2   3
ENDBRANCH   1   2
BRANCH   1  11
HETATM   11  C5  UNL     1      64.858  33.594  72.407  1.00  0.00     0.005 C 
HETATM   12  C6  UNL     1      64.169  34.362  73.526  1.00  0.00     0.026 C 
HETATM   13  C7  UNL     1      62.826  34.810  72.938  1.00  0.00     0.122 C 
HETATM   14  N2  UNL     1      62.959  34.725  71.540  1.00  0.00    -0.393 N 
HETATM   15  C12 UNL     1      64.033  33.882  71.186  1.00  0.00     0.126 C 
BRANCH  14  16
HETATM   16  C8  UNL     1      62.680  35.849  70.747  1.00  0.00     0.062 C 
BRANCH  16  17
HETATM   17  C9  UNL     1      63.715  36.218  69.741  1.00  0.00     0.024 A 
HETATM   18  C10 UNL     1      63.595  37.524  68.988  1.00  0.00     0.010 A 
HETATM   19  C11 UNL     1      64.538  37.485  70.124  1.00  0.00     0.010 A 
ENDBRANCH  16  17
ENDBRANCH  14  16
ENDBRANCH   1  11
TORSDOF 5
ENDMDL
MODEL 4
REMARK VINA RESULT: -6.585903255      2.416      4.180
REMARK  5 active torsions:
REMARK  status: ('A' for Active; 'I' for Inactive)
REMARK    1  A    between atoms: C2_5  and  C3_6 
REMARK    2  A    between atoms: C3_6  and  C4_7 
REMARK    3  A    between atoms: C4_7  and  C5_8 
REMARK    4  A    between atoms: N2_11  and  C8_12 
REMARK    5  A    between atoms: C8_12  and  C9_13 
ROOT
HETATM    1  C4  UNL     1      62.686  35.871  70.593  1.00  0.00     0.010 C 
ENDROOT
BRANCH   1   2
HETATM    2  C3  UNL     1      63.663  36.556  69.719  1.00  0.00     0.063 C 
BRANCH   2   3
HETATM    3  C2  UNL     1      63.236  37.931  69.339  1.00  0.00     0.386 C 
HETATM    4  N1  UNL     1      63.283  38.188  67.888  1.00  0.00    -0.022 N 
HETATM    5  C1  UNL     1      63.627  39.565  68.248  1.00  0.00     0.467 C 
ATOM      6  H12 UNL     1      62.493  37.974  67.279  1.00  0.00     0.281 HD
ATOM      7  H11 UNL     1      63.867  37.634  67.263  1.00  0.00     0.281 HD
HETATM    8  N3  UNL     1      64.283  38.970  69.425  1.00  0.00    -0.022 N 
ATOM      9  H32 UNL     1      65.275  38.737  69.429  1.00  0.00     0.281 HD
ATOM     10  H31 UNL     1      64.446  39.503  70.279  1.00  0.00     0.281 HD
ENDBRANCH   2   3
ENDBRANCH   1   2
BRANCH   1  11
HETATM   11  C5  UNL     1      63.118  35.746  72.032  1.00  0.00     0.005 C 
HETATM   12  C6  UNL     1      63.063  34.281  72.441  1.00  0.00     0.026 C 
HETATM   13  C7  UNL     1      64.393  34.014  73.155  1.00  0.00     0.122 C 
HETATM   14  N2  UNL     1      65.265  35.048  72.766  1.00  0.00    -0.393 N 
HETATM   15  C12 UNL     1      64.545  36.151  72.262  1.00  0.00     0.126 C 
BRANCH  14  16
HETATM   16  C8  UNL     1      66.512  34.729  72.207  1.00  0.00     0.062 C 
BRANCH  16  17
HETATM   17  C9  UNL     1      66.573  33.471  71.410  1.00  0.00     0.024 A 
HETATM   18  C10 UNL     1      67.838  33.123  70.658  1.00  0.00     0.010 A 
HETATM   19  C11 UNL     1      67.611  32.439  71.947  1.00  0.00     0.010 A 
ENDBRANCH  16  17
ENDBRANCH  14  16
ENDBRANCH   1  11
TORSDOF 5
ENDMDL
MODEL 5
REMARK VINA RESULT: -6.479539892      1.350      1.661
REMARK  5 active torsions:
REMARK  status: ('A' for Active; 'I' for Inactive)
REMARK    1  A    between atoms: C2_5  and  C3_6 
REMARK    2  A    between atoms: C3_6  and  C4_7 
REMARK    3  A    between atoms: C4_7  and  C5_8 
REMARK    4  A    between atoms: N2_11  and  C8_12 
REMARK    5  A    between atoms: C8_12  and  C9_13 
ROOT
HETATM    1  C4  UNL     1      62.931  39.185  68.928  1.00  0.00     0.010 C 
ENDROOT
BRANCH   1   2
HETATM    2  C3  UNL     1      62.708  39.848  67.625  1.00  0.00     0.063 C 
BRANCH   2   3
HETATM    3  C2  UNL     1      63.941  40.477  67.075  1.00  0.00     0.386 C 
HETATM    4  N1  UNL     1      63.782  41.904  66.743  1.00  0.00    -0.022 N 
HETATM    5  C1  UNL     1      64.735  41.651  65.659  1.00  0.00     0.467 C 
ATOM      6  H12 UNL     1      63.939  42.637  67.435  1.00  0.00     0.281 HD
ATOM      7  H11 UNL     1      62.867  42.316  66.568  1.00  0.00     0.281 HD
HETATM    8  N3  UNL     1      64.156  40.297  65.625  1.00  0.00    -0.022 N 
ATOM      9  H32 UNL     1      63.395  40.051  64.993  1.00  0.00     0.281 HD
ATOM     10  H31 UNL     1      64.671  39.500  65.250  1.00  0.00     0.281 HD
ENDBRANCH   2   3
ENDBRANCH   1   2
BRANCH   1  11
HETATM   11  C5  UNL     1      64.004  38.126  68.913  1.00  0.00     0.005 C 
HETATM   12  C6  UNL     1      64.909  38.320  70.122  1.00  0.00     0.026 C 
HETATM   13  C7  UNL     1      65.063  36.924  70.735  1.00  0.00     0.122 C 
HETATM   14  N2  UNL     1      64.002  36.150  70.229  1.00  0.00    -0.393 N 
HETATM   15  C12 UNL     1      63.467  36.733  69.061  1.00  0.00     0.126 C 
BRANCH  14  16
HETATM   16  C8  UNL     1      63.145  35.483  71.117  1.00  0.00     0.062 C 
BRANCH  16  17
HETATM   17  C9  UNL     1      63.545  35.500  72.553  1.00  0.00     0.024 A 
HETATM   18  C10 UNL     1      62.836  34.596  73.537  1.00  0.00     0.010 A 
HETATM   19  C11 UNL     1      64.159  34.155  73.049  1.00  0.00     0.010 A 
ENDBRANCH  16  17
ENDBRANCH  14  16
ENDBRANCH   1  11
TORSDOF 5
ENDMDL
