MODEL 1
REMARK VINA RESULT: -6.574555700      0.000      0.000
REMARK  5 active torsions:
REMARK  status: ('A' for Active; 'I' for Inactive)
REMARK    1  A    between atoms: C4_4  and  N1_5 
REMARK    2  A    between atoms: N1_5  and  C5_7 
REMARK    3  A    between atoms: C5_7  and  C6_8 
REMARK    4  A    between atoms: C6_8  and  C7_9 
REMARK    5  A    between atoms: C7_9  and  N2_10 
ROOT
HETATM    1  N1  UNL     1      62.679  39.468  67.362  1.00  0.00    -0.395 N 
ATOM      2  H1  UNL     1      61.667  39.529  67.474  1.00  0.00     0.155 HD
ENDROOT
BRANCH   1   3
HETATM    3  C4  UNL     1      63.298  39.626  66.080  1.00  0.00     0.279 C 
HETATM    4  C3  UNL     1      64.467  40.540  66.106  1.00  0.00     0.054 C 
HETATM    5  C2  UNL     1      64.253  41.890  65.523  1.00  0.00     0.005 C 
HETATM    6  C1  UNL     1      62.917  42.215  64.991  1.00  0.00     0.028 C 
HETATM    7  C12 UNL     1      61.836  41.335  65.560  1.00  0.00     0.235 C 
HETATM    8  N3  UNL     1      62.242  39.980  65.154  1.00  0.00    -0.055 N 
ATOM      9  H32 UNL     1      62.505  39.901  64.171  1.00  0.00     0.279 HD
ATOM     10  H31 UNL     1      61.476  39.307  65.119  1.00  0.00     0.279 HD
ENDBRANCH   1   3
BRANCH   1  11
HETATM   11  C5  UNL     1      63.530  39.222  68.472  1.00  0.00     0.117 C 
BRANCH  11  12
HETATM   12  C6  UNL     1      63.748  37.738  68.723  1.00  0.00     0.049 C 
BRANCH  12  13
HETATM   13  C7  UNL     1      64.268  37.527  70.139  1.00  0.00     0.274 C 
BRANCH  13  14
HETATM   14  N2  UNL     1      64.061  36.200  70.614  1.00  0.00     0.088 N 
HETATM   15  C8  UNL     1      64.811  35.793  71.739  1.00  0.00     0.272 C 
HETATM   16  C9  UNL     1      63.796  35.525  72.837  1.00  0.00     0.032 C 
HETATM   17  C10 UNL     1      62.600  35.036  72.064  1.00  0.00     0.032 C 
HETATM   18  C11 UNL     1      62.711  35.781  70.757  1.00  0.00     0.272 C 
ENDBRANCH  13  14
ENDBRANCH  12  13
ENDBRANCH  11  12
ENDBRANCH   1  11
TORSDOF 5
ENDMDL
MODEL 2
REMARK VINA RESULT: -6.434708039      0.654      1.182
REMARK  5 active torsions:
REMARK  status: ('A' for Active; 'I' for Inactive)
REMARK    1  A    between atoms: C4_4  and  N1_5 
REMARK    2  A    between atoms: N1_5  and  C5_7 
REMARK    3  A    between atoms: C5_7  and  C6_8 
REMARK    4  A    between atoms: C6_8  and  C7_9 
REMARK    5  A    between atoms: C7_9  and  N2_10 
ROOT
HETATM    1  N1  UNL     1      62.724  39.224  67.770  1.00  0.00    -0.395 N 
ATOM      2  H1  UNL     1      61.783  39.455  68.087  1.00  0.00     0.155 HD
ENDROOT
BRANCH   1   3
HETATM    3  C4  UNL     1      63.093  39.330  66.389  1.00  0.00     0.279 C 
HETATM    4  C3  UNL     1      64.137  40.353  66.141  1.00  0.00     0.054 C 
HETATM    5  C2  UNL     1      63.675  41.619  65.515  1.00  0.00     0.005 C 
HETATM    6  C1  UNL     1      62.240  41.762  65.211  1.00  0.00     0.028 C 
HETATM    7  C12 UNL     1      61.379  40.833  66.025  1.00  0.00     0.235 C 
HETATM    8  N3  UNL     1      61.860  39.494  65.646  1.00  0.00    -0.055 N 
ATOM      9  H32 UNL     1      61.958  39.356  64.640  1.00  0.00     0.279 HD
ATOM     10  H31 UNL     1      61.180  38.748  65.797  1.00  0.00     0.279 HD
ENDBRANCH   1   3
BRANCH   1  11
HETATM   11  C5  UNL     1      63.723  38.786  68.680  1.00  0.00     0.117 C 
BRANCH  11  12
HETATM   12  C6  UNL     1      63.642  37.293  68.960  1.00  0.00     0.049 C 
BRANCH  12  13
HETATM   13  C7  UNL     1      64.488  36.954  70.181  1.00  0.00     0.274 C 
BRANCH  13  14
HETATM   14  N2  UNL     1      63.705  36.593  71.315  1.00  0.00     0.088 N 
HETATM   15  C8  UNL     1      62.652  35.675  71.107  1.00  0.00     0.272 C 
HETATM   16  C9  UNL     1      63.011  34.444  71.922  1.00  0.00     0.032 C 
HETATM   17  C10 UNL     1      63.757  35.032  73.090  1.00  0.00     0.032 C 
HETATM   18  C11 UNL     1      64.418  36.250  72.495  1.00  0.00     0.272 C 
ENDBRANCH  13  14
ENDBRANCH  12  13
ENDBRANCH  11  12
ENDBRANCH   1  11
TORSDOF 5
ENDMDL
MODEL 3
REMARK VINA RESULT: -6.386587596      6.125      9.555
REMARK  5 active torsions:
REMARK  status: ('A' for Active; 'I' for Inactive)
REMARK    1  A    between atoms: C4_4  and  N1_5 
REMARK    2  A    between atoms: N1_5  and  C5_7 
REMARK    3  A    between atoms: C5_7  and  C6_8 
REMARK    4  A    between atoms: C6_8  and  C7_9 
REMARK    5  A    between atoms: C7_9  and  N2_10 
ROOT
HETATM    1  N1  UNL     1      68.228  31.927  70.593  1.00  0.00    -0.395 N 
ATOM      2  H1  UNL     1      67.888  31.077  70.146  1.00  0.00     0.155 HD
ENDROOT
BRANCH   1   3
HETATM    3  C4  UNL     1      69.460  31.943  71.324  1.00  0.00     0.279 C 
HETATM    4  C3  UNL     1      70.655  31.800  70.456  1.00  0.00     0.054 C 
HETATM    5  C2  UNL     1      71.327  30.476  70.485  1.00  0.00     0.005 C 
HETATM    6  C1  UNL     1      70.756  29.423  71.344  1.00  0.00     0.028 C 
HETATM    7  C12 UNL     1      69.307  29.667  71.676  1.00  0.00     0.235 C 
HETATM    8  N3  UNL     1      69.326  30.960  72.379  1.00  0.00    -0.055 N 
ATOM      9  H32 UNL     1      70.039  31.028  73.107  1.00  0.00     0.279 HD
ATOM     10  H31 UNL     1      68.525  31.113  72.992  1.00  0.00     0.279 HD
ENDBRANCH   1   3
BRANCH   1  11
HETATM   11  C5  UNL     1      67.499  33.144  70.517  1.00  0.00     0.117 C 
BRANCH  11  12
HETATM   12  C6  UNL     1      66.541  33.324  71.684  1.00  0.00     0.049 C 
BRANCH  12  13
HETATM   13  C7  UNL     1      66.340  34.809  71.958  1.00  0.00     0.274 C 
BRANCH  13  14
HETATM   14  N2  UNL     1      65.190  35.076  72.755  1.00  0.00     0.088 N 
HETATM   15  C8  UNL     1      64.387  36.176  72.383  1.00  0.00     0.272 C 
HETATM   16  C9  UNL     1      63.039  35.590  71.998  1.00  0.00     0.032 C 
HETATM   17  C10 UNL     1      62.932  34.394  72.906  1.00  0.00     0.032 C 
HETATM   18  C11 UNL     1      64.367  33.963  73.073  1.00  0.00     0.272 C 
ENDBRANCH  13  14
ENDBRANCH  12  13
ENDBRANCH  11  12
ENDBRANCH   1  11
TORSDOF 5
ENDMDL
MODEL 4
REMARK VINA RESULT: -6.284379061      6.035      9.838
REMARK  5 active torsions:
REMARK  status: ('A' for Active; 'I' for Inactive)
REMARK    1  A    between atoms: C4_4  and  N1_5 
REMARK    2  A    between atoms: N1_5  and  C5_7 
REMARK    3  A    between atoms: C5_7  and  C6_8 
REMARK    4  A    between atoms: C6_8  and  C7_9 
REMARK    5  A    between atoms: C7_9  and  N2_10 
ROOT
HETATM    1  N1  UNL     1      68.616  31.984  71.986  1.00  0.00    -0.395 N 
ATOM      2  H1  UNL     1      68.690  31.912  73.000  1.00  0.00     0.155 HD
ENDROOT
BRANCH   1   3
HETATM    3  C4  UNL     1      69.203  31.002  71.124  1.00  0.00     0.279 C 
HETATM    4  C3  UNL     1      69.466  29.711  71.805  1.00  0.00     0.054 C 
HETATM    5  C2  UNL     1      70.886  29.425  72.136  1.00  0.00     0.005 C 
HETATM    6  C1  UNL     1      71.900  30.436  71.784  1.00  0.00     0.028 C 
HETATM    7  C12 UNL     1      71.311  31.810  71.602  1.00  0.00     0.235 C 
HETATM    8  N3  UNL     1      70.350  31.633  70.502  1.00  0.00    -0.055 N 
ATOM      9  H32 UNL     1      70.723  31.123  69.701  1.00  0.00     0.279 HD
ATOM     10  H31 UNL     1      70.130  32.492  69.997  1.00  0.00     0.279 HD
ENDBRANCH   1   3
BRANCH   1  11
HETATM   11  C5  UNL     1      67.926  33.063  71.372  1.00  0.00     0.117 C 
BRANCH  11  12
HETATM   12  C6  UNL     1      66.569  33.324  72.006  1.00  0.00     0.049 C 
BRANCH  12  13
HETATM   13  C7  UNL     1      66.270  34.818  71.982  1.00  0.00     0.274 C 
BRANCH  13  14
HETATM   14  N2  UNL     1      65.107  35.163  72.729  1.00  0.00     0.088 N 
HETATM   15  C8  UNL     1      64.274  36.171  72.197  1.00  0.00     0.272 C 
HETATM   16  C9  UNL     1      62.947  35.495  71.899  1.00  0.00     0.032 C 
HETATM   17  C10 UNL     1      62.869  34.442  72.972  1.00  0.00     0.032 C 
HETATM   18  C11 UNL     1      64.315  34.084  73.204  1.00  0.00     0.272 C 
ENDBRANCH  13  14
ENDBRANCH  12  13
ENDBRANCH  11  12
ENDBRANCH   1  11
TORSDOF 5
ENDMDL
MODEL 5
REMARK VINA RESULT: -6.262828175      6.062      9.705
REMARK  5 active torsions:
REMARK  status: ('A' for Active; 'I' for Inactive)
REMARK    1  A    between atoms: C4_4  and  N1_5 
REMARK    2  A    between atoms: N1_5  and  C5_7 
REMARK    3  A    between atoms: C5_7  and  C6_8 
REMARK    4  A    between atoms: C6_8  and  C7_9 
REMARK    5  A    between atoms: C7_9  and  N2_10 
ROOT
HETATM    1  N1  UNL     1      68.690  32.410  72.059  1.00  0.00    -0.395 N 
ATOM      2  H1  UNL     1      68.734  32.220  73.060  1.00  0.00     0.155 HD
ENDROOT
BRANCH   1   3
HETATM    3  C4  UNL     1      69.129  31.442  71.098  1.00  0.00     0.279 C 
HETATM    4  C3  UNL     1      69.149  30.058  71.631  1.00  0.00     0.054 C 
HETATM    5  C2  UNL     1      70.489  29.499  71.945  1.00  0.00     0.005 C 
HETATM    6  C1  UNL     1      71.670  30.353  71.722  1.00  0.00     0.028 C 
HETATM    7  C12 UNL     1      71.328  31.819  71.690  1.00  0.00     0.235 C 
HETATM    8  N3  UNL     1      70.385  31.931  70.566  1.00  0.00    -0.055 N 
ATOM      9  H32 UNL     1      70.691  31.456  69.716  1.00  0.00     0.279 HD
ATOM     10  H31 UNL     1      70.330  32.865  70.159  1.00  0.00     0.279 HD
ENDBRANCH   1   3
BRANCH   1  11
HETATM   11  C5  UNL     1      68.190  33.643  71.562  1.00  0.00     0.117 C 
BRANCH  11  12
HETATM   12  C6  UNL     1      66.817  33.501  70.925  1.00  0.00     0.049 C 
BRANCH  12  13
HETATM   13  C7  UNL     1      65.780  33.205  72.001  1.00  0.00     0.274 C 
BRANCH  13  14
HETATM   14  N2  UNL     1      64.460  33.578  71.618  1.00  0.00     0.088 N 
HETATM   15  C8  UNL     1      63.421  33.314  72.537  1.00  0.00     0.272 C 
HETATM   16  C9  UNL     1      62.866  34.672  72.933  1.00  0.00     0.032 C 
HETATM   17  C10 UNL     1      63.059  35.482  71.679  1.00  0.00     0.032 C 
HETATM   18  C11 UNL     1      64.302  34.880  71.072  1.00  0.00     0.272 C 
ENDBRANCH  13  14
ENDBRANCH  12  13
ENDBRANCH  11  12
ENDBRANCH   1  11
TORSDOF 5
ENDMDL
