MODEL 1
REMARK VINA RESULT: -7.561226857      0.000      0.000
REMARK  2 active torsions:
REMARK  status: ('A' for Active; 'I' for Inactive)
REMARK    1  A    between atoms: C2_2  and  C3_3 
REMARK    2  A    between atoms: C3_3  and  N1_4 
ROOT
HETATM    1  N1  UNL     1      26.939   1.870  -8.892  1.00  0.00    -0.272 N 
HETATM    2  C4  UNL     1      25.785   1.779  -8.195  1.00  0.00     0.319 C 
HETATM    3  O1  UNL     1      25.947   1.215  -7.086  1.00  0.00    -0.262 OA
HETATM    4  C5  UNL     1      24.561   2.222  -8.583  1.00  0.00     0.314 C 
HETATM    5  O2  UNL     1      23.694   2.204  -7.666  1.00  0.00    -0.262 OA
HETATM    6  N2  UNL     1      24.121   2.674  -9.778  1.00  0.00    -0.318 N 
ATOM      7  H2  UNL     1      23.196   3.104  -9.776  1.00  0.00     0.169 HD
HETATM    8  C6  UNL     1      24.744   2.631 -10.973  1.00  0.00     0.051 A 
HETATM    9  C7  UNL     1      23.944   2.871 -12.046  1.00  0.00     0.030 A 
HETATM   10  C8  UNL     1      24.438   2.862 -13.339  1.00  0.00     0.002 A 
HETATM   11  C9  UNL     1      25.785   2.601 -13.551  1.00  0.00     0.001 A 
HETATM   12  C10 UNL     1      26.575   2.362 -12.447  1.00  0.00     0.019 A 
HETATM   13  C11 UNL     1      26.087   2.370 -11.160  1.00  0.00     0.059 A 
HETATM   14  C12 UNL     1      27.076   2.100 -10.209  1.00  0.00     0.263 C 
HETATM   15  O3  UNL     1      28.235   2.075 -10.660  1.00  0.00    -0.267 OA
ENDROOT
BRANCH   1  16
HETATM   16  C3  UNL     1      28.176   1.710  -8.193  1.00  0.00     0.162 C 
BRANCH  16  17
HETATM   17  C2  UNL     1      28.613   2.900  -7.453  1.00  0.00    -0.017 C 
HETATM   18  C1  UNL     1      29.379   2.765  -6.397  1.00  0.00     0.008 C 
ENDBRANCH  16  17
ENDBRANCH   1  16
TORSDOF 2
ENDMDL
MODEL 2
REMARK VINA RESULT: -7.110923601      2.065      3.213
REMARK  2 active torsions:
REMARK  status: ('A' for Active; 'I' for Inactive)
REMARK    1  A    between atoms: C2_2  and  C3_3 
REMARK    2  A    between atoms: C3_3  and  N1_4 
ROOT
HETATM    1  N1  UNL     1      27.410   2.427  -8.539  1.00  0.00    -0.272 N 
HETATM    2  C4  UNL     1      27.346   1.626  -9.625  1.00  0.00     0.319 C 
HETATM    3  O1  UNL     1      28.415   0.996  -9.810  1.00  0.00    -0.262 OA
HETATM    4  C5  UNL     1      26.289   1.470 -10.462  1.00  0.00     0.314 C 
HETATM    5  O2  UNL     1      26.412   0.511 -11.273  1.00  0.00    -0.262 OA
HETATM    6  N2  UNL     1      25.135   2.166 -10.571  1.00  0.00    -0.318 N 
ATOM      7  H2  UNL     1      24.423   1.751 -11.171  1.00  0.00     0.169 HD
HETATM    8  C6  UNL     1      24.802   3.336  -9.989  1.00  0.00     0.051 A 
HETATM    9  C7  UNL     1      23.713   3.951 -10.521  1.00  0.00     0.030 A 
HETATM   10  C8  UNL     1      23.248   5.160 -10.031  1.00  0.00     0.002 A 
HETATM   11  C9  UNL     1      23.908   5.763  -8.970  1.00  0.00     0.001 A 
HETATM   12  C10 UNL     1      25.009   5.119  -8.448  1.00  0.00     0.019 A 
HETATM   13  C11 UNL     1      25.475   3.917  -8.933  1.00  0.00     0.059 A 
HETATM   14  C12 UNL     1      26.603   3.461  -8.244  1.00  0.00     0.263 C 
HETATM   15  O3  UNL     1      26.884   4.111  -7.221  1.00  0.00    -0.267 OA
ENDROOT
BRANCH   1  16
HETATM   16  C3  UNL     1      28.432   2.186  -7.568  1.00  0.00     0.162 C 
BRANCH  16  17
HETATM   17  C2  UNL     1      28.292   0.918  -6.843  1.00  0.00    -0.017 C 
HETATM   18  C1  UNL     1      28.822   0.790  -5.649  1.00  0.00     0.008 C 
ENDBRANCH  16  17
ENDBRANCH   1  16
TORSDOF 2
ENDMDL
MODEL 3
REMARK VINA RESULT: -7.045423928      2.455      2.608
REMARK  2 active torsions:
REMARK  status: ('A' for Active; 'I' for Inactive)
REMARK    1  A    between atoms: C2_2  and  C3_3 
REMARK    2  A    between atoms: C3_3  and  N1_4 
ROOT
HETATM    1  N1  UNL     1      26.651   2.780  -8.843  1.00  0.00    -0.272 N 
HETATM    2  C4  UNL     1      25.571   2.524  -8.073  1.00  0.00     0.319 C 
HETATM    3  O1  UNL     1      25.552   1.338  -7.667  1.00  0.00    -0.262 OA
HETATM    4  C5  UNL     1      24.585   3.395  -7.736  1.00  0.00     0.314 C 
HETATM    5  O2  UNL     1      23.806   2.967  -6.840  1.00  0.00    -0.262 OA
HETATM    6  N2  UNL     1      24.301   4.633  -8.198  1.00  0.00    -0.318 N 
ATOM      7  H2  UNL     1      23.601   5.153  -7.669  1.00  0.00     0.169 HD
HETATM    8  C6  UNL     1      24.821   5.270  -9.266  1.00  0.00     0.051 A 
HETATM    9  C7  UNL     1      24.129   6.368  -9.672  1.00  0.00     0.030 A 
HETATM   10  C8  UNL     1      24.538   7.127 -10.755  1.00  0.00     0.002 A 
HETATM   11  C9  UNL     1      25.684   6.762 -11.447  1.00  0.00     0.001 A 
HETATM   12  C10 UNL     1      26.369   5.647 -11.015  1.00  0.00     0.019 A 
HETATM   13  C11 UNL     1      25.965   4.889  -9.939  1.00  0.00     0.059 A 
HETATM   14  C12 UNL     1      26.817   3.808  -9.693  1.00  0.00     0.263 C 
HETATM   15  O3  UNL     1      27.868   3.815 -10.359  1.00  0.00    -0.267 OA
ENDROOT
BRANCH   1  16
HETATM   16  C3  UNL     1      27.765   1.887  -8.779  1.00  0.00     0.162 C 
BRANCH  16  17
HETATM   17  C2  UNL     1      28.422   1.828  -7.468  1.00  0.00    -0.017 C 
HETATM   18  C1  UNL     1      29.052   2.883  -7.008  1.00  0.00     0.008 C 
ENDBRANCH  16  17
ENDBRANCH   1  16
TORSDOF 2
ENDMDL
MODEL 4
REMARK VINA RESULT: -6.928319968      2.181      2.324
REMARK  2 active torsions:
REMARK  status: ('A' for Active; 'I' for Inactive)
REMARK    1  A    between atoms: C2_2  and  C3_3 
REMARK    2  A    between atoms: C3_3  and  N1_4 
ROOT
HETATM    1  N1  UNL     1      26.157   2.727  -8.933  1.00  0.00    -0.272 N 
HETATM    2  C4  UNL     1      25.933   3.986  -8.497  1.00  0.00     0.319 C 
HETATM    3  O1  UNL     1      25.672   4.021  -7.270  1.00  0.00    -0.262 OA
HETATM    4  C5  UNL     1      25.970   5.123  -9.237  1.00  0.00     0.314 C 
HETATM    5  O2  UNL     1      25.932   6.183  -8.553  1.00  0.00    -0.262 OA
HETATM    6  N2  UNL     1      26.039   5.308 -10.575  1.00  0.00    -0.318 N 
ATOM      7  H2  UNL     1      26.218   6.264 -10.881  1.00  0.00     0.169 HD
HETATM    8  C6  UNL     1      25.901   4.394 -11.556  1.00  0.00     0.051 A 
HETATM    9  C7  UNL     1      25.706   4.912 -12.798  1.00  0.00     0.030 A 
HETATM   10  C8  UNL     1      25.546   4.100 -13.908  1.00  0.00     0.002 A 
HETATM   11  C9  UNL     1      25.586   2.722 -13.754  1.00  0.00     0.001 A 
HETATM   12  C10 UNL     1      25.786   2.221 -12.486  1.00  0.00     0.019 A 
HETATM   13  C11 UNL     1      25.944   3.025 -11.379  1.00  0.00     0.059 A 
HETATM   14  C12 UNL     1      26.132   2.291 -10.204  1.00  0.00     0.263 C 
HETATM   15  O3  UNL     1      26.298   1.070 -10.377  1.00  0.00    -0.267 OA
ENDROOT
BRANCH   1  16
HETATM   16  C3  UNL     1      26.457   1.712  -7.972  1.00  0.00     0.162 C 
BRANCH  16  17
HETATM   17  C2  UNL     1      27.888   1.539  -7.698  1.00  0.00    -0.017 C 
HETATM   18  C1  UNL     1      28.277   0.690  -6.776  1.00  0.00     0.008 C 
ENDBRANCH  16  17
ENDBRANCH   1  16
TORSDOF 2
ENDMDL
MODEL 5
REMARK VINA RESULT: -6.928235531      3.116      3.301
REMARK  2 active torsions:
REMARK  status: ('A' for Active; 'I' for Inactive)
REMARK    1  A    between atoms: C2_2  and  C3_3 
REMARK    2  A    between atoms: C3_3  and  N1_4 
ROOT
HETATM    1  N1  UNL     1      26.896   3.080  -9.064  1.00  0.00    -0.272 N 
HETATM    2  C4  UNL     1      26.007   3.567  -8.171  1.00  0.00     0.319 C 
HETATM    3  O1  UNL     1      25.386   2.653  -7.578  1.00  0.00    -0.262 OA
HETATM    4  C5  UNL     1      25.761   4.873  -7.896  1.00  0.00     0.314 C 
HETATM    5  O2  UNL     1      25.038   5.056  -6.877  1.00  0.00    -0.262 OA
HETATM    6  N2  UNL     1      26.157   6.002  -8.526  1.00  0.00    -0.318 N 
ATOM      7  H2  UNL     1      25.976   6.873  -8.029  1.00  0.00     0.169 HD
HETATM    8  C6  UNL     1      26.762   6.125  -9.725  1.00  0.00     0.051 A 
HETATM    9  C7  UNL     1      26.758   7.382 -10.241  1.00  0.00     0.030 A 
HETATM   10  C8  UNL     1      27.339   7.668 -11.465  1.00  0.00     0.002 A 
HETATM   11  C9  UNL     1      27.943   6.647 -12.186  1.00  0.00     0.001 A 
HETATM   12  C10 UNL     1      27.934   5.382 -11.641  1.00  0.00     0.019 A 
HETATM   13  C11 UNL     1      27.356   5.093 -10.425  1.00  0.00     0.059 A 
HETATM   14  C12 UNL     1      27.472   3.743 -10.081  1.00  0.00     0.263 C 
HETATM   15  O3  UNL     1      28.213   3.080 -10.829  1.00  0.00    -0.267 OA
ENDROOT
BRANCH   1  16
HETATM   16  C3  UNL     1      27.299   1.712  -8.954  1.00  0.00     0.162 C 
BRANCH  16  17
HETATM   17  C2  UNL     1      28.435   1.485  -8.053  1.00  0.00    -0.017 C 
HETATM   18  C1  UNL     1      28.266   0.782  -6.958  1.00  0.00     0.008 C 
ENDBRANCH  16  17
ENDBRANCH   1  16
TORSDOF 2
ENDMDL
