MODEL 1
REMARK VINA RESULT: -7.946567794      0.000      0.000
REMARK  2 active torsions:
REMARK  status: ('A' for Active; 'I' for Inactive)
REMARK    1  A    between atoms: N2_5  and  C4_6 
REMARK    2  A    between atoms: C4_6  and  C5_7 
ROOT
HETATM    1  N1  UNL     1      22.258   2.376  -8.264  1.00  0.00    -0.191 NA
HETATM    2  C1  UNL     1      23.307   2.265  -8.722  1.00  0.00     0.106 C 
HETATM    3  C2  UNL     1      24.622   2.123  -9.277  1.00  0.00     0.128 A 
HETATM    4  C3  UNL     1      25.723   2.647  -8.636  1.00  0.00     0.124 A 
HETATM    5  N2  UNL     1      26.975   2.510  -9.165  1.00  0.00    -0.304 N 
HETATM    6  C11 UNL     1      27.066   1.847 -10.323  1.00  0.00     0.329 A 
HETATM    7  O1  UNL     1      28.214   1.708 -10.829  1.00  0.00    -0.246 OA
HETATM    8  N3  UNL     1      25.993   1.322 -10.970  1.00  0.00    -0.274 N 
ATOM      9  H3  UNL     1      26.127   0.827 -11.851  1.00  0.00     0.173 HD
HETATM   10  C12 UNL     1      24.765   1.449 -10.464  1.00  0.00     0.271 A 
HETATM   11  O2  UNL     1      23.735   0.981 -11.024  1.00  0.00    -0.266 OA
ENDROOT
BRANCH   5  12
HETATM   12  C4  UNL     1      28.111   3.076  -8.467  1.00  0.00     0.171 C 
BRANCH  12  13
HETATM   13  C5  UNL     1      28.517   2.322  -7.266  1.00  0.00    -0.040 A 
HETATM   14  C6  UNL     1      29.287   2.946  -6.288  1.00  0.00     0.009 A 
HETATM   15  C7  UNL     1      29.701   2.318  -5.148  1.00  0.00     0.001 A 
HETATM   16  C8  UNL     1      29.347   0.996  -4.935  1.00  0.00     0.000 A 
HETATM   17  C9  UNL     1      28.587   0.344  -5.875  1.00  0.00     0.001 A 
HETATM   18  C10 UNL     1      28.177   1.008  -7.031  1.00  0.00     0.009 A 
ENDBRANCH  12  13
ENDBRANCH   5  12
TORSDOF 2
ENDMDL
MODEL 2
REMARK VINA RESULT: -7.817104298      1.646      1.893
REMARK  2 active torsions:
REMARK  status: ('A' for Active; 'I' for Inactive)
REMARK    1  A    between atoms: N2_5  and  C4_6 
REMARK    2  A    between atoms: C4_6  and  C5_7 
ROOT
HETATM    1  N1  UNL     1      22.155   0.882  -8.664  1.00  0.00    -0.191 NA
HETATM    2  C1  UNL     1      23.087   1.549  -8.761  1.00  0.00     0.106 C 
HETATM    3  C2  UNL     1      24.257   2.367  -8.894  1.00  0.00     0.128 A 
HETATM    4  C3  UNL     1      25.519   1.818  -8.833  1.00  0.00     0.124 A 
HETATM    5  N2  UNL     1      26.633   2.599  -8.961  1.00  0.00    -0.304 N 
HETATM    6  C11 UNL     1      26.427   3.908  -9.144  1.00  0.00     0.329 A 
HETATM    7  O1  UNL     1      27.443   4.648  -9.265  1.00  0.00    -0.246 OA
HETATM    8  N3  UNL     1      25.192   4.469  -9.207  1.00  0.00    -0.274 N 
ATOM      9  H3  UNL     1      25.100   5.474  -9.349  1.00  0.00     0.173 HD
HETATM   10  C12 UNL     1      24.097   3.717  -9.085  1.00  0.00     0.271 A 
HETATM   11  O2  UNL     1      22.926   4.187  -9.135  1.00  0.00    -0.266 OA
ENDROOT
BRANCH   5  12
HETATM   12  C4  UNL     1      27.944   1.989  -8.889  1.00  0.00     0.171 C 
BRANCH  12  13
HETATM   13  C5  UNL     1      28.450   1.808  -7.515  1.00  0.00    -0.040 A 
HETATM   14  C6  UNL     1      29.145   2.843  -6.894  1.00  0.00     0.009 A 
HETATM   15  C7  UNL     1      29.643   2.756  -5.626  1.00  0.00     0.001 A 
HETATM   16  C8  UNL     1      29.457   1.588  -4.904  1.00  0.00     0.000 A 
HETATM   17  C9  UNL     1      28.777   0.543  -5.479  1.00  0.00     0.001 A 
HETATM   18  C10 UNL     1      28.279   0.658  -6.777  1.00  0.00     0.009 A 
ENDBRANCH  12  13
ENDBRANCH   5  12
TORSDOF 2
ENDMDL
MODEL 3
REMARK VINA RESULT: -7.528333162      1.440      1.489
REMARK  2 active torsions:
REMARK  status: ('A' for Active; 'I' for Inactive)
REMARK    1  A    between atoms: N2_5  and  C4_6 
REMARK    2  A    between atoms: C4_6  and  C5_7 
ROOT
HETATM    1  N1  UNL     1      23.663   4.897  -7.128  1.00  0.00    -0.191 NA
HETATM    2  C1  UNL     1      24.185   4.129  -7.806  1.00  0.00     0.106 C 
HETATM    3  C2  UNL     1      24.843   3.162  -8.636  1.00  0.00     0.128 A 
HETATM    4  C3  UNL     1      26.172   2.850  -8.446  1.00  0.00     0.124 A 
HETATM    5  N2  UNL     1      26.797   1.929  -9.239  1.00  0.00    -0.304 N 
HETATM    6  C11 UNL     1      26.054   1.359 -10.193  1.00  0.00     0.329 A 
HETATM    7  O1  UNL     1      26.613   0.504 -10.935  1.00  0.00    -0.246 OA
HETATM    8  N3  UNL     1      24.744   1.651 -10.396  1.00  0.00    -0.274 N 
ATOM      9  H3  UNL     1      24.230   1.181 -11.141  1.00  0.00     0.173 HD
HETATM   10  C12 UNL     1      24.121   2.549  -9.630  1.00  0.00     0.271 A 
HETATM   11  O2  UNL     1      22.906   2.858  -9.775  1.00  0.00    -0.266 OA
ENDROOT
BRANCH   5  12
HETATM   12  C4  UNL     1      28.196   1.628  -9.014  1.00  0.00     0.171 C 
BRANCH  12  13
HETATM   13  C5  UNL     1      28.588   1.616  -7.592  1.00  0.00    -0.040 A 
HETATM   14  C6  UNL     1      29.196   2.738  -7.035  1.00  0.00     0.009 A 
HETATM   15  C7  UNL     1      29.586   2.807  -5.728  1.00  0.00     0.001 A 
HETATM   16  C8  UNL     1      29.375   1.717  -4.899  1.00  0.00     0.000 A 
HETATM   17  C9  UNL     1      28.778   0.591  -5.409  1.00  0.00     0.001 A 
HETATM   18  C10 UNL     1      28.389   0.546  -6.747  1.00  0.00     0.009 A 
ENDBRANCH  12  13
ENDBRANCH   5  12
TORSDOF 2
ENDMDL
MODEL 4
REMARK VINA RESULT: -7.382096650      3.321      5.783
REMARK  2 active torsions:
REMARK  status: ('A' for Active; 'I' for Inactive)
REMARK    1  A    between atoms: N2_5  and  C4_6 
REMARK    2  A    between atoms: C4_6  and  C5_7 
ROOT
HETATM    1  N1  UNL     1      25.688   5.027  -6.989  1.00  0.00    -0.191 NA
HETATM    2  C1  UNL     1      25.383   4.266  -7.796  1.00  0.00     0.106 C 
HETATM    3  C2  UNL     1      25.021   3.310  -8.802  1.00  0.00     0.128 A 
HETATM    4  C3  UNL     1      25.836   3.080  -9.889  1.00  0.00     0.124 A 
HETATM    5  N2  UNL     1      25.489   2.169 -10.846  1.00  0.00    -0.304 N 
HETATM    6  C11 UNL     1      24.331   1.526 -10.668  1.00  0.00     0.329 A 
HETATM    7  O1  UNL     1      23.993   0.679 -11.540  1.00  0.00    -0.246 OA
HETATM    8  N3  UNL     1      23.514   1.737  -9.604  1.00  0.00    -0.274 N 
ATOM      9  H3  UNL     1      22.643   1.214  -9.524  1.00  0.00     0.173 HD
HETATM   10  C12 UNL     1      23.841   2.624  -8.662  1.00  0.00     0.271 A 
HETATM   11  O2  UNL     1      23.119   2.859  -7.654  1.00  0.00    -0.266 OA
ENDROOT
BRANCH   5  12
HETATM   12  C4  UNL     1      26.368   1.954 -11.978  1.00  0.00     0.171 C 
BRANCH  12  13
HETATM   13  C5  UNL     1      26.407   3.078 -12.932  1.00  0.00    -0.040 A 
HETATM   14  C6  UNL     1      27.541   3.883 -13.004  1.00  0.00     0.009 A 
HETATM   15  C7  UNL     1      27.657   4.940 -13.861  1.00  0.00     0.001 A 
HETATM   16  C8  UNL     1      26.604   5.243 -14.709  1.00  0.00     0.000 A 
HETATM   17  C9  UNL     1      25.467   4.474 -14.670  1.00  0.00     0.001 A 
HETATM   18  C10 UNL     1      25.374   3.400 -13.785  1.00  0.00     0.009 A 
ENDBRANCH  12  13
ENDBRANCH   5  12
TORSDOF 2
ENDMDL
MODEL 5
REMARK VINA RESULT: -7.337286104      2.736      3.530
REMARK  2 active torsions:
REMARK  status: ('A' for Active; 'I' for Inactive)
REMARK    1  A    between atoms: N2_5  and  C4_6 
REMARK    2  A    between atoms: C4_6  and  C5_7 
ROOT
HETATM    1  N1  UNL     1      27.173   7.727 -10.364  1.00  0.00    -0.191 NA
HETATM    2  C1  UNL     1      26.830   6.731  -9.902  1.00  0.00     0.106 C 
HETATM    3  C2  UNL     1      26.420   5.488  -9.316  1.00  0.00     0.128 A 
HETATM    4  C3  UNL     1      27.279   4.413  -9.255  1.00  0.00     0.124 A 
HETATM    5  N2  UNL     1      26.886   3.230  -8.696  1.00  0.00    -0.304 N 
HETATM    6  C11 UNL     1      25.638   3.179  -8.220  1.00  0.00     0.329 A 
HETATM    7  O1  UNL     1      25.255   2.095  -7.698  1.00  0.00    -0.246 OA
HETATM    8  N3  UNL     1      24.776   4.227  -8.269  1.00  0.00    -0.274 N 
ATOM      9  H3  UNL     1      23.835   4.126  -7.888  1.00  0.00     0.173 HD
HETATM   10  C12 UNL     1      25.147   5.388  -8.812  1.00  0.00     0.271 A 
HETATM   11  O2  UNL     1      24.386   6.392  -8.883  1.00  0.00    -0.266 OA
ENDROOT
BRANCH   5  12
HETATM   12  C4  UNL     1      27.814   2.119  -8.652  1.00  0.00     0.171 C 
BRANCH  12  13
HETATM   13  C5  UNL     1      28.415   1.888  -7.325  1.00  0.00    -0.040 A 
HETATM   14  C6  UNL     1      29.157   2.899  -6.719  1.00  0.00     0.009 A 
HETATM   15  C7  UNL     1      29.743   2.765  -5.493  1.00  0.00     0.001 A 
HETATM   16  C8  UNL     1      29.603   1.573  -4.801  1.00  0.00     0.000 A 
HETATM   17  C9  UNL     1      28.878   0.551  -5.363  1.00  0.00     0.001 A 
HETATM   18  C10 UNL     1      28.290   0.713  -6.617  1.00  0.00     0.009 A 
ENDBRANCH  12  13
ENDBRANCH   5  12
TORSDOF 2
ENDMDL
