MODEL 1
REMARK VINA RESULT: -6.702648518      0.000      0.000
REMARK  11 active torsions:
REMARK  status: ('A' for Active; 'I' for Inactive)
REMARK    1  A    between atoms: C2_2  and  N1_3 
REMARK    2  A    between atoms: C2_2  and  C11_29 
REMARK    3  A    between atoms: N1_3  and  C3_5 
REMARK    4  A    between atoms: C3_5  and  C4_6 
REMARK    5  A    between atoms: C3_5  and  C6_12 
REMARK    6  A    between atoms: C4_6  and  N2_8 
REMARK    7  A    between atoms: C6_12  and  N3_13 
REMARK    8  A    between atoms: C6_12  and  C8_18 
REMARK       I    between atoms: C8_18  and  N6_20 
REMARK       I    between atoms: C9_22  and  N8_24 
REMARK       I    between atoms: C11_29  and  N11_31 
REMARK    9  A    between atoms: N11_31  and  C12_33 
REMARK   10  A    between atoms: C12_33  and  C13_34 
REMARK   11  A    between atoms: C12_33  and  C14_37 
ROOT
HETATM    1  C3  UNL     1      47.879  21.646  36.958  1.00  0.00     0.139 C 
ENDROOT
BRANCH   1   2
HETATM    2  N1  UNL     1      48.171  22.928  36.627  1.00  0.00    -0.401 N 
ATOM      3  H1  UNL     1      48.533  23.003  35.676  1.00  0.00     0.154 HD
BRANCH   2   4
HETATM    4  C2  UNL     1      48.104  24.138  37.239  1.00  0.00     0.165 C 
HETATM    5  C1  UNL     1      48.273  24.262  38.736  1.00  0.00     0.042 C 
BRANCH   4   6
HETATM    6  C11 UNL     1      46.916  24.985  36.835  1.00  0.00     0.240 C 
HETATM    7  O2  UNL     1      46.641  25.093  35.644  1.00  0.00    -0.271 OA
HETATM    8  N11 UNL     1      46.186  25.607  37.847  1.00  0.00    -0.346 N 
ATOM      9  H11 UNL     1      46.456  25.487  38.824  1.00  0.00     0.163 HD
BRANCH   8  10
HETATM   10  C12 UNL     1      45.021  26.441  37.494  1.00  0.00     0.181 C 
BRANCH  10  11
HETATM   11  C13 UNL     1      43.804  25.592  37.429  1.00  0.00     0.254 C 
HETATM   12  N12 UNL     1      42.604  25.972  36.786  1.00  0.00    -0.060 NA
HETATM   13  O3  UNL     1      43.805  24.441  37.976  1.00  0.00    -0.275 OA
ENDBRANCH  10  11
BRANCH  10  14
HETATM   14  C14 UNL     1      44.835  27.546  38.479  1.00  0.00    -0.022 C 
HETATM   15  C15 UNL     1      44.301  27.028  39.816  1.00  0.00     0.017 C 
HETATM   16  C16 UNL     1      43.947  28.652  37.956  1.00  0.00     0.017 C 
HETATM   17  C17 UNL     1      46.171  28.175  38.802  1.00  0.00     0.017 C 
ENDBRANCH  10  14
ENDBRANCH   8  10
ENDBRANCH   4   6
ENDBRANCH   2   4
ENDBRANCH   1   2
BRANCH   1  18
HETATM   18  C4  UNL     1      48.760  20.475  36.683  1.00  0.00     0.204 C 
HETATM   19  C5  UNL     1      49.401  20.430  35.323  1.00  0.00     0.042 C 
BRANCH  18  20
HETATM   20  N2  UNL     1      48.084  19.206  36.971  1.00  0.00    -0.073 N 
ATOM     21  H23 UNL     1      47.246  19.351  37.535  1.00  0.00     0.274 HD
ATOM     22  H22 UNL     1      47.648  18.818  36.134  1.00  0.00     0.274 HD
ATOM     23  H21 UNL     1      48.713  18.532  37.409  1.00  0.00     0.274 HD
ENDBRANCH  18  20
ENDBRANCH   1  18
BRANCH   1  24
HETATM   24  C6  UNL     1      46.494  21.249  36.362  1.00  0.00     0.200 C 
BRANCH  24  25
HETATM   25  N3  UNL     1      46.355  21.938  35.133  1.00  0.00    -0.352 N 
HETATM   26  C7  UNL     1      46.202  21.481  33.962  1.00  0.00     0.197 C 
HETATM   27  N4  UNL     1      46.129  20.119  33.583  1.00  0.00    -0.067 NA
HETATM   28  N5  UNL     1      46.090  22.438  32.885  1.00  0.00    -0.067 NA
ATOM     29  H3  UNL     1      46.383  22.955  35.200  1.00  0.00     0.162 HD
ENDBRANCH  24  25
BRANCH  24  30
HETATM   30  C8  UNL     1      45.390  21.579  37.284  1.00  0.00     0.248 C 
HETATM   31  O1  UNL     1      45.561  21.899  38.492  1.00  0.00    -0.271 OA
HETATM   32  N6  UNL     1      44.001  21.567  36.885  1.00  0.00    -0.299 N 
HETATM   33  C9  UNL     1      43.368  20.450  36.704  1.00  0.00     0.197 C 
ATOM     34  H6  UNL     1      43.511  22.450  36.745  1.00  0.00     0.171 HD
HETATM   35  N7  UNL     1      42.012  20.405  36.313  1.00  0.00    -0.063 NA
HETATM   36  N8  UNL     1      44.110  19.251  36.913  1.00  0.00    -0.307 N 
HETATM   37  C10 UNL     1      43.759  18.288  37.671  1.00  0.00     0.203 C 
ATOM     38  H8  UNL     1      44.995  19.156  36.415  1.00  0.00     0.170 HD
HETATM   39  N9  UNL     1      42.565  18.240  38.440  1.00  0.00    -0.066 NA
HETATM   40  N10 UNL     1      44.664  17.172  37.733  1.00  0.00    -0.066 NA
ENDBRANCH  24  30
ENDBRANCH   1  24
TORSDOF 11
ENDMDL
MODEL 2
REMARK VINA RESULT: -6.574186859      2.521      7.022
REMARK  11 active torsions:
REMARK  status: ('A' for Active; 'I' for Inactive)
REMARK    1  A    between atoms: C2_2  and  N1_3 
REMARK    2  A    between atoms: C2_2  and  C11_29 
REMARK    3  A    between atoms: N1_3  and  C3_5 
REMARK    4  A    between atoms: C3_5  and  C4_6 
REMARK    5  A    between atoms: C3_5  and  C6_12 
REMARK    6  A    between atoms: C4_6  and  N2_8 
REMARK    7  A    between atoms: C6_12  and  N3_13 
REMARK    8  A    between atoms: C6_12  and  C8_18 
REMARK       I    between atoms: C8_18  and  N6_20 
REMARK       I    between atoms: C9_22  and  N8_24 
REMARK       I    between atoms: C11_29  and  N11_31 
REMARK    9  A    between atoms: N11_31  and  C12_33 
REMARK   10  A    between atoms: C12_33  and  C13_34 
REMARK   11  A    between atoms: C12_33  and  C14_37 
ROOT
HETATM    1  C3  UNL     1      46.849  22.351  36.134  1.00  0.00     0.139 C 
ENDROOT
BRANCH   1   2
HETATM    2  N1  UNL     1      46.113  21.369  36.713  1.00  0.00    -0.401 N 
ATOM      3  H1  UNL     1      45.264  21.735  37.145  1.00  0.00     0.154 HD
BRANCH   2   4
HETATM    4  C2  UNL     1      46.219  20.025  36.864  1.00  0.00     0.165 C 
HETATM    5  C1  UNL     1      46.155  19.101  35.670  1.00  0.00     0.042 C 
BRANCH   4   6
HETATM    6  C11 UNL     1      45.341  19.440  37.950  1.00  0.00     0.240 C 
HETATM    7  O2  UNL     1      45.085  20.121  38.938  1.00  0.00    -0.271 OA
HETATM    8  N11 UNL     1      44.863  18.142  37.771  1.00  0.00    -0.346 N 
ATOM      9  H11 UNL     1      45.105  17.616  36.931  1.00  0.00     0.163 HD
BRANCH   8  10
HETATM   10  C12 UNL     1      44.004  17.537  38.807  1.00  0.00     0.181 C 
BRANCH  10  11
HETATM   11  C13 UNL     1      42.672  18.194  38.794  1.00  0.00     0.254 C 
HETATM   12  N12 UNL     1      41.715  18.070  39.827  1.00  0.00    -0.060 NA
HETATM   13  O3  UNL     1      42.336  18.925  37.805  1.00  0.00    -0.275 OA
ENDBRANCH  10  11
BRANCH  10  14
HETATM   14  C14 UNL     1      43.862  16.067  38.594  1.00  0.00    -0.022 C 
HETATM   15  C15 UNL     1      44.801  15.561  37.496  1.00  0.00     0.017 C 
HETATM   16  C16 UNL     1      42.439  15.654  38.295  1.00  0.00     0.017 C 
HETATM   17  C17 UNL     1      44.278  15.326  39.844  1.00  0.00     0.017 C 
ENDBRANCH  10  14
ENDBRANCH   8  10
ENDBRANCH   4   6
ENDBRANCH   2   4
ENDBRANCH   1   2
BRANCH   1  18
HETATM   18  C4  UNL     1      47.778  23.259  36.863  1.00  0.00     0.204 C 
HETATM   19  C5  UNL     1      49.246  23.055  36.605  1.00  0.00     0.042 C 
BRANCH  18  20
HETATM   20  N2  UNL     1      47.510  23.269  38.305  1.00  0.00    -0.073 N 
ATOM     21  H23 UNL     1      47.254  24.202  38.629  1.00  0.00     0.274 HD
ATOM     22  H22 UNL     1      46.642  22.781  38.526  1.00  0.00     0.274 HD
ATOM     23  H21 UNL     1      48.294  22.893  38.839  1.00  0.00     0.274 HD
ENDBRANCH  18  20
ENDBRANCH   1  18
BRANCH   1  24
HETATM   24  C6  UNL     1      45.915  23.303  35.326  1.00  0.00     0.200 C 
BRANCH  24  25
HETATM   25  N3  UNL     1      44.800  23.592  36.150  1.00  0.00    -0.352 N 
HETATM   26  C7  UNL     1      44.575  24.598  36.886  1.00  0.00     0.197 C 
HETATM   27  N4  UNL     1      45.417  25.721  37.071  1.00  0.00    -0.067 NA
HETATM   28  N5  UNL     1      43.333  24.617  37.623  1.00  0.00    -0.067 NA
ATOM     29  H3  UNL     1      44.066  22.883  36.150  1.00  0.00     0.162 HD
ENDBRANCH  24  25
BRANCH  24  30
HETATM   30  C8  UNL     1      45.490  22.697  34.050  1.00  0.00     0.248 C 
HETATM   31  O1  UNL     1      44.628  21.780  33.965  1.00  0.00    -0.271 OA
HETATM   32  N6  UNL     1      46.027  23.099  32.770  1.00  0.00    -0.299 N 
HETATM   33  C9  UNL     1      47.223  22.754  32.409  1.00  0.00     0.197 C 
ATOM     34  H6  UNL     1      45.456  23.663  32.141  1.00  0.00     0.171 HD
HETATM   35  N7  UNL     1      47.776  23.131  31.166  1.00  0.00    -0.063 NA
HETATM   36  N8  UNL     1      47.971  21.968  33.334  1.00  0.00    -0.307 N 
HETATM   37  C10 UNL     1      48.541  20.859  33.071  1.00  0.00     0.203 C 
ATOM     38  H8  UNL     1      48.057  22.324  34.287  1.00  0.00     0.170 HD
HETATM   39  N9  UNL     1      48.532  20.210  31.807  1.00  0.00    -0.066 NA
HETATM   40  N10 UNL     1      49.244  20.236  34.160  1.00  0.00    -0.066 NA
ENDBRANCH  24  30
ENDBRANCH   1  24
TORSDOF 11
ENDMDL
MODEL 3
REMARK VINA RESULT: -6.486055880      3.008      6.337
REMARK  11 active torsions:
REMARK  status: ('A' for Active; 'I' for Inactive)
REMARK    1  A    between atoms: C2_2  and  N1_3 
REMARK    2  A    between atoms: C2_2  and  C11_29 
REMARK    3  A    between atoms: N1_3  and  C3_5 
REMARK    4  A    between atoms: C3_5  and  C4_6 
REMARK    5  A    between atoms: C3_5  and  C6_12 
REMARK    6  A    between atoms: C4_6  and  N2_8 
REMARK    7  A    between atoms: C6_12  and  N3_13 
REMARK    8  A    between atoms: C6_12  and  C8_18 
REMARK       I    between atoms: C8_18  and  N6_20 
REMARK       I    between atoms: C9_22  and  N8_24 
REMARK       I    between atoms: C11_29  and  N11_31 
REMARK    9  A    between atoms: N11_31  and  C12_33 
REMARK   10  A    between atoms: C12_33  and  C13_34 
REMARK   11  A    between atoms: C12_33  and  C14_37 
ROOT
HETATM    1  C3  UNL     1      46.110  22.888  35.113  1.00  0.00     0.139 C 
ENDROOT
BRANCH   1   2
HETATM    2  N1  UNL     1      44.953  22.276  35.472  1.00  0.00    -0.401 N 
ATOM      3  H1  UNL     1      44.453  21.905  34.664  1.00  0.00     0.154 HD
BRANCH   2   4
HETATM    4  C2  UNL     1      44.293  22.031  36.632  1.00  0.00     0.165 C 
HETATM    5  C1  UNL     1      44.882  22.440  37.963  1.00  0.00     0.042 C 
BRANCH   4   6
HETATM    6  C11 UNL     1      43.765  20.620  36.773  1.00  0.00     0.240 C 
HETATM    7  O2  UNL     1      42.624  20.371  36.395  1.00  0.00    -0.271 OA
HETATM    8  N11 UNL     1      44.611  19.662  37.331  1.00  0.00    -0.346 N 
ATOM      9  H11 UNL     1      45.552  19.918  37.632  1.00  0.00     0.163 HD
BRANCH   8  10
HETATM   10  C12 UNL     1      44.133  18.274  37.485  1.00  0.00     0.181 C 
BRANCH  10  11
HETATM   11  C13 UNL     1      45.181  17.333  37.015  1.00  0.00     0.254 C 
HETATM   12  N12 UNL     1      45.112  15.929  37.163  1.00  0.00    -0.060 NA
HETATM   13  O3  UNL     1      46.222  17.784  36.434  1.00  0.00    -0.275 OA
ENDBRANCH  10  11
BRANCH  10  14
HETATM   14  C14 UNL     1      43.772  17.986  38.904  1.00  0.00    -0.022 C 
HETATM   15  C15 UNL     1      44.042  16.524  39.270  1.00  0.00     0.017 C 
HETATM   16  C16 UNL     1      42.341  18.350  39.229  1.00  0.00     0.017 C 
HETATM   17  C17 UNL     1      44.650  18.795  39.831  1.00  0.00     0.017 C 
ENDBRANCH  10  14
ENDBRANCH   8  10
ENDBRANCH   4   6
ENDBRANCH   2   4
ENDBRANCH   1   2
BRANCH   1  18
HETATM   18  C4  UNL     1      46.251  24.346  34.840  1.00  0.00     0.204 C 
HETATM   19  C5  UNL     1      47.647  24.842  34.581  1.00  0.00     0.042 C 
BRANCH  18  20
HETATM   20  N2  UNL     1      45.604  25.159  35.876  1.00  0.00    -0.073 N 
ATOM     21  H23 UNL     1      45.764  24.770  36.806  1.00  0.00     0.274 HD
ATOM     22  H22 UNL     1      46.077  26.055  35.994  1.00  0.00     0.274 HD
ATOM     23  H21 UNL     1      44.609  25.285  35.692  1.00  0.00     0.274 HD
ENDBRANCH  18  20
ENDBRANCH   1  18
BRANCH   1  24
HETATM   24  C6  UNL     1      46.709  22.188  33.855  1.00  0.00     0.200 C 
BRANCH  24  25
HETATM   25  N3  UNL     1      45.852  22.481  32.766  1.00  0.00    -0.352 N 
HETATM   26  C7  UNL     1      46.106  22.539  31.528  1.00  0.00     0.197 C 
HETATM   27  N4  UNL     1      47.359  22.317  30.906  1.00  0.00    -0.067 NA
HETATM   28  N5  UNL     1      45.015  22.868  30.640  1.00  0.00    -0.067 NA
ATOM     29  H3  UNL     1      44.882  22.674  33.018  1.00  0.00     0.162 HD
ENDBRANCH  24  25
BRANCH  24  30
HETATM   30  C8  UNL     1      46.840  20.732  34.052  1.00  0.00     0.248 C 
HETATM   31  O1  UNL     1      45.860  19.965  34.261  1.00  0.00    -0.271 OA
HETATM   32  N6  UNL     1      48.110  20.044  34.023  1.00  0.00    -0.299 N 
HETATM   33  C9  UNL     1      48.944  20.141  35.011  1.00  0.00     0.197 C 
ATOM     34  H6  UNL     1      48.355  19.473  33.214  1.00  0.00     0.171 HD
HETATM   35  N7  UNL     1      50.193  19.482  35.012  1.00  0.00    -0.063 NA
HETATM   36  N8  UNL     1      48.545  20.955  36.111  1.00  0.00    -0.307 N 
HETATM   37  C10 UNL     1      48.531  20.592  37.332  1.00  0.00     0.203 C 
ATOM     38  H8  UNL     1      48.245  21.908  35.902  1.00  0.00     0.170 HD
HETATM   39  N9  UNL     1      48.912  19.310  37.813  1.00  0.00    -0.066 NA
HETATM   40  N10 UNL     1      48.089  21.580  38.279  1.00  0.00    -0.066 NA
ENDBRANCH  24  30
ENDBRANCH   1  24
TORSDOF 11
ENDMDL
MODEL 4
REMARK VINA RESULT: -6.438661122      1.707      2.250
REMARK  11 active torsions:
REMARK  status: ('A' for Active; 'I' for Inactive)
REMARK    1  A    between atoms: C2_2  and  N1_3 
REMARK    2  A    between atoms: C2_2  and  C11_29 
REMARK    3  A    between atoms: N1_3  and  C3_5 
REMARK    4  A    between atoms: C3_5  and  C4_6 
REMARK    5  A    between atoms: C3_5  and  C6_12 
REMARK    6  A    between atoms: C4_6  and  N2_8 
REMARK    7  A    between atoms: C6_12  and  N3_13 
REMARK    8  A    between atoms: C6_12  and  C8_18 
REMARK       I    between atoms: C8_18  and  N6_20 
REMARK       I    between atoms: C9_22  and  N8_24 
REMARK       I    between atoms: C11_29  and  N11_31 
REMARK    9  A    between atoms: N11_31  and  C12_33 
REMARK   10  A    between atoms: C12_33  and  C13_34 
REMARK   11  A    between atoms: C12_33  and  C14_37 
ROOT
HETATM    1  C3  UNL     1      48.081  23.037  36.129  1.00  0.00     0.139 C 
ENDROOT
BRANCH   1   2
HETATM    2  N1  UNL     1      47.558  24.246  35.804  1.00  0.00    -0.401 N 
ATOM      3  H1  UNL     1      47.016  24.207  34.941  1.00  0.00     0.154 HD
BRANCH   2   4
HETATM    4  C2  UNL     1      47.574  25.495  36.336  1.00  0.00     0.165 C 
HETATM    5  C1  UNL     1      48.834  26.064  36.947  1.00  0.00     0.042 C 
BRANCH   4   6
HETATM    6  C11 UNL     1      46.426  25.795  37.277  1.00  0.00     0.240 C 
HETATM    7  O2  UNL     1      45.364  25.198  37.128  1.00  0.00    -0.271 OA
HETATM    8  N11 UNL     1      46.636  26.744  38.276  1.00  0.00    -0.346 N 
ATOM      9  H11 UNL     1      47.538  27.215  38.358  1.00  0.00     0.163 HD
BRANCH   8  10
HETATM   10  C12 UNL     1      45.541  27.064  39.213  1.00  0.00     0.181 C 
BRANCH  10  11
HETATM   11  C13 UNL     1      45.984  26.794  40.604  1.00  0.00     0.254 C 
HETATM   12  N12 UNL     1      47.263  27.124  41.109  1.00  0.00    -0.060 NA
HETATM   13  O3  UNL     1      45.187  26.233  41.425  1.00  0.00    -0.275 OA
ENDBRANCH  10  11
BRANCH  10  14
HETATM   14  C14 UNL     1      45.111  28.486  39.069  1.00  0.00    -0.022 C 
HETATM   15  C15 UNL     1      46.204  29.346  38.431  1.00  0.00     0.017 C 
HETATM   16  C16 UNL     1      44.663  29.096  40.377  1.00  0.00     0.017 C 
HETATM   17  C17 UNL     1      43.936  28.572  38.122  1.00  0.00     0.017 C 
ENDBRANCH  10  14
ENDBRANCH   8  10
ENDBRANCH   4   6
ENDBRANCH   2   4
ENDBRANCH   1   2
BRANCH   1  18
HETATM   18  C4  UNL     1      49.328  22.466  35.545  1.00  0.00     0.204 C 
HETATM   19  C5  UNL     1      49.781  23.056  34.237  1.00  0.00     0.042 C 
BRANCH  18  20
HETATM   20  N2  UNL     1      49.264  21.003  35.450  1.00  0.00    -0.073 N 
ATOM     21  H23 UNL     1      48.420  20.639  35.893  1.00  0.00     0.274 HD
ATOM     22  H22 UNL     1      49.084  20.700  34.493  1.00  0.00     0.274 HD
ATOM     23  H21 UNL     1      50.103  20.562  35.828  1.00  0.00     0.274 HD
ENDBRANCH  18  20
ENDBRANCH   1  18
BRANCH   1  24
HETATM   24  C6  UNL     1      47.005  21.926  35.931  1.00  0.00     0.200 C 
BRANCH  24  25
HETATM   25  N3  UNL     1      46.254  22.272  34.781  1.00  0.00    -0.352 N 
HETATM   26  C7  UNL     1      46.058  21.619  33.715  1.00  0.00     0.197 C 
HETATM   27  N4  UNL     1      46.561  20.333  33.402  1.00  0.00    -0.067 NA
HETATM   28  N5  UNL     1      45.236  22.236  32.699  1.00  0.00    -0.067 NA
ATOM     29  H3  UNL     1      45.803  23.187  34.817  1.00  0.00     0.162 HD
ENDBRANCH  24  25
BRANCH  24  30
HETATM   30  C8  UNL     1      46.134  21.795  37.115  1.00  0.00     0.248 C 
HETATM   31  O1  UNL     1      46.561  21.815  38.301  1.00  0.00    -0.271 OA
HETATM   32  N6  UNL     1      44.701  21.629  37.024  1.00  0.00    -0.299 N 
HETATM   33  C9  UNL     1      44.181  20.501  36.653  1.00  0.00     0.197 C 
ATOM     34  H6  UNL     1      44.090  22.412  37.255  1.00  0.00     0.171 HD
HETATM   35  N7  UNL     1      42.786  20.309  36.554  1.00  0.00    -0.063 NA
HETATM   36  N8  UNL     1      45.089  19.448  36.341  1.00  0.00    -0.307 N 
HETATM   37  C10 UNL     1      45.056  18.273  36.834  1.00  0.00     0.203 C 
ATOM     38  H8  UNL     1      45.828  19.652  35.667  1.00  0.00     0.170 HD
HETATM   39  N9  UNL     1      44.106  17.806  37.782  1.00  0.00    -0.066 NA
HETATM   40  N10 UNL     1      46.075  17.367  36.375  1.00  0.00    -0.066 NA
ENDBRANCH  24  30
ENDBRANCH   1  24
TORSDOF 11
ENDMDL
MODEL 5
REMARK VINA RESULT: -6.390825969      1.408      2.110
REMARK  11 active torsions:
REMARK  status: ('A' for Active; 'I' for Inactive)
REMARK    1  A    between atoms: C2_2  and  N1_3 
REMARK    2  A    between atoms: C2_2  and  C11_29 
REMARK    3  A    between atoms: N1_3  and  C3_5 
REMARK    4  A    between atoms: C3_5  and  C4_6 
REMARK    5  A    between atoms: C3_5  and  C6_12 
REMARK    6  A    between atoms: C4_6  and  N2_8 
REMARK    7  A    between atoms: C6_12  and  N3_13 
REMARK    8  A    between atoms: C6_12  and  C8_18 
REMARK       I    between atoms: C8_18  and  N6_20 
REMARK       I    between atoms: C9_22  and  N8_24 
REMARK       I    between atoms: C11_29  and  N11_31 
REMARK    9  A    between atoms: N11_31  and  C12_33 
REMARK   10  A    between atoms: C12_33  and  C13_34 
REMARK   11  A    between atoms: C12_33  and  C14_37 
ROOT
HETATM    1  C3  UNL     1      47.843  21.800  36.666  1.00  0.00     0.139 C 
ENDROOT
BRANCH   1   2
HETATM    2  N1  UNL     1      48.141  23.015  36.142  1.00  0.00    -0.401 N 
ATOM      3  H1  UNL     1      47.935  23.060  35.143  1.00  0.00     0.154 HD
BRANCH   2   4
HETATM    4  C2  UNL     1      48.644  24.187  36.608  1.00  0.00     0.165 C 
HETATM    5  C1  UNL     1      50.136  24.400  36.727  1.00  0.00     0.042 C 
BRANCH   4   6
HETATM    6  C11 UNL     1      48.001  24.687  37.884  1.00  0.00     0.240 C 
HETATM    7  O2  UNL     1      48.482  24.354  38.962  1.00  0.00    -0.271 OA
HETATM    8  N11 UNL     1      46.882  25.510  37.768  1.00  0.00    -0.346 N 
ATOM      9  H11 UNL     1      46.518  25.759  36.847  1.00  0.00     0.163 HD
BRANCH   8  10
HETATM   10  C12 UNL     1      46.227  26.019  38.989  1.00  0.00     0.181 C 
BRANCH  10  11
HETATM   11  C13 UNL     1      46.971  27.199  39.497  1.00  0.00     0.254 C 
HETATM   12  N12 UNL     1      47.229  27.448  40.865  1.00  0.00    -0.060 NA
HETATM   13  O3  UNL     1      47.423  28.064  38.677  1.00  0.00    -0.275 OA
ENDBRANCH  10  11
BRANCH  10  14
HETATM   14  C14 UNL     1      44.802  26.376  38.724  1.00  0.00    -0.022 C 
HETATM   15  C15 UNL     1      44.678  27.417  37.609  1.00  0.00     0.017 C 
HETATM   16  C16 UNL     1      44.077  26.848  39.963  1.00  0.00     0.017 C 
HETATM   17  C17 UNL     1      44.056  25.162  38.217  1.00  0.00     0.017 C 
ENDBRANCH  10  14
ENDBRANCH   8  10
ENDBRANCH   4   6
ENDBRANCH   2   4
ENDBRANCH   1   2
BRANCH   1  18
HETATM   18  C4  UNL     1      48.704  20.589  36.548  1.00  0.00     0.204 C 
HETATM   19  C5  UNL     1      49.384  20.383  35.222  1.00  0.00     0.042 C 
BRANCH  18  20
HETATM   20  N2  UNL     1      47.990  19.373  36.950  1.00  0.00    -0.073 N 
ATOM     21  H23 UNL     1      47.796  18.773  36.147  1.00  0.00     0.274 HD
ATOM     22  H22 UNL     1      48.595  18.743  37.477  1.00  0.00     0.274 HD
ATOM     23  H21 UNL     1      47.137  19.588  37.467  1.00  0.00     0.274 HD
ENDBRANCH  18  20
ENDBRANCH   1  18
BRANCH   1  24
HETATM   24  C6  UNL     1      46.440  21.340  36.166  1.00  0.00     0.200 C 
BRANCH  24  25
HETATM   25  N3  UNL     1      46.220  21.957  34.910  1.00  0.00    -0.352 N 
HETATM   26  C7  UNL     1      46.096  21.436  33.763  1.00  0.00     0.197 C 
HETATM   27  N4  UNL     1      46.148  20.058  33.445  1.00  0.00    -0.067 NA
HETATM   28  N5  UNL     1      45.879  22.329  32.648  1.00  0.00    -0.067 NA
ATOM     29  H3  UNL     1      46.152  22.974  34.933  1.00  0.00     0.162 HD
ENDBRANCH  24  25
BRANCH  24  30
HETATM   30  C8  UNL     1      45.376  21.695  37.125  1.00  0.00     0.248 C 
HETATM   31  O1  UNL     1      45.600  22.058  38.313  1.00  0.00    -0.271 OA
HETATM   32  N6  UNL     1      43.971  21.659  36.792  1.00  0.00    -0.299 N 
HETATM   33  C9  UNL     1      43.340  20.532  36.679  1.00  0.00     0.197 C 
ATOM     34  H6  UNL     1      43.467  22.533  36.644  1.00  0.00     0.171 HD
HETATM   35  N7  UNL     1      41.967  20.464  36.354  1.00  0.00    -0.063 NA
HETATM   36  N8  UNL     1      44.100  19.346  36.895  1.00  0.00    -0.307 N 
HETATM   37  C10 UNL     1      43.793  18.408  37.701  1.00  0.00     0.203 C 
ATOM     38  H8  UNL     1      44.963  19.240  36.361  1.00  0.00     0.170 HD
HETATM   39  N9  UNL     1      42.636  18.379  38.526  1.00  0.00    -0.066 NA
HETATM   40  N10 UNL     1      44.709  17.301  37.761  1.00  0.00    -0.066 NA
ENDBRANCH  24  30
ENDBRANCH   1  24
TORSDOF 11
ENDMDL
