MODEL 1
REMARK VINA RESULT: -7.939876206      0.000      0.000
REMARK  13 active torsions:
REMARK  status: ('A' for Active; 'I' for Inactive)
REMARK    1  A    between atoms: C3_5  and  C4_6 
REMARK    2  A    between atoms: C4_6  and  C5_7 
REMARK    3  A    between atoms: C6_10  and  N3_11 
REMARK    4  A    between atoms: N5_16  and  C7_17 
REMARK    5  A    between atoms: C7_17  and  C8_18 
REMARK    6  A    between atoms: C9_19  and  C10_20 
REMARK    7  A    between atoms: C10_20  and  C11_21 
REMARK    8  A    between atoms: C13_25  and  C14_26 
REMARK    9  A    between atoms: C14_26  and  C15_27 
REMARK   10  A    between atoms: C15_27  and  C16_28 
REMARK   11  A    between atoms: C16_28  and  C17_29 
REMARK   12  A    between atoms: C20_38  and  N10_39 
REMARK   13  A    between atoms: N10_39  and  O3_41 
ROOT
HETATM    1  C5  UNL     1      48.663  21.525  36.190  1.00  0.00     0.142 A 
HETATM    2  N2  UNL     1      49.455  20.435  36.133  1.00  0.00    -0.174 N 
ATOM      3  H2  UNL     1      50.273  20.348  35.529  1.00  0.00     0.186 HD
HETATM    4  C6  UNL     1      49.028  19.481  36.973  1.00  0.00     0.692 A 
HETATM    5  N4  UNL     1      47.930  20.003  37.574  1.00  0.00    -0.128 N 
ATOM      6  H4  UNL     1      47.364  19.526  38.276  1.00  0.00     0.206 HD
HETATM    7  N5  UNL     1      47.700  21.231  37.111  1.00  0.00    -0.258 N 
ENDROOT
BRANCH   7   8
HETATM    8  C7  UNL     1      46.618  22.055  37.539  1.00  0.00     0.178 C 
BRANCH   8   9
HETATM    9  C8  UNL     1      45.354  21.313  37.780  1.00  0.00    -0.009 C 
HETATM   10  C9  UNL     1      44.541  20.922  36.824  1.00  0.00    -0.022 C 
BRANCH  10  11
HETATM   11  C10 UNL     1      43.305  20.189  37.157  1.00  0.00     0.103 C 
BRANCH  11  12
HETATM   12  C11 UNL     1      43.653  18.790  37.490  1.00  0.00     0.086 A 
HETATM   13  N6  UNL     1      44.465  18.050  36.681  1.00  0.00    -0.353 N 
HETATM   14  C12 UNL     1      44.590  16.834  37.249  1.00  0.00     0.114 A 
ATOM     15  H6  UNL     1      44.897  18.359  35.810  1.00  0.00     0.166 HD
HETATM   16  C13 UNL     1      43.860  16.803  38.413  1.00  0.00     0.028 A 
HETATM   17  N8  UNL     1      43.295  18.024  38.533  1.00  0.00    -0.343 N 
HETATM   18  C18 UNL     1      42.438  18.443  39.611  1.00  0.00     0.157 C 
BRANCH  16  19
HETATM   19  C14 UNL     1      43.691  15.670  39.389  1.00  0.00     0.059 C 
BRANCH  19  20
HETATM   20  C15 UNL     1      44.387  14.439  38.923  1.00  0.00     0.015 C 
BRANCH  20  21
HETATM   21  C16 UNL     1      44.762  13.499  40.031  1.00  0.00     0.100 C 
BRANCH  21  22
HETATM   22  C17 UNL     1      44.281  12.141  39.768  1.00  0.00     0.231 C 
HETATM   23  N7  UNL     1      44.646  11.500  38.539  1.00  0.00    -0.062 NA
HETATM   24  O1  UNL     1      43.564  11.512  40.568  1.00  0.00    -0.277 OA
ENDBRANCH  21  22
ENDBRANCH  20  21
ENDBRANCH  19  20
ENDBRANCH  16  19
ENDBRANCH  11  12
ENDBRANCH  10  11
ENDBRANCH   8   9
ENDBRANCH   7   8
BRANCH   1  25
HETATM   25  C4  UNL     1      48.771  22.775  35.451  1.00  0.00     0.099 C 
BRANCH  25  26
HETATM   26  C3  UNL     1      48.143  22.926  34.281  1.00  0.00     0.112 A 
HETATM   27  N1  UNL     1      48.156  24.055  33.601  1.00  0.00    -0.341 N 
HETATM   28  C2  UNL     1      47.500  24.185  32.400  1.00  0.00     0.058 A 
ATOM     29  H1  UNL     1      48.666  24.855  33.977  1.00  0.00     0.167 HD
HETATM   30  C1  UNL     1      47.592  25.357  31.828  1.00  0.00     0.045 C 
HETATM   31  C20 UNL     1      46.804  23.167  31.841  1.00  0.00     0.148 A 
HETATM   32  C19 UNL     1      46.807  21.965  32.592  1.00  0.00     0.277 A 
HETATM   33  N9  UNL     1      47.460  21.899  33.748  1.00  0.00    -0.307 N 
HETATM   34  O2  UNL     1      46.167  20.968  32.115  1.00  0.00    -0.265 OA
ATOM     35  H9  UNL     1      47.440  21.017  34.260  1.00  0.00     0.170 HD
BRANCH  31  36
HETATM   36  N10 UNL     1      46.155  23.159  30.735  1.00  0.00    -0.262 N 
ATOM     37  H10 UNL     1      46.655  23.457  29.898  1.00  0.00     0.194 HD
BRANCH  36  38
HETATM   38  O3  UNL     1      44.874  22.790  30.588  1.00  0.00    -0.289 OA
ATOM     39  H3  UNL     1      44.557  22.128  29.985  1.00  0.00     0.244 HD
ENDBRANCH  36  38
ENDBRANCH  31  36
ENDBRANCH  25  26
ENDBRANCH   1  25
BRANCH   4  40
HETATM   40  N3  UNL     1      49.555  18.320  37.164  1.00  0.00    -0.233 N 
ATOM     41  H32 UNL     1      49.093  17.472  37.491  1.00  0.00     0.174 HD
ATOM     42  H31 UNL     1      50.529  18.055  37.019  1.00  0.00     0.174 HD
ENDBRANCH   4  40
TORSDOF 13
ENDMDL
MODEL 2
REMARK VINA RESULT: -7.918235026      4.128     10.209
REMARK  13 active torsions:
REMARK  status: ('A' for Active; 'I' for Inactive)
REMARK    1  A    between atoms: C3_5  and  C4_6 
REMARK    2  A    between atoms: C4_6  and  C5_7 
REMARK    3  A    between atoms: C6_10  and  N3_11 
REMARK    4  A    between atoms: N5_16  and  C7_17 
REMARK    5  A    between atoms: C7_17  and  C8_18 
REMARK    6  A    between atoms: C9_19  and  C10_20 
REMARK    7  A    between atoms: C10_20  and  C11_21 
REMARK    8  A    between atoms: C13_25  and  C14_26 
REMARK    9  A    between atoms: C14_26  and  C15_27 
REMARK   10  A    between atoms: C15_27  and  C16_28 
REMARK   11  A    between atoms: C16_28  and  C17_29 
REMARK   12  A    between atoms: C20_38  and  N10_39 
REMARK   13  A    between atoms: N10_39  and  O3_41 
ROOT
HETATM    1  C5  UNL     1      42.307  17.240  38.985  1.00  0.00     0.142 A 
HETATM    2  N2  UNL     1      41.040  17.260  39.446  1.00  0.00    -0.174 N 
ATOM      3  H2  UNL     1      40.310  16.609  39.155  1.00  0.00     0.186 HD
HETATM    4  C6  UNL     1      40.864  18.247  40.338  1.00  0.00     0.692 A 
HETATM    5  N4  UNL     1      42.070  18.860  40.431  1.00  0.00    -0.128 N 
ATOM      6  H4  UNL     1      42.276  19.658  41.032  1.00  0.00     0.206 HD
HETATM    7  N5  UNL     1      42.946  18.264  39.623  1.00  0.00    -0.258 N 
ENDROOT
BRANCH   7   8
HETATM    8  C7  UNL     1      44.305  18.668  39.484  1.00  0.00     0.178 C 
BRANCH   8   9
HETATM    9  C8  UNL     1      44.547  19.596  38.349  1.00  0.00    -0.009 C 
HETATM   10  C9  UNL     1      45.281  19.294  37.301  1.00  0.00    -0.022 C 
BRANCH  10  11
HETATM   11  C10 UNL     1      45.467  20.279  36.219  1.00  0.00     0.103 C 
BRANCH  11  12
HETATM   12  C11 UNL     1      45.420  21.640  36.798  1.00  0.00     0.086 A 
HETATM   13  N6  UNL     1      44.284  22.394  36.746  1.00  0.00    -0.353 N 
HETATM   14  C12 UNL     1      44.558  23.567  37.351  1.00  0.00     0.114 A 
ATOM     15  H6  UNL     1      43.395  22.121  36.328  1.00  0.00     0.166 HD
HETATM   16  C13 UNL     1      45.862  23.557  37.784  1.00  0.00     0.028 A 
HETATM   17  N8  UNL     1      46.365  22.355  37.429  1.00  0.00    -0.343 N 
HETATM   18  C18 UNL     1      47.709  21.907  37.683  1.00  0.00     0.157 C 
BRANCH  16  19
HETATM   19  C14 UNL     1      46.621  24.635  38.511  1.00  0.00     0.059 C 
BRANCH  19  20
HETATM   20  C15 UNL     1      45.702  25.632  39.125  1.00  0.00     0.015 C 
BRANCH  20  21
HETATM   21  C16 UNL     1      46.349  26.484  40.177  1.00  0.00     0.100 C 
BRANCH  21  22
HETATM   22  C17 UNL     1      45.388  26.888  41.205  1.00  0.00     0.231 C 
HETATM   23  N7  UNL     1      45.876  27.435  42.437  1.00  0.00    -0.062 NA
HETATM   24  O1  UNL     1      44.157  26.778  41.059  1.00  0.00    -0.277 OA
ENDBRANCH  21  22
ENDBRANCH  20  21
ENDBRANCH  19  20
ENDBRANCH  16  19
ENDBRANCH  11  12
ENDBRANCH  10  11
ENDBRANCH   8   9
ENDBRANCH   7   8
BRANCH   1  25
HETATM   25  C4  UNL     1      42.914  16.339  38.017  1.00  0.00     0.099 C 
BRANCH  25  26
HETATM   26  C3  UNL     1      43.323  15.122  38.389  1.00  0.00     0.112 A 
HETATM   27  N1  UNL     1      44.017  14.904  39.489  1.00  0.00    -0.341 N 
HETATM   28  C2  UNL     1      44.426  13.642  39.848  1.00  0.00     0.058 A 
ATOM     29  H1  UNL     1      44.257  15.693  40.089  1.00  0.00     0.167 HD
HETATM   30  C1  UNL     1      45.107  13.563  40.961  1.00  0.00     0.045 C 
HETATM   31  C20 UNL     1      44.144  12.548  39.101  1.00  0.00     0.148 A 
HETATM   32  C19 UNL     1      43.397  12.810  37.926  1.00  0.00     0.277 A 
HETATM   33  N9  UNL     1      43.029  14.053  37.630  1.00  0.00    -0.307 N 
HETATM   34  O2  UNL     1      43.099  11.818  37.179  1.00  0.00    -0.265 OA
ATOM     35  H9  UNL     1      42.491  14.204  36.776  1.00  0.00     0.170 HD
BRANCH  31  36
HETATM   36  N10 UNL     1      44.464  11.327  39.325  1.00  0.00    -0.262 N 
ATOM     37  H10 UNL     1      44.226  10.941  40.238  1.00  0.00     0.194 HD
BRANCH  36  38
HETATM   38  O3  UNL     1      45.086  10.515  38.457  1.00  0.00    -0.289 OA
ATOM     39  H3  UNL     1      45.121   9.567  38.517  1.00  0.00     0.244 HD
ENDBRANCH  36  38
ENDBRANCH  31  36
ENDBRANCH  25  26
ENDBRANCH   1  25
BRANCH   4  40
HETATM   40  N3  UNL     1      39.779  18.542  40.967  1.00  0.00    -0.233 N 
ATOM     41  H32 UNL     1      39.387  18.079  41.788  1.00  0.00     0.174 HD
ATOM     42  H31 UNL     1      39.125  19.293  40.747  1.00  0.00     0.174 HD
ENDBRANCH   4  40
TORSDOF 13
ENDMDL
MODEL 3
REMARK VINA RESULT: -7.833586026      2.100      9.995
REMARK  13 active torsions:
REMARK  status: ('A' for Active; 'I' for Inactive)
REMARK    1  A    between atoms: C3_5  and  C4_6 
REMARK    2  A    between atoms: C4_6  and  C5_7 
REMARK    3  A    between atoms: C6_10  and  N3_11 
REMARK    4  A    between atoms: N5_16  and  C7_17 
REMARK    5  A    between atoms: C7_17  and  C8_18 
REMARK    6  A    between atoms: C9_19  and  C10_20 
REMARK    7  A    between atoms: C10_20  and  C11_21 
REMARK    8  A    between atoms: C13_25  and  C14_26 
REMARK    9  A    between atoms: C14_26  and  C15_27 
REMARK   10  A    between atoms: C15_27  and  C16_28 
REMARK   11  A    between atoms: C16_28  and  C17_29 
REMARK   12  A    between atoms: C20_38  and  N10_39 
REMARK   13  A    between atoms: N10_39  and  O3_41 
ROOT
HETATM    1  C5  UNL     1      42.294  17.180  38.953  1.00  0.00     0.142 A 
HETATM    2  N2  UNL     1      41.056  17.231  39.483  1.00  0.00    -0.174 N 
ATOM      3  H2  UNL     1      40.298  16.591  39.243  1.00  0.00     0.186 HD
HETATM    4  C6  UNL     1      40.949  18.233  40.369  1.00  0.00     0.692 A 
HETATM    5  N4  UNL     1      42.169  18.823  40.387  1.00  0.00    -0.128 N 
ATOM      6  H4  UNL     1      42.424  19.625  40.963  1.00  0.00     0.206 HD
HETATM    7  N5  UNL     1      42.987  18.199  39.539  1.00  0.00    -0.258 N 
ENDROOT
BRANCH   7   8
HETATM    8  C7  UNL     1      44.344  18.574  39.319  1.00  0.00     0.178 C 
BRANCH   8   9
HETATM    9  C8  UNL     1      44.506  19.861  38.595  1.00  0.00    -0.009 C 
HETATM   10  C9  UNL     1      44.164  20.040  37.339  1.00  0.00    -0.022 C 
BRANCH  10  11
HETATM   11  C10 UNL     1      44.360  21.355  36.699  1.00  0.00     0.103 C 
BRANCH  11  12
HETATM   12  C11 UNL     1      45.469  21.252  35.724  1.00  0.00     0.086 A 
HETATM   13  N6  UNL     1      45.714  20.092  35.049  1.00  0.00    -0.353 N 
HETATM   14  C12 UNL     1      46.774  20.315  34.248  1.00  0.00     0.114 A 
ATOM     15  H6  UNL     1      45.192  19.220  35.135  1.00  0.00     0.166 HD
HETATM   16  C13 UNL     1      47.200  21.612  34.415  1.00  0.00     0.028 A 
HETATM   17  N8  UNL     1      46.375  22.162  35.331  1.00  0.00    -0.343 N 
HETATM   18  C18 UNL     1      46.452  23.515  35.816  1.00  0.00     0.157 C 
BRANCH  16  19
HETATM   19  C14 UNL     1      48.344  22.321  33.741  1.00  0.00     0.059 C 
BRANCH  19  20
HETATM   20  C15 UNL     1      47.885  23.095  32.555  1.00  0.00     0.015 C 
BRANCH  20  21
HETATM   21  C16 UNL     1      47.703  22.262  31.321  1.00  0.00     0.100 C 
BRANCH  21  22
HETATM   22  C17 UNL     1      46.330  22.337  30.821  1.00  0.00     0.231 C 
HETATM   23  N7  UNL     1      46.105  22.735  29.462  1.00  0.00    -0.062 NA
HETATM   24  O1  UNL     1      45.339  22.071  31.526  1.00  0.00    -0.277 OA
ENDBRANCH  21  22
ENDBRANCH  20  21
ENDBRANCH  19  20
ENDBRANCH  16  19
ENDBRANCH  11  12
ENDBRANCH  10  11
ENDBRANCH   8   9
ENDBRANCH   7   8
BRANCH   1  25
HETATM   25  C4  UNL     1      42.829  16.254  37.965  1.00  0.00     0.099 C 
BRANCH  25  26
HETATM   26  C3  UNL     1      43.269  15.048  38.337  1.00  0.00     0.112 A 
HETATM   27  N1  UNL     1      43.978  14.849  39.431  1.00  0.00    -0.341 N 
HETATM   28  C2  UNL     1      44.420  13.599  39.791  1.00  0.00     0.058 A 
ATOM     29  H1  UNL     1      44.205  15.646  40.027  1.00  0.00     0.167 HD
HETATM   30  C1  UNL     1      45.113  13.539  40.898  1.00  0.00     0.045 C 
HETATM   31  C20 UNL     1      44.156  12.496  39.050  1.00  0.00     0.148 A 
HETATM   32  C19 UNL     1      43.393  12.737  37.881  1.00  0.00     0.277 A 
HETATM   33  N9  UNL     1      42.993  13.970  37.584  1.00  0.00    -0.307 N 
HETATM   34  O2  UNL     1      43.111  11.735  37.140  1.00  0.00    -0.265 OA
ATOM     35  H9  UNL     1      42.444  14.105  36.735  1.00  0.00     0.170 HD
BRANCH  31  36
HETATM   36  N10 UNL     1      44.507  11.283  39.274  1.00  0.00    -0.262 N 
ATOM     37  H10 UNL     1      44.286  10.895  40.191  1.00  0.00     0.194 HD
BRANCH  36  38
HETATM   38  O3  UNL     1      45.139  10.483  38.403  1.00  0.00    -0.289 OA
ATOM     39  H3  UNL     1      46.080  10.367  38.345  1.00  0.00     0.244 HD
ENDBRANCH  36  38
ENDBRANCH  31  36
ENDBRANCH  25  26
ENDBRANCH   1  25
BRANCH   4  40
HETATM   40  N3  UNL     1      39.906  18.558  41.053  1.00  0.00    -0.233 N 
ATOM     41  H32 UNL     1      39.314  17.948  41.618  1.00  0.00     0.174 HD
ATOM     42  H31 UNL     1      39.495  19.487  41.145  1.00  0.00     0.174 HD
ENDBRANCH   4  40
TORSDOF 13
ENDMDL
MODEL 4
REMARK VINA RESULT: -7.709061987      2.075      9.176
REMARK  13 active torsions:
REMARK  status: ('A' for Active; 'I' for Inactive)
REMARK    1  A    between atoms: C3_5  and  C4_6 
REMARK    2  A    between atoms: C4_6  and  C5_7 
REMARK    3  A    between atoms: C6_10  and  N3_11 
REMARK    4  A    between atoms: N5_16  and  C7_17 
REMARK    5  A    between atoms: C7_17  and  C8_18 
REMARK    6  A    between atoms: C9_19  and  C10_20 
REMARK    7  A    between atoms: C10_20  and  C11_21 
REMARK    8  A    between atoms: C13_25  and  C14_26 
REMARK    9  A    between atoms: C14_26  and  C15_27 
REMARK   10  A    between atoms: C15_27  and  C16_28 
REMARK   11  A    between atoms: C16_28  and  C17_29 
REMARK   12  A    between atoms: C20_38  and  N10_39 
REMARK   13  A    between atoms: N10_39  and  O3_41 
ROOT
HETATM    1  C5  UNL     1      44.067  18.755  38.179  1.00  0.00     0.142 A 
HETATM    2  N2  UNL     1      42.928  19.372  37.807  1.00  0.00    -0.174 N 
ATOM      3  H2  UNL     1      42.032  19.265  38.283  1.00  0.00     0.186 HD
HETATM    4  C6  UNL     1      43.126  20.145  36.729  1.00  0.00     0.692 A 
HETATM    5  N4  UNL     1      44.439  20.000  36.424  1.00  0.00    -0.128 N 
ATOM      6  H4  UNL     1      44.915  20.461  35.649  1.00  0.00     0.206 HD
HETATM    7  N5  UNL     1      45.016  19.166  37.289  1.00  0.00    -0.258 N 
ENDROOT
BRANCH   7   8
HETATM    8  C7  UNL     1      46.393  18.800  37.246  1.00  0.00     0.178 C 
BRANCH   8   9
HETATM    9  C8  UNL     1      47.327  19.955  37.277  1.00  0.00    -0.009 C 
HETATM   10  C9  UNL     1      46.998  21.148  37.721  1.00  0.00    -0.022 C 
BRANCH  10  11
HETATM   11  C10 UNL     1      47.992  22.239  37.715  1.00  0.00     0.103 C 
BRANCH  11  12
HETATM   12  C11 UNL     1      48.300  22.598  36.313  1.00  0.00     0.086 A 
HETATM   13  N6  UNL     1      49.555  22.445  35.801  1.00  0.00    -0.353 N 
HETATM   14  C12 UNL     1      49.512  22.855  34.518  1.00  0.00     0.114 A 
ATOM     15  H6  UNL     1      50.371  22.088  36.296  1.00  0.00     0.166 HD
HETATM   16  C13 UNL     1      48.235  23.266  34.218  1.00  0.00     0.028 A 
HETATM   17  N8  UNL     1      47.512  23.095  35.346  1.00  0.00    -0.343 N 
HETATM   18  C18 UNL     1      46.113  23.399  35.492  1.00  0.00     0.157 C 
BRANCH  16  19
HETATM   19  C14 UNL     1      47.700  23.804  32.918  1.00  0.00     0.059 C 
BRANCH  19  20
HETATM   20  C15 UNL     1      47.713  22.767  31.850  1.00  0.00     0.015 C 
BRANCH  20  21
HETATM   21  C16 UNL     1      46.613  21.755  31.975  1.00  0.00     0.100 C 
BRANCH  21  22
HETATM   22  C17 UNL     1      47.040  20.592  32.755  1.00  0.00     0.231 C 
HETATM   23  N7  UNL     1      46.185  20.100  33.796  1.00  0.00    -0.062 NA
HETATM   24  O1  UNL     1      48.120  20.005  32.556  1.00  0.00    -0.277 OA
ENDBRANCH  21  22
ENDBRANCH  20  21
ENDBRANCH  19  20
ENDBRANCH  16  19
ENDBRANCH  11  12
ENDBRANCH  10  11
ENDBRANCH   8   9
ENDBRANCH   7   8
BRANCH   1  25
HETATM   25  C4  UNL     1      44.292  17.838  39.288  1.00  0.00     0.099 C 
BRANCH  25  26
HETATM   26  C3  UNL     1      43.982  16.543  39.169  1.00  0.00     0.112 A 
HETATM   27  N1  UNL     1      44.633  15.590  39.807  1.00  0.00    -0.341 N 
HETATM   28  C2  UNL     1      44.296  14.265  39.667  1.00  0.00     0.058 A 
ATOM     29  H1  UNL     1      45.406  15.843  40.422  1.00  0.00     0.167 HD
HETATM   30  C1  UNL     1      45.019  13.420  40.354  1.00  0.00     0.045 C 
HETATM   31  C20 UNL     1      43.280  13.856  38.869  1.00  0.00     0.148 A 
HETATM   32  C19 UNL     1      42.599  14.900  38.196  1.00  0.00     0.277 A 
HETATM   33  N9  UNL     1      42.970  16.165  38.371  1.00  0.00    -0.307 N 
HETATM   34  O2  UNL     1      41.630  14.577  37.428  1.00  0.00    -0.265 OA
ATOM     35  H9  UNL     1      42.456  16.889  37.871  1.00  0.00     0.170 HD
BRANCH  31  36
HETATM   36  N10 UNL     1      42.869  12.661  38.654  1.00  0.00    -0.262 N 
ATOM     37  H10 UNL     1      42.180  12.281  39.302  1.00  0.00     0.194 HD
BRANCH  36  38
HETATM   38  O3  UNL     1      43.268  11.871  37.647  1.00  0.00    -0.289 OA
ATOM     39  H3  UNL     1      42.925  11.890  36.761  1.00  0.00     0.244 HD
ENDBRANCH  36  38
ENDBRANCH  31  36
ENDBRANCH  25  26
ENDBRANCH   1  25
BRANCH   4  40
HETATM   40  N3  UNL     1      42.250  20.868  36.119  1.00  0.00    -0.233 N 
ATOM     41  H32 UNL     1      41.548  21.480  36.534  1.00  0.00     0.174 HD
ATOM     42  H31 UNL     1      42.113  20.949  35.112  1.00  0.00     0.174 HD
ENDBRANCH   4  40
TORSDOF 13
ENDMDL
MODEL 5
REMARK VINA RESULT: -7.667362544      1.804      9.750
REMARK  13 active torsions:
REMARK  status: ('A' for Active; 'I' for Inactive)
REMARK    1  A    between atoms: C3_5  and  C4_6 
REMARK    2  A    between atoms: C4_6  and  C5_7 
REMARK    3  A    between atoms: C6_10  and  N3_11 
REMARK    4  A    between atoms: N5_16  and  C7_17 
REMARK    5  A    between atoms: C7_17  and  C8_18 
REMARK    6  A    between atoms: C9_19  and  C10_20 
REMARK    7  A    between atoms: C10_20  and  C11_21 
REMARK    8  A    between atoms: C13_25  and  C14_26 
REMARK    9  A    between atoms: C14_26  and  C15_27 
REMARK   10  A    between atoms: C15_27  and  C16_28 
REMARK   11  A    between atoms: C16_28  and  C17_29 
REMARK   12  A    between atoms: C20_38  and  N10_39 
REMARK   13  A    between atoms: N10_39  and  O3_41 
ROOT
HETATM    1  C5  UNL     1      42.829  17.480  39.548  1.00  0.00     0.142 A 
HETATM    2  N2  UNL     1      41.757  17.418  40.363  1.00  0.00    -0.174 N 
ATOM      3  H2  UNL     1      41.657  16.758  41.135  1.00  0.00     0.186 HD
HETATM    4  C6  UNL     1      40.839  18.337  40.028  1.00  0.00     0.692 A 
HETATM    5  N4  UNL     1      41.366  18.993  38.965  1.00  0.00    -0.128 N 
ATOM      6  H4  UNL     1      40.914  19.760  38.467  1.00  0.00     0.206 HD
HETATM    7  N5  UNL     1      42.562  18.487  38.666  1.00  0.00    -0.258 N 
ENDROOT
BRANCH   7   8
HETATM    8  C7  UNL     1      43.381  18.953  37.597  1.00  0.00     0.178 C 
BRANCH   8   9
HETATM    9  C8  UNL     1      44.431  19.917  38.018  1.00  0.00    -0.009 C 
HETATM   10  C9  UNL     1      44.676  21.049  37.395  1.00  0.00    -0.022 C 
BRANCH  10  11
HETATM   11  C10 UNL     1      45.740  21.947  37.883  1.00  0.00     0.103 C 
BRANCH  11  12
HETATM   12  C11 UNL     1      46.946  21.758  37.047  1.00  0.00     0.086 A 
HETATM   13  N6  UNL     1      47.912  20.857  37.390  1.00  0.00    -0.353 N 
HETATM   14  C12 UNL     1      48.867  20.920  36.441  1.00  0.00     0.114 A 
ATOM     15  H6  UNL     1      47.911  20.251  38.210  1.00  0.00     0.166 HD
HETATM   16  C13 UNL     1      48.508  21.856  35.501  1.00  0.00     0.028 A 
HETATM   17  N8  UNL     1      47.319  22.354  35.904  1.00  0.00    -0.343 N 
HETATM   18  C18 UNL     1      46.565  23.369  35.216  1.00  0.00     0.157 C 
BRANCH  16  19
HETATM   19  C14 UNL     1      49.250  22.278  34.261  1.00  0.00     0.059 C 
BRANCH  19  20
HETATM   20  C15 UNL     1      49.079  21.291  33.159  1.00  0.00     0.015 C 
BRANCH  20  21
HETATM   21  C16 UNL     1      48.117  21.731  32.096  1.00  0.00     0.100 C 
BRANCH  21  22
HETATM   22  C17 UNL     1      46.776  21.194  32.331  1.00  0.00     0.231 C 
HETATM   23  N7  UNL     1      45.659  21.796  31.663  1.00  0.00    -0.062 NA
HETATM   24  O1  UNL     1      46.557  20.232  33.090  1.00  0.00    -0.277 OA
ENDBRANCH  21  22
ENDBRANCH  20  21
ENDBRANCH  19  20
ENDBRANCH  16  19
ENDBRANCH  11  12
ENDBRANCH  10  11
ENDBRANCH   8   9
ENDBRANCH   7   8
BRANCH   1  25
HETATM   25  C4  UNL     1      44.040  16.672  39.565  1.00  0.00     0.099 C 
BRANCH  25  26
HETATM   26  C3  UNL     1      43.975  15.351  39.368  1.00  0.00     0.112 A 
HETATM   27  N1  UNL     1      43.140  14.794  38.513  1.00  0.00    -0.341 N 
HETATM   28  C2  UNL     1      43.091  13.433  38.330  1.00  0.00     0.058 A 
ATOM     29  H1  UNL     1      42.513  15.390  37.973  1.00  0.00     0.167 HD
HETATM   30  C1  UNL     1      42.219  13.010  37.453  1.00  0.00     0.045 C 
HETATM   31  C20 UNL     1      43.894  12.581  39.012  1.00  0.00     0.148 A 
HETATM   32  C19 UNL     1      44.782  13.206  39.923  1.00  0.00     0.277 A 
HETATM   33  N9  UNL     1      44.783  14.528  40.057  1.00  0.00    -0.307 N 
HETATM   34  O2  UNL     1      45.565  12.454  40.596  1.00  0.00    -0.265 OA
ATOM     35  H9  UNL     1      45.436  14.942  40.722  1.00  0.00     0.170 HD
BRANCH  31  36
HETATM   36  N10 UNL     1      43.948  11.303  38.934  1.00  0.00    -0.262 N 
ATOM     37  H10 UNL     1      43.174  10.777  39.339  1.00  0.00     0.194 HD
BRANCH  36  38
HETATM   38  O3  UNL     1      44.937  10.600  38.362  1.00  0.00    -0.289 OA
ATOM     39  H3  UNL     1      45.028   9.654  38.390  1.00  0.00     0.244 HD
ENDBRANCH  36  38
ENDBRANCH  31  36
ENDBRANCH  25  26
ENDBRANCH   1  25
BRANCH   4  40
HETATM   40  N3  UNL     1      39.703  18.546  40.600  1.00  0.00    -0.233 N 
ATOM     41  H32 UNL     1      39.417  18.270  41.539  1.00  0.00     0.174 HD
ATOM     42  H31 UNL     1      38.895  19.025  40.204  1.00  0.00     0.174 HD
ENDBRANCH   4  40
TORSDOF 13
ENDMDL
