MODEL 1
REMARK VINA RESULT: -8.100859571      0.000      0.000
REMARK  12 active torsions:
REMARK  status: ('A' for Active; 'I' for Inactive)
REMARK    1  A    between atoms: O1_2  and  C2_3 
REMARK    2  A    between atoms: C2_3  and  C3_4 
REMARK    3  A    between atoms: C3_4  and  O2_5 
REMARK    4  A    between atoms: O2_5  and  C4_6 
REMARK       I    between atoms: C4_6  and  N1_8 
REMARK    5  A    between atoms: N1_8  and  C5_10 
REMARK    6  A    between atoms: C5_10  and  C6_11 
REMARK    7  A    between atoms: C6_11  and  C7_12 
REMARK    8  A    between atoms: C10_15  and  C11_16 
REMARK       I    between atoms: N2_17  and  C12_19 
REMARK    9  A    between atoms: C12_19  and  C13_21 
REMARK   10  A    between atoms: C13_21  and  C14_22 
REMARK   11  A    between atoms: C14_22  and  C15_23 
REMARK   12  A    between atoms: C18_26  and  C19_27 
ROOT
HETATM    1  C11 UNL     1     -12.633  45.668  56.054  1.00  0.00     0.120 C 
HETATM    2  N2  UNL     1     -13.881  45.743  55.835  1.00  0.00    -0.335 N 
ATOM      3  H2  UNL     1     -14.357  45.057  55.249  1.00  0.00     0.168 HD
HETATM    4  C12 UNL     1     -14.605  46.843  56.450  1.00  0.00     0.221 C 
HETATM    5  O4  UNL     1     -15.088  46.638  57.578  1.00  0.00    -0.273 OA
ENDROOT
BRANCH   1   6
HETATM    6  C10 UNL     1     -11.858  44.574  55.454  1.00  0.00     0.048 A 
HETATM    7  C9  UNL     1     -12.339  43.336  55.108  1.00  0.00     0.033 A 
HETATM    8  C8  UNL     1     -11.252  42.645  54.583  1.00  0.00     0.027 A 
HETATM    9  C7  UNL     1     -10.140  43.455  54.615  1.00  0.00     0.011 A 
HETATM   10  N5  UNL     1     -10.547  44.615  55.150  1.00  0.00    -0.358 N 
ATOM     11  H5  UNL     1      -9.944  45.422  55.305  1.00  0.00     0.166 HD
BRANCH   9  12
HETATM   12  C6  UNL     1      -8.750  43.125  54.152  1.00  0.00     0.076 C 
BRANCH  12  13
HETATM   13  C5  UNL     1      -7.769  43.659  55.160  1.00  0.00     0.131 C 
BRANCH  13  14
HETATM   14  N1  UNL     1      -7.263  44.929  54.757  1.00  0.00    -0.337 N 
HETATM   15  C4  UNL     1      -7.479  46.105  55.508  1.00  0.00     0.360 C 
HETATM   16  O3  UNL     1      -8.148  46.029  56.563  1.00  0.00    -0.239 OA
ATOM     17  H1  UNL     1      -6.723  44.991  53.893  1.00  0.00     0.164 HD
BRANCH  15  18
HETATM   18  O2  UNL     1      -6.977  47.334  55.114  1.00  0.00    -0.302 OA
BRANCH  18  19
HETATM   19  C3  UNL     1      -7.248  48.516  55.802  1.00  0.00     0.207 C 
BRANCH  19  20
HETATM   20  C2  UNL     1      -8.435  49.264  55.317  1.00  0.00     0.193 C 
BRANCH  20  21
HETATM   21  O1  UNL     1      -8.178  50.037  54.188  1.00  0.00    -0.394 OA
HETATM   22  C1  UNL     1      -7.432  51.161  54.430  1.00  0.00     0.201 C 
ENDBRANCH  20  21
ENDBRANCH  19  20
ENDBRANCH  18  19
ENDBRANCH  15  18
ENDBRANCH  13  14
ENDBRANCH  12  13
ENDBRANCH   9  12
ENDBRANCH   1   6
BRANCH   4  23
HETATM   23  C13 UNL     1     -14.738  48.105  55.756  1.00  0.00     0.107 C 
BRANCH  23  24
HETATM   24  C14 UNL     1     -15.503  49.154  56.441  1.00  0.00     0.047 C 
BRANCH  24  25
HETATM   25  C15 UNL     1     -15.848  50.370  55.680  1.00  0.00    -0.058 A 
HETATM   26  C16 UNL     1     -15.415  51.617  56.032  1.00  0.00     0.008 A 
HETATM   27  C17 UNL     1     -15.774  52.762  55.319  1.00  0.00     0.015 A 
HETATM   28  C18 UNL     1     -16.590  52.691  54.210  1.00  0.00     0.004 A 
HETATM   29  C20 UNL     1     -17.026  51.436  53.852  1.00  0.00     0.015 A 
HETATM   30  C21 UNL     1     -16.677  50.302  54.554  1.00  0.00     0.008 A 
BRANCH  28  31
HETATM   31  C19 UNL     1     -16.950  53.907  53.480  1.00  0.00     0.120 C 
HETATM   32  N3  UNL     1     -17.966  54.644  53.726  1.00  0.00    -0.387 N 
ATOM     33  H32 UNL     1     -18.562  54.343  54.497  1.00  0.00     0.157 HD
ATOM     34  H31 UNL     1     -18.216  55.492  53.217  1.00  0.00     0.157 HD
HETATM   35  N4  UNL     1     -16.116  54.328  52.400  1.00  0.00    -0.082 NA
ENDBRANCH  28  31
ENDBRANCH  24  25
ENDBRANCH  23  24
ENDBRANCH   4  23
TORSDOF 12
ENDMDL
MODEL 2
REMARK VINA RESULT: -7.877800249      0.835      1.220
REMARK  12 active torsions:
REMARK  status: ('A' for Active; 'I' for Inactive)
REMARK    1  A    between atoms: O1_2  and  C2_3 
REMARK    2  A    between atoms: C2_3  and  C3_4 
REMARK    3  A    between atoms: C3_4  and  O2_5 
REMARK    4  A    between atoms: O2_5  and  C4_6 
REMARK       I    between atoms: C4_6  and  N1_8 
REMARK    5  A    between atoms: N1_8  and  C5_10 
REMARK    6  A    between atoms: C5_10  and  C6_11 
REMARK    7  A    between atoms: C6_11  and  C7_12 
REMARK    8  A    between atoms: C10_15  and  C11_16 
REMARK       I    between atoms: N2_17  and  C12_19 
REMARK    9  A    between atoms: C12_19  and  C13_21 
REMARK   10  A    between atoms: C13_21  and  C14_22 
REMARK   11  A    between atoms: C14_22  and  C15_23 
REMARK   12  A    between atoms: C18_26  and  C19_27 
ROOT
HETATM    1  C11 UNL     1     -12.743  45.524  56.350  1.00  0.00     0.120 C 
HETATM    2  N2  UNL     1     -13.952  45.645  55.984  1.00  0.00    -0.335 N 
ATOM      3  H2  UNL     1     -14.374  44.991  55.324  1.00  0.00     0.168 HD
HETATM    4  C12 UNL     1     -14.715  46.750  56.541  1.00  0.00     0.221 C 
HETATM    5  O4  UNL     1     -15.337  46.529  57.596  1.00  0.00    -0.273 OA
ENDROOT
BRANCH   1   6
HETATM    6  C10 UNL     1     -11.932  44.422  55.814  1.00  0.00     0.048 A 
HETATM    7  C9  UNL     1     -12.369  43.428  54.974  1.00  0.00     0.033 A 
HETATM    8  C8  UNL     1     -11.262  42.622  54.738  1.00  0.00     0.027 A 
HETATM    9  C7  UNL     1     -10.180  43.124  55.425  1.00  0.00     0.011 A 
HETATM   10  N5  UNL     1     -10.626  44.215  56.065  1.00  0.00    -0.358 N 
ATOM     11  H5  UNL     1     -10.052  44.809  56.662  1.00  0.00     0.166 HD
BRANCH   9  12
HETATM   12  C6  UNL     1      -8.782  42.577  55.463  1.00  0.00     0.076 C 
BRANCH  12  13
HETATM   13  C5  UNL     1      -7.999  43.184  54.330  1.00  0.00     0.131 C 
BRANCH  13  14
HETATM   14  N1  UNL     1      -7.844  44.589  54.511  1.00  0.00    -0.337 N 
HETATM   15  C4  UNL     1      -6.661  45.160  55.026  1.00  0.00     0.360 C 
HETATM   16  O3  UNL     1      -5.715  44.403  55.342  1.00  0.00    -0.239 OA
ATOM     17  H1  UNL     1      -8.617  45.205  54.258  1.00  0.00     0.164 HD
BRANCH  15  18
HETATM   18  O2  UNL     1      -6.513  46.528  55.191  1.00  0.00    -0.302 OA
BRANCH  18  19
HETATM   19  C3  UNL     1      -7.540  47.348  55.656  1.00  0.00     0.207 C 
BRANCH  19  20
HETATM   20  C2  UNL     1      -7.281  48.805  55.534  1.00  0.00     0.193 C 
BRANCH  20  21
HETATM   21  O1  UNL     1      -8.170  49.454  54.682  1.00  0.00    -0.394 OA
HETATM   22  C1  UNL     1      -7.803  50.732  54.348  1.00  0.00     0.201 C 
ENDBRANCH  20  21
ENDBRANCH  19  20
ENDBRANCH  18  19
ENDBRANCH  15  18
ENDBRANCH  13  14
ENDBRANCH  12  13
ENDBRANCH   9  12
ENDBRANCH   1   6
BRANCH   4  23
HETATM   23  C13 UNL     1     -14.726  48.034  55.876  1.00  0.00     0.107 C 
BRANCH  23  24
HETATM   24  C14 UNL     1     -15.419  49.127  56.570  1.00  0.00     0.047 C 
BRANCH  24  25
HETATM   25  C15 UNL     1     -15.827  50.302  55.778  1.00  0.00    -0.058 A 
HETATM   26  C16 UNL     1     -16.610  50.213  54.662  1.00  0.00     0.008 A 
HETATM   27  C17 UNL     1     -16.964  51.332  53.906  1.00  0.00     0.015 A 
HETATM   28  C18 UNL     1     -16.539  52.597  54.253  1.00  0.00     0.004 A 
HETATM   29  C20 UNL     1     -15.752  52.690  55.377  1.00  0.00     0.015 A 
HETATM   30  C21 UNL     1     -15.397  51.589  56.127  1.00  0.00     0.008 A 
BRANCH  28  31
HETATM   31  C19 UNL     1     -16.926  53.753  53.443  1.00  0.00     0.120 C 
HETATM   32  N3  UNL     1     -18.020  54.405  53.560  1.00  0.00    -0.387 N 
ATOM     33  H32 UNL     1     -18.663  54.076  54.280  1.00  0.00     0.157 HD
ATOM     34  H31 UNL     1     -18.289  55.211  52.996  1.00  0.00     0.157 HD
HETATM   35  N4  UNL     1     -16.025  54.213  52.435  1.00  0.00    -0.082 NA
ENDBRANCH  28  31
ENDBRANCH  24  25
ENDBRANCH  23  24
ENDBRANCH   4  23
TORSDOF 12
ENDMDL
MODEL 3
REMARK VINA RESULT: -7.867588430      1.076      1.415
REMARK  12 active torsions:
REMARK  status: ('A' for Active; 'I' for Inactive)
REMARK    1  A    between atoms: O1_2  and  C2_3 
REMARK    2  A    between atoms: C2_3  and  C3_4 
REMARK    3  A    between atoms: C3_4  and  O2_5 
REMARK    4  A    between atoms: O2_5  and  C4_6 
REMARK       I    between atoms: C4_6  and  N1_8 
REMARK    5  A    between atoms: N1_8  and  C5_10 
REMARK    6  A    between atoms: C5_10  and  C6_11 
REMARK    7  A    between atoms: C6_11  and  C7_12 
REMARK    8  A    between atoms: C10_15  and  C11_16 
REMARK       I    between atoms: N2_17  and  C12_19 
REMARK    9  A    between atoms: C12_19  and  C13_21 
REMARK   10  A    between atoms: C13_21  and  C14_22 
REMARK   11  A    between atoms: C14_22  and  C15_23 
REMARK   12  A    between atoms: C18_26  and  C19_27 
ROOT
HETATM    1  C11 UNL     1     -12.594  45.186  56.299  1.00  0.00     0.120 C 
HETATM    2  N2  UNL     1     -13.834  45.316  56.062  1.00  0.00    -0.335 N 
ATOM      3  H2  UNL     1     -14.329  44.661  55.456  1.00  0.00     0.168 HD
HETATM    4  C12 UNL     1     -14.523  46.434  56.685  1.00  0.00     0.221 C 
HETATM    5  O4  UNL     1     -15.032  46.229  57.803  1.00  0.00    -0.273 OA
ENDROOT
BRANCH   1   6
HETATM    6  C10 UNL     1     -11.856  44.071  55.690  1.00  0.00     0.048 A 
HETATM    7  C9  UNL     1     -12.347  43.180  54.769  1.00  0.00     0.033 A 
HETATM    8  C8  UNL     1     -11.297  42.313  54.488  1.00  0.00     0.027 A 
HETATM    9  C7  UNL     1     -10.196  42.678  55.229  1.00  0.00     0.011 A 
HETATM   10  N5  UNL     1     -10.574  43.747  55.944  1.00  0.00    -0.358 N 
ATOM     11  H5  UNL     1      -9.970  44.248  56.596  1.00  0.00     0.166 HD
BRANCH   9  12
HETATM   12  C6  UNL     1      -8.843  42.026  55.245  1.00  0.00     0.076 C 
BRANCH  12  13
HETATM   13  C5  UNL     1      -7.930  42.795  54.329  1.00  0.00     0.131 C 
BRANCH  13  14
HETATM   14  N1  UNL     1      -7.554  44.041  54.909  1.00  0.00    -0.337 N 
HETATM   15  C4  UNL     1      -6.435  44.777  54.466  1.00  0.00     0.360 C 
HETATM   16  O3  UNL     1      -5.741  44.313  53.533  1.00  0.00    -0.239 OA
ATOM     17  H1  UNL     1      -8.117  44.416  55.674  1.00  0.00     0.164 HD
BRANCH  15  18
HETATM   18  O2  UNL     1      -6.082  45.993  55.029  1.00  0.00    -0.302 OA
BRANCH  18  19
HETATM   19  C3  UNL     1      -6.749  46.541  56.123  1.00  0.00     0.207 C 
BRANCH  19  20
HETATM   20  C2  UNL     1      -7.709  47.624  55.792  1.00  0.00     0.193 C 
BRANCH  20  21
HETATM   21  O1  UNL     1      -7.146  48.650  55.037  1.00  0.00    -0.394 OA
HETATM   22  C1  UNL     1      -7.863  49.818  55.044  1.00  0.00     0.201 C 
ENDBRANCH  20  21
ENDBRANCH  19  20
ENDBRANCH  18  19
ENDBRANCH  15  18
ENDBRANCH  13  14
ENDBRANCH  12  13
ENDBRANCH   9  12
ENDBRANCH   1   6
BRANCH   4  23
HETATM   23  C13 UNL     1     -14.592  47.712  56.013  1.00  0.00     0.107 C 
BRANCH  23  24
HETATM   24  C14 UNL     1     -15.359  48.768  56.687  1.00  0.00     0.047 C 
BRANCH  24  25
HETATM   25  C15 UNL     1     -15.715  49.969  55.909  1.00  0.00    -0.058 A 
HETATM   26  C16 UNL     1     -15.332  51.230  56.269  1.00  0.00     0.008 A 
HETATM   27  C17 UNL     1     -15.702  52.361  55.538  1.00  0.00     0.015 A 
HETATM   28  C18 UNL     1     -16.480  52.261  54.404  1.00  0.00     0.004 A 
HETATM   29  C20 UNL     1     -16.866  50.992  54.039  1.00  0.00     0.015 A 
HETATM   30  C21 UNL     1     -16.506  49.872  54.757  1.00  0.00     0.008 A 
BRANCH  28  31
HETATM   31  C19 UNL     1     -16.853  53.462  53.656  1.00  0.00     0.120 C 
HETATM   32  N3  UNL     1     -16.104  54.074  52.819  1.00  0.00    -0.387 N 
ATOM     33  H32 UNL     1     -15.175  53.678  52.676  1.00  0.00     0.157 HD
ATOM     34  H31 UNL     1     -16.364  54.912  52.298  1.00  0.00     0.157 HD
HETATM   35  N4  UNL     1     -18.154  54.016  53.857  1.00  0.00    -0.082 NA
ENDBRANCH  28  31
ENDBRANCH  24  25
ENDBRANCH  23  24
ENDBRANCH   4  23
TORSDOF 12
ENDMDL
MODEL 4
REMARK VINA RESULT: -7.610408427      2.076      3.817
REMARK  12 active torsions:
REMARK  status: ('A' for Active; 'I' for Inactive)
REMARK    1  A    between atoms: O1_2  and  C2_3 
REMARK    2  A    between atoms: C2_3  and  C3_4 
REMARK    3  A    between atoms: C3_4  and  O2_5 
REMARK    4  A    between atoms: O2_5  and  C4_6 
REMARK       I    between atoms: C4_6  and  N1_8 
REMARK    5  A    between atoms: N1_8  and  C5_10 
REMARK    6  A    between atoms: C5_10  and  C6_11 
REMARK    7  A    between atoms: C6_11  and  C7_12 
REMARK    8  A    between atoms: C10_15  and  C11_16 
REMARK       I    between atoms: N2_17  and  C12_19 
REMARK    9  A    between atoms: C12_19  and  C13_21 
REMARK   10  A    between atoms: C13_21  and  C14_22 
REMARK   11  A    between atoms: C14_22  and  C15_23 
REMARK   12  A    between atoms: C18_26  and  C19_27 
ROOT
HETATM    1  C11 UNL     1     -11.441  47.023  56.812  1.00  0.00     0.120 C 
HETATM    2  N2  UNL     1     -12.311  47.250  55.916  1.00  0.00    -0.335 N 
ATOM      3  H2  UNL     1     -12.039  47.432  54.949  1.00  0.00     0.168 HD
HETATM    4  C12 UNL     1     -13.707  47.241  56.318  1.00  0.00     0.221 C 
HETATM    5  O4  UNL     1     -14.307  46.153  56.245  1.00  0.00    -0.273 OA
ENDROOT
BRANCH   1   6
HETATM    6  C10 UNL     1     -10.017  47.021  56.453  1.00  0.00     0.048 A 
HETATM    7  C9  UNL     1      -9.326  48.055  55.870  1.00  0.00     0.033 A 
HETATM    8  C8  UNL     1      -8.022  47.598  55.721  1.00  0.00     0.027 A 
HETATM    9  C7  UNL     1      -7.932  46.313  56.205  1.00  0.00     0.011 A 
HETATM   10  N5  UNL     1      -9.161  45.999  56.640  1.00  0.00    -0.358 N 
ATOM     11  H5  UNL     1      -9.414  45.103  57.057  1.00  0.00     0.166 HD
BRANCH   9  12
HETATM   12  C6  UNL     1      -6.718  45.430  56.247  1.00  0.00     0.076 C 
BRANCH  12  13
HETATM   13  C5  UNL     1      -6.387  45.003  54.842  1.00  0.00     0.131 C 
BRANCH  13  14
HETATM   14  N1  UNL     1      -7.318  44.033  54.370  1.00  0.00    -0.337 N 
HETATM   15  C4  UNL     1      -7.318  42.698  54.827  1.00  0.00     0.360 C 
HETATM   16  O3  UNL     1      -6.463  42.352  55.674  1.00  0.00    -0.239 OA
ATOM     17  H1  UNL     1      -8.010  44.314  53.675  1.00  0.00     0.164 HD
BRANCH  15  18
HETATM   18  O2  UNL     1      -8.232  41.762  54.370  1.00  0.00    -0.302 OA
BRANCH  18  19
HETATM   19  C3  UNL     1      -9.610  41.950  54.451  1.00  0.00     0.207 C 
BRANCH  19  20
HETATM   20  C2  UNL     1     -10.140  43.061  53.620  1.00  0.00     0.193 C 
BRANCH  20  21
HETATM   21  O1  UNL     1     -10.625  44.129  54.370  1.00  0.00    -0.394 OA
HETATM   22  C1  UNL     1     -11.735  43.837  55.120  1.00  0.00     0.201 C 
ENDBRANCH  20  21
ENDBRANCH  19  20
ENDBRANCH  18  19
ENDBRANCH  15  18
ENDBRANCH  13  14
ENDBRANCH  12  13
ENDBRANCH   9  12
ENDBRANCH   1   6
BRANCH   4  23
HETATM   23  C13 UNL     1     -14.339  48.457  56.779  1.00  0.00     0.107 C 
BRANCH  23  24
HETATM   24  C14 UNL     1     -15.703  48.712  56.299  1.00  0.00     0.047 C 
BRANCH  24  25
HETATM   25  C15 UNL     1     -15.990  50.023  55.688  1.00  0.00    -0.058 A 
HETATM   26  C16 UNL     1     -16.773  50.173  54.579  1.00  0.00     0.008 A 
HETATM   27  C17 UNL     1     -17.011  51.418  53.995  1.00  0.00     0.015 A 
HETATM   28  C18 UNL     1     -16.464  52.572  54.515  1.00  0.00     0.004 A 
HETATM   29  C20 UNL     1     -15.676  52.425  55.632  1.00  0.00     0.015 A 
HETATM   30  C21 UNL     1     -15.436  51.197  56.213  1.00  0.00     0.008 A 
BRANCH  28  31
HETATM   31  C19 UNL     1     -16.731  53.865  53.883  1.00  0.00     0.120 C 
HETATM   32  N3  UNL     1     -16.141  54.315  52.842  1.00  0.00    -0.387 N 
ATOM     33  H32 UNL     1     -15.428  53.710  52.434  1.00  0.00     0.157 HD
ATOM     34  H31 UNL     1     -16.327  55.216  52.401  1.00  0.00     0.157 HD
HETATM   35  N4  UNL     1     -17.729  54.712  54.454  1.00  0.00    -0.082 NA
ENDBRANCH  28  31
ENDBRANCH  24  25
ENDBRANCH  23  24
ENDBRANCH   4  23
TORSDOF 12
ENDMDL
MODEL 5
REMARK VINA RESULT: -7.572378642      4.734      6.679
REMARK  12 active torsions:
REMARK  status: ('A' for Active; 'I' for Inactive)
REMARK    1  A    between atoms: O1_2  and  C2_3 
REMARK    2  A    between atoms: C2_3  and  C3_4 
REMARK    3  A    between atoms: C3_4  and  O2_5 
REMARK    4  A    between atoms: O2_5  and  C4_6 
REMARK       I    between atoms: C4_6  and  N1_8 
REMARK    5  A    between atoms: N1_8  and  C5_10 
REMARK    6  A    between atoms: C5_10  and  C6_11 
REMARK    7  A    between atoms: C6_11  and  C7_12 
REMARK    8  A    between atoms: C10_15  and  C11_16 
REMARK       I    between atoms: N2_17  and  C12_19 
REMARK    9  A    between atoms: C12_19  and  C13_21 
REMARK   10  A    between atoms: C13_21  and  C14_22 
REMARK   11  A    between atoms: C14_22  and  C15_23 
REMARK   12  A    between atoms: C18_26  and  C19_27 
ROOT
HETATM    1  C11 UNL     1     -12.477  44.138  55.587  1.00  0.00     0.120 C 
HETATM    2  N2  UNL     1     -12.506  45.076  56.441  1.00  0.00    -0.335 N 
ATOM      3  H2  UNL     1     -11.647  45.494  56.798  1.00  0.00     0.168 HD
HETATM    4  C12 UNL     1     -13.811  45.533  56.891  1.00  0.00     0.221 C 
HETATM    5  O4  UNL     1     -14.334  46.462  56.250  1.00  0.00    -0.273 OA
ENDROOT
BRANCH   1   6
HETATM    6  C10 UNL     1     -11.181  43.642  55.103  1.00  0.00     0.048 A 
HETATM    7  C9  UNL     1     -10.972  42.501  54.370  1.00  0.00     0.033 A 
HETATM    8  C8  UNL     1      -9.601  42.444  54.145  1.00  0.00     0.027 A 
HETATM    9  C7  UNL     1      -9.000  43.533  54.733  1.00  0.00     0.011 A 
HETATM   10  N5  UNL     1      -9.989  44.236  55.303  1.00  0.00    -0.358 N 
ATOM     11  H5  UNL     1      -9.857  45.104  55.821  1.00  0.00     0.166 HD
BRANCH   9  12
HETATM   12  C6  UNL     1      -7.538  43.880  54.745  1.00  0.00     0.076 C 
BRANCH  12  13
HETATM   13  C5  UNL     1      -7.262  44.753  55.939  1.00  0.00     0.131 C 
BRANCH  13  14
HETATM   14  N1  UNL     1      -6.785  46.035  55.535  1.00  0.00    -0.337 N 
HETATM   15  C4  UNL     1      -7.613  47.176  55.505  1.00  0.00     0.360 C 
HETATM   16  O3  UNL     1      -8.814  47.057  55.838  1.00  0.00    -0.239 OA
ATOM     17  H1  UNL     1      -5.807  46.130  55.258  1.00  0.00     0.164 HD
BRANCH  15  18
HETATM   18  O2  UNL     1      -7.140  48.421  55.120  1.00  0.00    -0.302 OA
BRANCH  18  19
HETATM   19  C3  UNL     1      -7.797  49.609  55.436  1.00  0.00     0.207 C 
BRANCH  19  20
HETATM   20  C2  UNL     1      -7.891  50.587  54.322  1.00  0.00     0.193 C 
BRANCH  20  21
HETATM   21  O1  UNL     1      -7.829  51.912  54.745  1.00  0.00    -0.394 OA
HETATM   22  C1  UNL     1      -6.766  52.198  55.562  1.00  0.00     0.201 C 
ENDBRANCH  20  21
ENDBRANCH  19  20
ENDBRANCH  18  19
ENDBRANCH  15  18
ENDBRANCH  13  14
ENDBRANCH  12  13
ENDBRANCH   9  12
ENDBRANCH   1   6
BRANCH   4  23
HETATM   23  C13 UNL     1     -14.444  44.912  58.034  1.00  0.00     0.107 C 
BRANCH  23  24
HETATM   24  C14 UNL     1     -15.907  44.789  57.987  1.00  0.00     0.047 C 
BRANCH  24  25
HETATM   25  C15 UNL     1     -16.480  43.525  57.489  1.00  0.00    -0.058 A 
HETATM   26  C16 UNL     1     -16.317  43.087  56.205  1.00  0.00     0.008 A 
HETATM   27  C17 UNL     1     -16.891  41.902  55.740  1.00  0.00     0.015 A 
HETATM   28  C18 UNL     1     -17.658  41.105  56.563  1.00  0.00     0.004 A 
HETATM   29  C20 UNL     1     -17.824  41.543  57.856  1.00  0.00     0.015 A 
HETATM   30  C21 UNL     1     -17.261  42.712  58.321  1.00  0.00     0.008 A 
BRANCH  28  31
HETATM   31  C19 UNL     1     -18.247  39.867  56.050  1.00  0.00     0.120 C 
HETATM   32  N3  UNL     1     -18.293  38.755  56.679  1.00  0.00    -0.387 N 
ATOM     33  H32 UNL     1     -17.879  38.749  57.611  1.00  0.00     0.157 HD
ATOM     34  H31 UNL     1     -18.704  37.892  56.321  1.00  0.00     0.157 HD
HETATM   35  N4  UNL     1     -18.827  39.876  54.745  1.00  0.00    -0.082 NA
ENDBRANCH  28  31
ENDBRANCH  24  25
ENDBRANCH  23  24
ENDBRANCH   4  23
TORSDOF 12
ENDMDL
