MODEL 1
REMARK VINA RESULT: -7.538232510      0.000      0.000
REMARK  12 active torsions:
REMARK  status: ('A' for Active; 'I' for Inactive)
REMARK       I    between atoms: C2_5  and  N3_6 
REMARK       I    between atoms: C2_5  and  N5_10 
REMARK    1  A    between atoms: N5_10  and  C4_12 
REMARK    2  A    between atoms: C4_12  and  C5_13 
REMARK    3  A    between atoms: C5_13  and  N6_14 
REMARK    4  A    between atoms: N6_14  and  C6_16 
REMARK    5  A    between atoms: C6_16  and  C7_17 
REMARK    6  A    between atoms: C6_16  and  C17_30 
REMARK    7  A    between atoms: C7_17  and  N7_18 
REMARK    8  A    between atoms: N7_18  and  C8_19 
REMARK    9  A    between atoms: N7_18  and  C10_23 
REMARK   10  A    between atoms: C8_19  and  C9_20 
REMARK   11  A    between atoms: C9_20  and  O1_21 
REMARK   12  A    between atoms: C10_23  and  C11_24 
ROOT
HETATM    1  N1  UNL     1      -5.626  54.109  56.418  1.00  0.00    -0.171 NA
HETATM    2  C1  UNL     1      -5.929  53.120  55.867  1.00  0.00     0.196 C 
HETATM    3  N2  UNL     1      -6.296  51.960  55.191  1.00  0.00    -0.126 N 
ATOM      4  H2  UNL     1      -5.878  51.767  54.281  1.00  0.00     0.197 HD
HETATM    5  C2  UNL     1      -7.149  51.118  55.678  1.00  0.00     0.696 C 
HETATM    6  N3  UNL     1      -7.689  51.445  56.948  1.00  0.00    -0.126 N 
ATOM      7  H3  UNL     1      -8.667  51.719  57.049  1.00  0.00     0.197 HD
HETATM    8  C3  UNL     1      -6.829  51.380  58.069  1.00  0.00     0.196 C 
HETATM    9  N4  UNL     1      -6.124  51.323  58.973  1.00  0.00    -0.171 NA
HETATM   10  N5  UNL     1      -7.506  49.975  54.989  1.00  0.00    -0.223 N 
ATOM     11  H5  UNL     1      -7.364  50.019  53.980  1.00  0.00     0.177 HD
ENDROOT
BRANCH  10  12
HETATM   12  C4  UNL     1      -8.047  48.733  55.474  1.00  0.00     0.157 C 
BRANCH  12  13
HETATM   13  C5  UNL     1      -7.021  47.922  56.265  1.00  0.00     0.134 C 
BRANCH  13  14
HETATM   14  N6  UNL     1      -7.670  47.106  57.269  1.00  0.00    -0.410 N 
ATOM     15  H6  UNL     1      -7.921  47.473  58.188  1.00  0.00     0.154 HD
BRANCH  14  16
HETATM   16  C6  UNL     1      -7.934  45.764  56.897  1.00  0.00     0.123 C 
BRANCH  16  17
HETATM   17  C7  UNL     1      -7.245  45.160  55.730  1.00  0.00     0.124 C 
BRANCH  17  18
HETATM   18  N7  UNL     1      -6.562  43.914  55.948  1.00  0.00    -0.288 NA
BRANCH  18  19
HETATM   19  C8  UNL     1      -5.170  44.206  55.505  1.00  0.00     0.121 C 
BRANCH  19  20
HETATM   20  C9  UNL     1      -4.964  44.045  54.051  1.00  0.00     0.179 C 
BRANCH  20  21
HETATM   21  O1  UNL     1      -3.688  43.459  53.882  1.00  0.00    -0.400 OA
ATOM     22  H1  UNL     1      -3.731  42.592  54.268  1.00  0.00     0.209 HD
ENDBRANCH  20  21
ENDBRANCH  19  20
ENDBRANCH  18  19
BRANCH  18  23
HETATM   23  C10 UNL     1      -7.028  42.744  55.330  1.00  0.00     0.071 C 
BRANCH  23  24
HETATM   24  C11 UNL     1      -8.436  42.483  55.061  1.00  0.00    -0.026 A 
HETATM   25  C12 UNL     1      -9.248  41.686  55.807  1.00  0.00     0.012 A 
HETATM   26  C13 UNL     1     -10.574  41.448  55.445  1.00  0.00     0.001 A 
HETATM   27  C14 UNL     1     -11.126  42.005  54.321  1.00  0.00     0.000 A 
HETATM   28  C15 UNL     1     -10.299  42.810  53.575  1.00  0.00     0.001 A 
HETATM   29  C16 UNL     1      -9.003  43.053  53.911  1.00  0.00     0.012 A 
ENDBRANCH  23  24
ENDBRANCH  18  23
ENDBRANCH  17  18
ENDBRANCH  16  17
BRANCH  16  30
HETATM   30  C17 UNL     1      -9.408  45.462  56.903  1.00  0.00    -0.035 A 
HETATM   31  C18 UNL     1     -10.008  44.886  58.000  1.00  0.00     0.009 A 
HETATM   32  C19 UNL     1     -11.336  44.593  58.059  1.00  0.00     0.001 A 
HETATM   33  C20 UNL     1     -12.122  44.886  56.966  1.00  0.00     0.000 A 
HETATM   34  C21 UNL     1     -11.527  45.463  55.863  1.00  0.00     0.001 A 
HETATM   35  C22 UNL     1     -10.180  45.756  55.812  1.00  0.00     0.009 A 
ENDBRANCH  16  30
ENDBRANCH  14  16
ENDBRANCH  13  14
ENDBRANCH  12  13
ENDBRANCH  10  12
TORSDOF 12
ENDMDL
MODEL 2
REMARK VINA RESULT: -7.450935051      1.145      1.971
REMARK  12 active torsions:
REMARK  status: ('A' for Active; 'I' for Inactive)
REMARK       I    between atoms: C2_5  and  N3_6 
REMARK       I    between atoms: C2_5  and  N5_10 
REMARK    1  A    between atoms: N5_10  and  C4_12 
REMARK    2  A    between atoms: C4_12  and  C5_13 
REMARK    3  A    between atoms: C5_13  and  N6_14 
REMARK    4  A    between atoms: N6_14  and  C6_16 
REMARK    5  A    between atoms: C6_16  and  C7_17 
REMARK    6  A    between atoms: C6_16  and  C17_30 
REMARK    7  A    between atoms: C7_17  and  N7_18 
REMARK    8  A    between atoms: N7_18  and  C8_19 
REMARK    9  A    between atoms: N7_18  and  C10_23 
REMARK   10  A    between atoms: C8_19  and  C9_20 
REMARK   11  A    between atoms: C9_20  and  O1_21 
REMARK   12  A    between atoms: C10_23  and  C11_24 
ROOT
HETATM    1  N1  UNL     1      -7.938  54.525  55.872  1.00  0.00    -0.171 NA
HETATM    2  C1  UNL     1      -7.854  53.637  56.633  1.00  0.00     0.196 C 
HETATM    3  N2  UNL     1      -7.747  52.600  57.555  1.00  0.00    -0.126 N 
ATOM      4  H2  UNL     1      -8.253  52.672  58.438  1.00  0.00     0.197 HD
HETATM    5  C2  UNL     1      -7.029  51.549  57.330  1.00  0.00     0.696 C 
HETATM    6  N3  UNL     1      -6.354  51.512  56.083  1.00  0.00    -0.126 N 
ATOM      7  H3  UNL     1      -5.339  51.596  56.031  1.00  0.00     0.197 HD
HETATM    8  C3  UNL     1      -7.135  51.353  54.914  1.00  0.00     0.196 C 
HETATM    9  N4  UNL     1      -7.777  51.224  53.971  1.00  0.00    -0.171 NA
HETATM   10  N5  UNL     1      -6.929  50.533  58.261  1.00  0.00    -0.223 N 
ATOM     11  H5  UNL     1      -7.129  50.808  59.222  1.00  0.00     0.177 HD
ENDROOT
BRANCH  10  12
HETATM   12  C4  UNL     1      -6.589  49.146  58.084  1.00  0.00     0.157 C 
BRANCH  12  13
HETATM   13  C5  UNL     1      -7.701  48.357  57.395  1.00  0.00     0.134 C 
BRANCH  13  14
HETATM   14  N6  UNL     1      -7.863  47.052  58.001  1.00  0.00    -0.410 N 
ATOM     15  H6  UNL     1      -7.768  46.906  59.007  1.00  0.00     0.154 HD
BRANCH  14  16
HETATM   16  C6  UNL     1      -8.164  45.992  57.110  1.00  0.00     0.123 C 
BRANCH  16  17
HETATM   17  C7  UNL     1      -7.447  45.873  55.816  1.00  0.00     0.124 C 
BRANCH  17  18
HETATM   18  N7  UNL     1      -6.893  44.587  55.492  1.00  0.00    -0.288 NA
BRANCH  18  19
HETATM   19  C8  UNL     1      -5.472  44.898  55.174  1.00  0.00     0.121 C 
BRANCH  19  20
HETATM   20  C9  UNL     1      -4.901  44.044  54.113  1.00  0.00     0.179 C 
BRANCH  20  21
HETATM   21  O1  UNL     1      -4.085  44.877  53.313  1.00  0.00    -0.400 OA
ATOM     22  H1  UNL     1      -3.667  44.316  52.671  1.00  0.00     0.209 HD
ENDBRANCH  20  21
ENDBRANCH  19  20
ENDBRANCH  18  19
BRANCH  18  23
HETATM   23  C10 UNL     1      -7.460  43.821  54.462  1.00  0.00     0.071 C 
BRANCH  23  24
HETATM   24  C11 UNL     1      -8.775  43.199  54.553  1.00  0.00    -0.026 A 
HETATM   25  C12 UNL     1      -9.903  43.643  53.936  1.00  0.00     0.012 A 
HETATM   26  C13 UNL     1     -11.134  43.016  54.123  1.00  0.00     0.001 A 
HETATM   27  C14 UNL     1     -11.271  41.921  54.937  1.00  0.00     0.000 A 
HETATM   28  C15 UNL     1     -10.126  41.480  55.555  1.00  0.00     0.001 A 
HETATM   29  C16 UNL     1      -8.915  42.079  55.386  1.00  0.00     0.012 A 
ENDBRANCH  23  24
ENDBRANCH  18  23
ENDBRANCH  17  18
ENDBRANCH  16  17
BRANCH  16  30
HETATM   30  C17 UNL     1      -9.648  45.794  56.957  1.00  0.00    -0.035 A 
HETATM   31  C18 UNL     1     -10.313  44.835  57.685  1.00  0.00     0.009 A 
HETATM   32  C19 UNL     1     -11.653  44.615  57.586  1.00  0.00     0.001 A 
HETATM   33  C20 UNL     1     -12.382  45.391  56.711  1.00  0.00     0.000 A 
HETATM   34  C21 UNL     1     -11.720  46.353  55.977  1.00  0.00     0.001 A 
HETATM   35  C22 UNL     1     -10.362  46.569  56.084  1.00  0.00     0.009 A 
ENDBRANCH  16  30
ENDBRANCH  14  16
ENDBRANCH  13  14
ENDBRANCH  12  13
ENDBRANCH  10  12
TORSDOF 12
ENDMDL
MODEL 3
REMARK VINA RESULT: -7.228675955      2.541      3.738
REMARK  12 active torsions:
REMARK  status: ('A' for Active; 'I' for Inactive)
REMARK       I    between atoms: C2_5  and  N3_6 
REMARK       I    between atoms: C2_5  and  N5_10 
REMARK    1  A    between atoms: N5_10  and  C4_12 
REMARK    2  A    between atoms: C4_12  and  C5_13 
REMARK    3  A    between atoms: C5_13  and  N6_14 
REMARK    4  A    between atoms: N6_14  and  C6_16 
REMARK    5  A    between atoms: C6_16  and  C7_17 
REMARK    6  A    between atoms: C6_16  and  C17_30 
REMARK    7  A    between atoms: C7_17  and  N7_18 
REMARK    8  A    between atoms: N7_18  and  C8_19 
REMARK    9  A    between atoms: N7_18  and  C10_23 
REMARK   10  A    between atoms: C8_19  and  C9_20 
REMARK   11  A    between atoms: C9_20  and  O1_21 
REMARK   12  A    between atoms: C10_23  and  C11_24 
ROOT
HETATM    1  N1  UNL     1     -11.082  48.674  62.940  1.00  0.00    -0.171 NA
HETATM    2  C1  UNL     1     -10.150  48.747  62.232  1.00  0.00     0.196 C 
HETATM    3  N2  UNL     1      -9.034  48.851  61.408  1.00  0.00    -0.126 N 
ATOM      4  H2  UNL     1      -8.110  48.690  61.808  1.00  0.00     0.197 HD
HETATM    5  C2  UNL     1      -9.129  49.143  60.152  1.00  0.00     0.696 C 
HETATM    6  N3  UNL     1     -10.442  49.351  59.659  1.00  0.00    -0.126 N 
ATOM      7  H3  UNL     1     -10.759  50.279  59.380  1.00  0.00     0.197 HD
HETATM    8  C3  UNL     1     -11.299  48.229  59.567  1.00  0.00     0.196 C 
HETATM    9  N4  UNL     1     -11.986  47.312  59.496  1.00  0.00    -0.171 NA
HETATM   10  N5  UNL     1      -8.008  49.249  59.351  1.00  0.00    -0.223 N 
ATOM     11  H5  UNL     1      -7.140  49.447  59.849  1.00  0.00     0.177 HD
ENDROOT
BRANCH  10  12
HETATM   12  C4  UNL     1      -7.875  49.121  57.924  1.00  0.00     0.157 C 
BRANCH  12  13
HETATM   13  C5  UNL     1      -7.054  47.896  57.524  1.00  0.00     0.134 C 
BRANCH  13  14
HETATM   14  N6  UNL     1      -7.608  46.690  58.103  1.00  0.00    -0.410 N 
ATOM     15  H6  UNL     1      -7.742  46.584  59.109  1.00  0.00     0.154 HD
BRANCH  14  16
HETATM   16  C6  UNL     1      -7.951  45.667  57.184  1.00  0.00     0.123 C 
BRANCH  16  17
HETATM   17  C7  UNL     1      -7.163  45.480  55.940  1.00  0.00     0.124 C 
BRANCH  17  18
HETATM   18  N7  UNL     1      -6.657  44.160  55.681  1.00  0.00    -0.288 NA
BRANCH  18  19
HETATM   19  C8  UNL     1      -5.215  44.399  55.393  1.00  0.00     0.121 C 
BRANCH  19  20
HETATM   20  C9  UNL     1      -4.850  44.187  53.978  1.00  0.00     0.179 C 
BRANCH  20  21
HETATM   21  O1  UNL     1      -3.610  43.506  53.974  1.00  0.00    -0.400 OA
ATOM     22  H1  UNL     1      -3.577  43.002  53.169  1.00  0.00     0.209 HD
ENDBRANCH  20  21
ENDBRANCH  19  20
ENDBRANCH  18  19
BRANCH  18  23
HETATM   23  C10 UNL     1      -7.228  43.379  54.664  1.00  0.00     0.071 C 
BRANCH  23  24
HETATM   24  C11 UNL     1      -8.594  42.876  54.708  1.00  0.00    -0.026 A 
HETATM   25  C12 UNL     1      -9.005  41.766  55.380  1.00  0.00     0.012 A 
HETATM   26  C13 UNL     1     -10.326  41.324  55.324  1.00  0.00     0.001 A 
HETATM   27  C14 UNL     1     -11.278  41.985  54.590  1.00  0.00     0.000 A 
HETATM   28  C15 UNL     1     -10.854  43.105  53.917  1.00  0.00     0.001 A 
HETATM   29  C16 UNL     1      -9.568  43.552  53.958  1.00  0.00     0.012 A 
ENDBRANCH  23  24
ENDBRANCH  18  23
ENDBRANCH  17  18
ENDBRANCH  16  17
BRANCH  16  30
HETATM   30  C17 UNL     1      -9.433  45.619  56.929  1.00  0.00    -0.035 A 
HETATM   31  C18 UNL     1     -10.043  46.555  56.125  1.00  0.00     0.009 A 
HETATM   32  C19 UNL     1     -11.379  46.559  55.861  1.00  0.00     0.001 A 
HETATM   33  C20 UNL     1     -12.162  45.577  56.427  1.00  0.00     0.000 A 
HETATM   34  C21 UNL     1     -11.557  44.637  57.234  1.00  0.00     0.001 A 
HETATM   35  C22 UNL     1     -10.203  44.641  57.497  1.00  0.00     0.009 A 
ENDBRANCH  16  30
ENDBRANCH  14  16
ENDBRANCH  13  14
ENDBRANCH  12  13
ENDBRANCH  10  12
TORSDOF 12
ENDMDL
MODEL 4
REMARK VINA RESULT: -7.091757544      2.636      4.884
REMARK  12 active torsions:
REMARK  status: ('A' for Active; 'I' for Inactive)
REMARK       I    between atoms: C2_5  and  N3_6 
REMARK       I    between atoms: C2_5  and  N5_10 
REMARK    1  A    between atoms: N5_10  and  C4_12 
REMARK    2  A    between atoms: C4_12  and  C5_13 
REMARK    3  A    between atoms: C5_13  and  N6_14 
REMARK    4  A    between atoms: N6_14  and  C6_16 
REMARK    5  A    between atoms: C6_16  and  C7_17 
REMARK    6  A    between atoms: C6_16  and  C17_30 
REMARK    7  A    between atoms: C7_17  and  N7_18 
REMARK    8  A    between atoms: N7_18  and  C8_19 
REMARK    9  A    between atoms: N7_18  and  C10_23 
REMARK   10  A    between atoms: C8_19  and  C9_20 
REMARK   11  A    between atoms: C9_20  and  O1_21 
REMARK   12  A    between atoms: C10_23  and  C11_24 
ROOT
HETATM    1  N1  UNL     1      -7.415  53.467  56.384  1.00  0.00    -0.171 NA
HETATM    2  C1  UNL     1      -7.468  52.318  56.617  1.00  0.00     0.196 C 
HETATM    3  N2  UNL     1      -7.515  50.960  56.913  1.00  0.00    -0.126 N 
ATOM      4  H2  UNL     1      -7.797  50.670  57.850  1.00  0.00     0.197 HD
HETATM    5  C2  UNL     1      -7.215  50.053  56.042  1.00  0.00     0.696 C 
HETATM    6  N3  UNL     1      -6.836  50.524  54.759  1.00  0.00    -0.126 N 
ATOM      7  H3  UNL     1      -5.874  50.439  54.430  1.00  0.00     0.197 HD
HETATM    8  C3  UNL     1      -7.835  51.116  53.950  1.00  0.00     0.196 C 
HETATM    9  N4  UNL     1      -8.652  51.595  53.302  1.00  0.00    -0.171 NA
HETATM   10  N5  UNL     1      -7.262  48.709  56.357  1.00  0.00    -0.223 N 
ATOM     11  H5  UNL     1      -7.179  48.496  57.351  1.00  0.00     0.177 HD
ENDROOT
BRANCH  10  12
HETATM   12  C4  UNL     1      -7.409  47.561  55.500  1.00  0.00     0.157 C 
BRANCH  12  13
HETATM   13  C5  UNL     1      -6.897  46.278  56.154  1.00  0.00     0.134 C 
BRANCH  13  14
HETATM   14  N6  UNL     1      -7.581  45.118  55.624  1.00  0.00    -0.410 N 
ATOM     15  H6  UNL     1      -7.115  44.445  55.015  1.00  0.00     0.154 HD
BRANCH  14  16
HETATM   16  C6  UNL     1      -8.940  44.976  56.003  1.00  0.00     0.123 C 
BRANCH  16  17
HETATM   17  C7  UNL     1      -9.344  45.149  57.421  1.00  0.00     0.124 C 
BRANCH  17  18
HETATM   18  N7  UNL     1     -10.132  46.308  57.738  1.00  0.00    -0.288 NA
BRANCH  18  19
HETATM   19  C8  UNL     1      -9.392  46.922  58.876  1.00  0.00     0.121 C 
BRANCH  19  20
HETATM   20  C9  UNL     1      -9.512  48.393  58.937  1.00  0.00     0.179 C 
BRANCH  20  21
HETATM   21  O1  UNL     1      -8.222  48.897  59.221  1.00  0.00    -0.400 OA
ATOM     22  H1  UNL     1      -7.610  48.187  59.066  1.00  0.00     0.209 HD
ENDBRANCH  20  21
ENDBRANCH  19  20
ENDBRANCH  18  19
BRANCH  18  23
HETATM   23  C10 UNL     1     -11.488  46.163  58.068  1.00  0.00     0.071 C 
BRANCH  23  24
HETATM   24  C11 UNL     1     -12.557  46.910  57.419  1.00  0.00    -0.026 A 
HETATM   25  C12 UNL     1     -13.294  47.897  57.996  1.00  0.00     0.012 A 
HETATM   26  C13 UNL     1     -14.338  48.524  57.316  1.00  0.00     0.001 A 
HETATM   27  C14 UNL     1     -14.674  48.177  56.032  1.00  0.00     0.000 A 
HETATM   28  C15 UNL     1     -13.923  47.180  55.458  1.00  0.00     0.001 A 
HETATM   29  C16 UNL     1     -12.902  46.556  56.105  1.00  0.00     0.012 A 
ENDBRANCH  23  24
ENDBRANCH  18  23
ENDBRANCH  17  18
ENDBRANCH  16  17
BRANCH  16  30
HETATM   30  C17 UNL     1      -9.571  43.762  55.377  1.00  0.00    -0.035 A 
HETATM   31  C18 UNL     1     -10.939  43.622  55.327  1.00  0.00     0.009 A 
HETATM   32  C19 UNL     1     -11.561  42.545  54.773  1.00  0.00     0.001 A 
HETATM   33  C20 UNL     1     -10.784  41.543  54.235  1.00  0.00     0.000 A 
HETATM   34  C21 UNL     1      -9.412  41.677  54.283  1.00  0.00     0.001 A 
HETATM   35  C22 UNL     1      -8.790  42.772  54.847  1.00  0.00     0.009 A 
ENDBRANCH  16  30
ENDBRANCH  14  16
ENDBRANCH  13  14
ENDBRANCH  12  13
ENDBRANCH  10  12
TORSDOF 12
ENDMDL
MODEL 5
REMARK VINA RESULT: -6.875145676      3.238      6.289
REMARK  12 active torsions:
REMARK  status: ('A' for Active; 'I' for Inactive)
REMARK       I    between atoms: C2_5  and  N3_6 
REMARK       I    between atoms: C2_5  and  N5_10 
REMARK    1  A    between atoms: N5_10  and  C4_12 
REMARK    2  A    between atoms: C4_12  and  C5_13 
REMARK    3  A    between atoms: C5_13  and  N6_14 
REMARK    4  A    between atoms: N6_14  and  C6_16 
REMARK    5  A    between atoms: C6_16  and  C7_17 
REMARK    6  A    between atoms: C6_16  and  C17_30 
REMARK    7  A    between atoms: C7_17  and  N7_18 
REMARK    8  A    between atoms: N7_18  and  C8_19 
REMARK    9  A    between atoms: N7_18  and  C10_23 
REMARK   10  A    between atoms: C8_19  and  C9_20 
REMARK   11  A    between atoms: C9_20  and  O1_21 
REMARK   12  A    between atoms: C10_23  and  C11_24 
ROOT
HETATM    1  N1  UNL     1      -3.757  44.819  53.995  1.00  0.00    -0.171 NA
HETATM    2  C1  UNL     1      -4.615  44.032  54.143  1.00  0.00     0.196 C 
HETATM    3  N2  UNL     1      -5.624  43.087  54.298  1.00  0.00    -0.126 N 
ATOM      4  H2  UNL     1      -5.373  42.099  54.323  1.00  0.00     0.197 HD
HETATM    5  C2  UNL     1      -6.868  43.420  54.410  1.00  0.00     0.696 C 
HETATM    6  N3  UNL     1      -7.148  44.809  54.370  1.00  0.00    -0.126 N 
ATOM      7  H3  UNL     1      -7.632  45.226  53.575  1.00  0.00     0.197 HD
HETATM    8  C3  UNL     1      -6.731  45.599  55.468  1.00  0.00     0.196 C 
HETATM    9  N4  UNL     1      -6.390  46.231  56.363  1.00  0.00    -0.171 NA
HETATM   10  N5  UNL     1      -7.858  42.466  54.556  1.00  0.00    -0.223 N 
ATOM     11  H5  UNL     1      -7.615  41.538  54.210  1.00  0.00     0.177 HD
ENDROOT
BRANCH  10  12
HETATM   12  C4  UNL     1      -9.177  42.579  55.121  1.00  0.00     0.157 C 
BRANCH  12  13
HETATM   13  C5  UNL     1     -10.159  43.263  54.171  1.00  0.00     0.134 C 
BRANCH  13  14
HETATM   14  N6  UNL     1     -11.325  43.737  54.885  1.00  0.00    -0.410 N 
ATOM     15  H6  UNL     1     -12.094  43.117  55.141  1.00  0.00     0.154 HD
BRANCH  14  16
HETATM   16  C6  UNL     1     -11.331  45.118  55.208  1.00  0.00     0.123 C 
BRANCH  16  17
HETATM   17  C7  UNL     1     -10.156  45.738  55.870  1.00  0.00     0.124 C 
BRANCH  17  18
HETATM   18  N7  UNL     1     -10.382  46.963  56.586  1.00  0.00    -0.288 NA
BRANCH  18  19
HETATM   19  C8  UNL     1      -9.502  47.937  55.882  1.00  0.00     0.121 C 
BRANCH  19  20
HETATM   20  C9  UNL     1      -8.856  48.912  56.784  1.00  0.00     0.179 C 
BRANCH  20  21
HETATM   21  O1  UNL     1      -7.514  49.038  56.354  1.00  0.00    -0.400 OA
ATOM     22  H1  UNL     1      -7.533  49.517  55.535  1.00  0.00     0.209 HD
ENDBRANCH  20  21
ENDBRANCH  19  20
ENDBRANCH  18  19
BRANCH  18  23
HETATM   23  C10 UNL     1     -10.151  47.018  57.969  1.00  0.00     0.071 C 
BRANCH  23  24
HETATM   24  C11 UNL     1     -11.021  46.391  58.955  1.00  0.00    -0.026 A 
HETATM   25  C12 UNL     1     -10.879  45.129  59.443  1.00  0.00     0.012 A 
HETATM   26  C13 UNL     1     -11.793  44.587  60.347  1.00  0.00     0.001 A 
HETATM   27  C14 UNL     1     -12.879  45.298  60.789  1.00  0.00     0.000 A 
HETATM   28  C15 UNL     1     -13.013  46.571  60.291  1.00  0.00     0.001 A 
HETATM   29  C16 UNL     1     -12.133  47.117  59.408  1.00  0.00     0.012 A 
ENDBRANCH  23  24
ENDBRANCH  18  23
ENDBRANCH  17  18
ENDBRANCH  16  17
BRANCH  16  30
HETATM   30  C17 UNL     1     -12.628  45.537  55.846  1.00  0.00    -0.035 A 
HETATM   31  C18 UNL     1     -13.168  46.779  55.601  1.00  0.00     0.009 A 
HETATM   32  C19 UNL     1     -14.337  47.208  56.150  1.00  0.00     0.001 A 
HETATM   33  C20 UNL     1     -15.016  46.358  56.995  1.00  0.00     0.000 A 
HETATM   34  C21 UNL     1     -14.479  45.112  57.246  1.00  0.00     0.001 A 
HETATM   35  C22 UNL     1     -13.294  44.686  56.685  1.00  0.00     0.009 A 
ENDBRANCH  16  30
ENDBRANCH  14  16
ENDBRANCH  13  14
ENDBRANCH  12  13
ENDBRANCH  10  12
TORSDOF 12
ENDMDL
