MODEL 1
REMARK VINA RESULT: -7.285890132      0.000      0.000
REMARK  15 active torsions:
REMARK  status: ('A' for Active; 'I' for Inactive)
REMARK    1  A    between atoms: C2_2  and  N1_3 
REMARK    2  A    between atoms: N1_3  and  C3_5 
REMARK    3  A    between atoms: C3_5  and  C4_9 
REMARK    4  A    between atoms: C4_9  and  C5_10 
REMARK    5  A    between atoms: C5_10  and  C6_11 
REMARK    6  A    between atoms: C6_11  and  N3_12 
REMARK    7  A    between atoms: N3_12  and  C7_14 
REMARK    8  A    between atoms: C8_17  and  N5_18 
REMARK    9  A    between atoms: N5_18  and  C9_20 
REMARK   10  A    between atoms: C9_20  and  C10_21 
REMARK   11  A    between atoms: C10_21  and  C11_22 
REMARK   12  A    between atoms: C11_22  and  C12_23 
REMARK   13  A    between atoms: C12_23  and  N6_24 
REMARK   14  A    between atoms: N8_32  and  C14_33 
REMARK   15  A    between atoms: C14_33  and  C15_34 
ROOT
HETATM    1  C7  UNL     1     -10.086  45.637  55.550  1.00  0.00     0.703 A 
HETATM    2  N4  UNL     1      -9.000  44.979  55.166  1.00  0.00    -0.022 N 
ATOM      3  H4  UNL     1      -8.092  45.440  55.228  1.00  0.00     0.203 HD
HETATM    4  C8  UNL     1      -9.064  43.703  54.691  1.00  0.00     0.696 A 
HETATM    5  N7  UNL     1     -10.265  43.122  54.619  1.00  0.00    -0.140 N 
ATOM      6  H7  UNL     1     -10.346  42.168  54.268  1.00  0.00     0.189 HD
HETATM    7  C13 UNL     1     -11.377  43.793  55.011  1.00  0.00     0.359 A 
HETATM    8  O1  UNL     1     -12.464  43.145  54.894  1.00  0.00    -0.245 OA
HETATM    9  N8  UNL     1     -11.322  45.052  55.482  1.00  0.00    -0.105 N 
ENDROOT
BRANCH   1  10
HETATM   10  N3  UNL     1     -10.079  46.838  55.986  1.00  0.00    -0.225 N 
ATOM     11  H3  UNL     1     -10.984  47.309  56.020  1.00  0.00     0.177 HD
BRANCH  10  12
HETATM   12  C6  UNL     1      -8.949  47.608  56.435  1.00  0.00     0.138 C 
BRANCH  12  13
HETATM   13  C5  UNL     1      -8.908  48.849  55.587  1.00  0.00     0.027 C 
BRANCH  13  14
HETATM   14  C4  UNL     1      -7.550  49.327  55.222  1.00  0.00     0.077 C 
BRANCH  14  15
HETATM   15  C3  UNL     1      -7.560  50.729  54.781  1.00  0.00     0.070 C 
HETATM   16  N2  UNL     1      -7.722  50.957  53.492  1.00  0.00    -0.389 N 
ATOM     17  H22 UNL     1      -7.729  51.930  53.186  1.00  0.00     0.157 HD
ATOM     18  H21 UNL     1      -7.830  50.146  52.884  1.00  0.00     0.157 HD
BRANCH  15  19
HETATM   19  N1  UNL     1      -7.409  51.858  55.626  1.00  0.00    -0.380 N 
ATOM     20  H1  UNL     1      -8.095  52.610  55.571  1.00  0.00     0.160 HD
BRANCH  19  21
HETATM   21  C2  UNL     1      -6.323  51.976  56.554  1.00  0.00     0.116 C 
HETATM   22  C1  UNL     1      -5.072  52.457  55.892  1.00  0.00     0.026 C 
ENDBRANCH  19  21
ENDBRANCH  15  19
ENDBRANCH  14  15
ENDBRANCH  13  14
ENDBRANCH  12  13
ENDBRANCH  10  12
ENDBRANCH   1  10
BRANCH   9  23
HETATM   23  C14 UNL     1     -12.536  45.741  55.875  1.00  0.00     0.131 C 
BRANCH  23  24
HETATM   24  C15 UNL     1     -13.152  45.347  57.122  1.00  0.00    -0.019 A 
HETATM   25  C16 UNL     1     -12.420  45.283  58.296  1.00  0.00     0.013 A 
HETATM   26  C17 UNL     1     -12.992  44.896  59.516  1.00  0.00     0.001 A 
HETATM   27  C18 UNL     1     -14.311  44.571  59.567  1.00  0.00     0.000 A 
HETATM   28  C19 UNL     1     -15.045  44.631  58.417  1.00  0.00     0.001 A 
HETATM   29  C20 UNL     1     -14.476  45.014  57.213  1.00  0.00     0.013 A 
ENDBRANCH  23  24
ENDBRANCH   9  23
BRANCH   4  30
HETATM   30  N5  UNL     1      -7.991  43.120  54.343  1.00  0.00    -0.225 N 
ATOM     31  H5  UNL     1      -7.843  42.987  53.342  1.00  0.00     0.177 HD
BRANCH  30  32
HETATM   32  C9  UNL     1      -6.948  42.621  55.236  1.00  0.00     0.138 C 
BRANCH  32  33
HETATM   33  C10 UNL     1      -5.979  43.663  55.616  1.00  0.00     0.022 C 
BRANCH  33  34
HETATM   34  C11 UNL     1      -5.514  44.513  54.493  1.00  0.00     0.029 C 
BRANCH  34  35
HETATM   35  C12 UNL     1      -4.091  44.388  54.065  1.00  0.00     0.229 C 
BRANCH  35  36
HETATM   36  N6  UNL     1      -3.672  43.078  53.693  1.00  0.00    -0.079 N 
ATOM     37  H63 UNL     1      -2.889  42.783  54.276  1.00  0.00     0.274 HD
ATOM     38  H62 UNL     1      -4.375  42.394  53.974  1.00  0.00     0.274 HD
ATOM     39  H61 UNL     1      -3.439  42.952  52.708  1.00  0.00     0.274 HD
ENDBRANCH  35  36
ENDBRANCH  34  35
ENDBRANCH  33  34
ENDBRANCH  32  33
ENDBRANCH  30  32
ENDBRANCH   4  30
TORSDOF 15
ENDMDL
MODEL 2
REMARK VINA RESULT: -7.180807091      2.221      6.862
REMARK  15 active torsions:
REMARK  status: ('A' for Active; 'I' for Inactive)
REMARK    1  A    between atoms: C2_2  and  N1_3 
REMARK    2  A    between atoms: N1_3  and  C3_5 
REMARK    3  A    between atoms: C3_5  and  C4_9 
REMARK    4  A    between atoms: C4_9  and  C5_10 
REMARK    5  A    between atoms: C5_10  and  C6_11 
REMARK    6  A    between atoms: C6_11  and  N3_12 
REMARK    7  A    between atoms: N3_12  and  C7_14 
REMARK    8  A    between atoms: C8_17  and  N5_18 
REMARK    9  A    between atoms: N5_18  and  C9_20 
REMARK   10  A    between atoms: C9_20  and  C10_21 
REMARK   11  A    between atoms: C10_21  and  C11_22 
REMARK   12  A    between atoms: C11_22  and  C12_23 
REMARK   13  A    between atoms: C12_23  and  N6_24 
REMARK   14  A    between atoms: N8_32  and  C14_33 
REMARK   15  A    between atoms: C14_33  and  C15_34 
ROOT
HETATM    1  C7  UNL     1      -7.413  47.188  56.171  1.00  0.00     0.703 A 
HETATM    2  N4  UNL     1      -6.907  48.205  55.486  1.00  0.00    -0.022 N 
ATOM      3  H4  UNL     1      -6.030  48.076  54.981  1.00  0.00     0.203 HD
HETATM    4  C8  UNL     1      -7.526  49.418  55.440  1.00  0.00     0.696 A 
HETATM    5  N7  UNL     1      -8.673  49.561  56.110  1.00  0.00    -0.140 N 
ATOM      6  H7  UNL     1      -9.160  50.457  56.095  1.00  0.00     0.189 HD
HETATM    7  C13 UNL     1      -9.192  48.522  56.810  1.00  0.00     0.359 A 
HETATM    8  O1  UNL     1     -10.283  48.773  57.413  1.00  0.00    -0.245 OA
HETATM    9  N8  UNL     1      -8.588  47.321  56.860  1.00  0.00    -0.105 N 
ENDROOT
BRANCH   1  10
HETATM   10  N3  UNL     1      -6.862  46.038  56.258  1.00  0.00    -0.225 N 
ATOM     11  H3  UNL     1      -6.996  45.542  57.139  1.00  0.00     0.177 HD
BRANCH  10  12
HETATM   12  C6  UNL     1      -6.076  45.358  55.263  1.00  0.00     0.138 C 
BRANCH  12  13
HETATM   13  C5  UNL     1      -6.975  44.335  54.626  1.00  0.00     0.027 C 
BRANCH  13  14
HETATM   14  C4  UNL     1      -7.185  43.093  55.413  1.00  0.00     0.077 C 
BRANCH  14  15
HETATM   15  C3  UNL     1      -7.962  42.093  54.666  1.00  0.00     0.070 C 
HETATM   16  N2  UNL     1      -7.483  40.865  54.621  1.00  0.00    -0.389 N 
ATOM     17  H22 UNL     1      -8.022  40.171  54.103  1.00  0.00     0.157 HD
ATOM     18  H21 UNL     1      -6.604  40.689  55.107  1.00  0.00     0.157 HD
BRANCH  15  19
HETATM   19  N1  UNL     1      -9.184  42.338  53.991  1.00  0.00    -0.380 N 
ATOM     20  H1  UNL     1      -9.341  43.255  53.571  1.00  0.00     0.160 HD
BRANCH  19  21
HETATM   21  C2  UNL     1     -10.206  41.340  53.878  1.00  0.00     0.116 C 
HETATM   22  C1  UNL     1     -10.963  41.168  55.156  1.00  0.00     0.026 C 
ENDBRANCH  19  21
ENDBRANCH  15  19
ENDBRANCH  14  15
ENDBRANCH  13  14
ENDBRANCH  12  13
ENDBRANCH  10  12
ENDBRANCH   1  10
BRANCH   9  23
HETATM   23  C14 UNL     1      -9.167  46.241  57.635  1.00  0.00     0.131 C 
BRANCH  23  24
HETATM   24  C15 UNL     1     -10.399  45.658  57.149  1.00  0.00    -0.019 A 
HETATM   25  C16 UNL     1     -10.507  45.188  55.851  1.00  0.00     0.013 A 
HETATM   26  C17 UNL     1     -11.692  44.626  55.354  1.00  0.00     0.001 A 
HETATM   27  C18 UNL     1     -12.782  44.532  56.160  1.00  0.00     0.000 A 
HETATM   28  C19 UNL     1     -12.689  44.992  57.444  1.00  0.00     0.001 A 
HETATM   29  C20 UNL     1     -11.515  45.546  57.931  1.00  0.00     0.013 A 
ENDBRANCH  23  24
ENDBRANCH   9  23
BRANCH   4  30
HETATM   30  N5  UNL     1      -6.998  50.355  54.765  1.00  0.00    -0.225 N 
ATOM     31  H5  UNL     1      -6.642  50.112  53.839  1.00  0.00     0.177 HD
BRANCH  30  32
HETATM   32  C9  UNL     1      -6.851  51.747  55.184  1.00  0.00     0.138 C 
BRANCH  32  33
HETATM   33  C10 UNL     1      -5.938  51.901  56.331  1.00  0.00     0.022 C 
BRANCH  33  34
HETATM   34  C11 UNL     1      -6.613  52.057  57.641  1.00  0.00     0.029 C 
BRANCH  34  35
HETATM   35  C12 UNL     1      -6.065  51.300  58.804  1.00  0.00     0.229 C 
BRANCH  35  36
HETATM   36  N6  UNL     1      -6.379  49.911  58.838  1.00  0.00    -0.079 N 
ATOM     37  H63 UNL     1      -6.463  49.549  57.888  1.00  0.00     0.274 HD
ATOM     38  H62 UNL     1      -5.572  49.379  59.164  1.00  0.00     0.274 HD
ATOM     39  H61 UNL     1      -7.204  49.658  59.381  1.00  0.00     0.274 HD
ENDBRANCH  35  36
ENDBRANCH  34  35
ENDBRANCH  33  34
ENDBRANCH  32  33
ENDBRANCH  30  32
ENDBRANCH   4  30
TORSDOF 15
ENDMDL
MODEL 3
REMARK VINA RESULT: -7.087540614      2.880      7.722
REMARK  15 active torsions:
REMARK  status: ('A' for Active; 'I' for Inactive)
REMARK    1  A    between atoms: C2_2  and  N1_3 
REMARK    2  A    between atoms: N1_3  and  C3_5 
REMARK    3  A    between atoms: C3_5  and  C4_9 
REMARK    4  A    between atoms: C4_9  and  C5_10 
REMARK    5  A    between atoms: C5_10  and  C6_11 
REMARK    6  A    between atoms: C6_11  and  N3_12 
REMARK    7  A    between atoms: N3_12  and  C7_14 
REMARK    8  A    between atoms: C8_17  and  N5_18 
REMARK    9  A    between atoms: N5_18  and  C9_20 
REMARK   10  A    between atoms: C9_20  and  C10_21 
REMARK   11  A    between atoms: C10_21  and  C11_22 
REMARK   12  A    between atoms: C11_22  and  C12_23 
REMARK   13  A    between atoms: C12_23  and  N6_24 
REMARK   14  A    between atoms: N8_32  and  C14_33 
REMARK   15  A    between atoms: C14_33  and  C15_34 
ROOT
HETATM    1  C7  UNL     1     -11.701  44.505  55.861  1.00  0.00     0.703 A 
HETATM    2  N4  UNL     1     -13.026  44.535  55.822  1.00  0.00    -0.022 N 
ATOM      3  H4  UNL     1     -13.507  44.177  54.997  1.00  0.00     0.203 HD
HETATM    4  C8  UNL     1     -13.763  45.032  56.855  1.00  0.00     0.696 A 
HETATM    5  N7  UNL     1     -13.110  45.495  57.924  1.00  0.00    -0.140 N 
ATOM      6  H7  UNL     1     -13.633  45.873  58.714  1.00  0.00     0.189 HD
HETATM    7  C13 UNL     1     -11.755  45.465  57.966  1.00  0.00     0.359 A 
HETATM    8  O1  UNL     1     -11.240  45.935  59.029  1.00  0.00    -0.245 OA
HETATM    9  N8  UNL     1     -11.020  44.975  56.951  1.00  0.00    -0.105 N 
ENDROOT
BRANCH   1  10
HETATM   10  N3  UNL     1     -10.966  44.064  54.912  1.00  0.00    -0.225 N 
ATOM     11  H3  UNL     1     -10.260  44.709  54.555  1.00  0.00     0.177 HD
BRANCH  10  12
HETATM   12  C6  UNL     1     -11.013  42.770  54.287  1.00  0.00     0.138 C 
BRANCH  12  13
HETATM   13  C5  UNL     1      -9.687  42.113  54.551  1.00  0.00     0.027 C 
BRANCH  13  14
HETATM   14  C4  UNL     1      -8.493  42.956  54.283  1.00  0.00     0.077 C 
BRANCH  14  15
HETATM   15  C3  UNL     1      -7.261  42.349  54.806  1.00  0.00     0.070 C 
HETATM   16  N2  UNL     1      -7.306  41.070  55.126  1.00  0.00    -0.389 N 
ATOM     17  H22 UNL     1      -6.451  40.648  55.489  1.00  0.00     0.157 HD
ATOM     18  H21 UNL     1      -8.193  40.585  54.989  1.00  0.00     0.157 HD
BRANCH  15  19
HETATM   19  N1  UNL     1      -6.029  43.023  54.996  1.00  0.00    -0.380 N 
ATOM     20  H1  UNL     1      -5.410  42.717  55.747  1.00  0.00     0.160 HD
BRANCH  19  21
HETATM   21  C2  UNL     1      -5.624  44.120  54.167  1.00  0.00     0.116 C 
HETATM   22  C1  UNL     1      -4.139  44.179  54.003  1.00  0.00     0.026 C 
ENDBRANCH  19  21
ENDBRANCH  15  19
ENDBRANCH  14  15
ENDBRANCH  13  14
ENDBRANCH  12  13
ENDBRANCH  10  12
ENDBRANCH   1  10
BRANCH   9  23
HETATM   23  C14 UNL     1      -9.571  44.976  57.028  1.00  0.00     0.131 C 
BRANCH  23  24
HETATM   24  C15 UNL     1      -8.878  46.140  56.522  1.00  0.00    -0.019 A 
HETATM   25  C16 UNL     1      -9.559  47.312  56.233  1.00  0.00     0.013 A 
HETATM   26  C17 UNL     1      -8.911  48.451  55.735  1.00  0.00     0.001 A 
HETATM   27  C18 UNL     1      -7.569  48.423  55.522  1.00  0.00     0.000 A 
HETATM   28  C19 UNL     1      -6.885  47.274  55.803  1.00  0.00     0.001 A 
HETATM   29  C20 UNL     1      -7.529  46.150  56.296  1.00  0.00     0.013 A 
ENDBRANCH  23  24
ENDBRANCH   9  23
BRANCH   4  30
HETATM   30  N5  UNL     1     -15.030  45.031  56.765  1.00  0.00    -0.225 N 
ATOM     31  H5  UNL     1     -15.426  45.035  55.824  1.00  0.00     0.177 HD
BRANCH  30  32
HETATM   32  C9  UNL     1     -15.977  45.027  57.878  1.00  0.00     0.138 C 
BRANCH  32  33
HETATM   33  C10 UNL     1     -16.408  43.668  58.251  1.00  0.00     0.022 C 
BRANCH  33  34
HETATM   34  C11 UNL     1     -17.661  43.216  57.600  1.00  0.00     0.029 C 
BRANCH  34  35
HETATM   35  C12 UNL     1     -17.568  42.127  56.585  1.00  0.00     0.229 C 
BRANCH  35  36
HETATM   36  N6  UNL     1     -16.673  42.368  55.503  1.00  0.00    -0.079 N 
ATOM     37  H63 UNL     1     -17.180  42.343  54.618  1.00  0.00     0.274 HD
ATOM     38  H62 UNL     1     -16.370  43.342  55.510  1.00  0.00     0.274 HD
ATOM     39  H61 UNL     1     -15.862  41.752  55.456  1.00  0.00     0.274 HD
ENDBRANCH  35  36
ENDBRANCH  34  35
ENDBRANCH  33  34
ENDBRANCH  32  33
ENDBRANCH  30  32
ENDBRANCH   4  30
TORSDOF 15
ENDMDL
MODEL 4
REMARK VINA RESULT: -7.036577914      1.122      1.804
REMARK  15 active torsions:
REMARK  status: ('A' for Active; 'I' for Inactive)
REMARK    1  A    between atoms: C2_2  and  N1_3 
REMARK    2  A    between atoms: N1_3  and  C3_5 
REMARK    3  A    between atoms: C3_5  and  C4_9 
REMARK    4  A    between atoms: C4_9  and  C5_10 
REMARK    5  A    between atoms: C5_10  and  C6_11 
REMARK    6  A    between atoms: C6_11  and  N3_12 
REMARK    7  A    between atoms: N3_12  and  C7_14 
REMARK    8  A    between atoms: C8_17  and  N5_18 
REMARK    9  A    between atoms: N5_18  and  C9_20 
REMARK   10  A    between atoms: C9_20  and  C10_21 
REMARK   11  A    between atoms: C10_21  and  C11_22 
REMARK   12  A    between atoms: C11_22  and  C12_23 
REMARK   13  A    between atoms: C12_23  and  N6_24 
REMARK   14  A    between atoms: N8_32  and  C14_33 
REMARK   15  A    between atoms: C14_33  and  C15_34 
ROOT
HETATM    1  C7  UNL     1     -10.167  45.542  55.572  1.00  0.00     0.703 A 
HETATM    2  N4  UNL     1      -9.090  44.873  55.183  1.00  0.00    -0.022 N 
ATOM      3  H4  UNL     1      -8.175  45.316  55.261  1.00  0.00     0.203 HD
HETATM    4  C8  UNL     1      -9.174  43.608  54.683  1.00  0.00     0.696 A 
HETATM    5  N7  UNL     1     -10.384  43.050  54.591  1.00  0.00    -0.140 N 
ATOM      6  H7  UNL     1     -10.479  42.105  54.220  1.00  0.00     0.189 HD
HETATM    7  C13 UNL     1     -11.486  43.733  54.988  1.00  0.00     0.359 A 
HETATM    8  O1  UNL     1     -12.584  43.107  54.852  1.00  0.00    -0.245 OA
HETATM    9  N8  UNL     1     -11.412  44.981  55.485  1.00  0.00    -0.105 N 
ENDROOT
BRANCH   1  10
HETATM   10  N3  UNL     1     -10.142  46.735  56.033  1.00  0.00    -0.225 N 
ATOM     11  H3  UNL     1     -10.979  47.043  56.527  1.00  0.00     0.177 HD
BRANCH  10  12
HETATM   12  C6  UNL     1      -9.075  47.695  55.938  1.00  0.00     0.138 C 
BRANCH  12  13
HETATM   13  C5  UNL     1      -8.225  47.520  57.165  1.00  0.00     0.027 C 
BRANCH  13  14
HETATM   14  C4  UNL     1      -8.464  48.502  58.253  1.00  0.00     0.077 C 
BRANCH  14  15
HETATM   15  C3  UNL     1      -7.582  49.673  58.142  1.00  0.00     0.070 C 
HETATM   16  N2  UNL     1      -6.456  49.648  58.830  1.00  0.00    -0.389 N 
ATOM     17  H22 UNL     1      -5.844  50.461  58.753  1.00  0.00     0.157 HD
ATOM     18  H21 UNL     1      -6.271  48.820  59.394  1.00  0.00     0.157 HD
BRANCH  15  19
HETATM   19  N1  UNL     1      -7.840  50.825  57.359  1.00  0.00    -0.380 N 
ATOM     20  H1  UNL     1      -8.739  51.296  57.454  1.00  0.00     0.160 HD
BRANCH  19  21
HETATM   21  C2  UNL     1      -6.877  51.350  56.437  1.00  0.00     0.116 C 
HETATM   22  C1  UNL     1      -6.801  50.539  55.183  1.00  0.00     0.026 C 
ENDBRANCH  19  21
ENDBRANCH  15  19
ENDBRANCH  14  15
ENDBRANCH  13  14
ENDBRANCH  12  13
ENDBRANCH  10  12
ENDBRANCH   1  10
BRANCH   9  23
HETATM   23  C14 UNL     1     -12.616  45.684  55.883  1.00  0.00     0.131 C 
BRANCH  23  24
HETATM   24  C15 UNL     1     -13.232  45.297  57.134  1.00  0.00    -0.019 A 
HETATM   25  C16 UNL     1     -14.574  44.959  57.198  1.00  0.00     0.013 A 
HETATM   26  C17 UNL     1     -15.195  44.588  58.400  1.00  0.00     0.001 A 
HETATM   27  C18 UNL     1     -14.471  44.552  59.549  1.00  0.00     0.000 A 
HETATM   28  C19 UNL     1     -13.146  44.883  59.499  1.00  0.00     0.001 A 
HETATM   29  C20 UNL     1     -12.535  45.249  58.310  1.00  0.00     0.013 A 
ENDBRANCH  23  24
ENDBRANCH   9  23
BRANCH   4  30
HETATM   30  N5  UNL     1      -8.108  43.013  54.330  1.00  0.00    -0.225 N 
ATOM     31  H5  UNL     1      -7.976  42.858  53.330  1.00  0.00     0.177 HD
BRANCH  30  32
HETATM   32  C9  UNL     1      -7.053  42.528  55.218  1.00  0.00     0.138 C 
BRANCH  32  33
HETATM   33  C10 UNL     1      -6.066  43.571  55.548  1.00  0.00     0.022 C 
BRANCH  33  34
HETATM   34  C11 UNL     1      -5.596  44.367  54.389  1.00  0.00     0.029 C 
BRANCH  34  35
HETATM   35  C12 UNL     1      -4.141  44.335  54.063  1.00  0.00     0.229 C 
BRANCH  35  36
HETATM   36  N6  UNL     1      -3.615  43.058  53.716  1.00  0.00    -0.079 N 
ATOM     37  H63 UNL     1      -2.595  43.090  53.714  1.00  0.00     0.274 HD
ATOM     38  H62 UNL     1      -3.774  42.397  54.477  1.00  0.00     0.274 HD
ATOM     39  H61 UNL     1      -3.953  42.665  52.838  1.00  0.00     0.274 HD
ENDBRANCH  35  36
ENDBRANCH  34  35
ENDBRANCH  33  34
ENDBRANCH  32  33
ENDBRANCH  30  32
ENDBRANCH   4  30
TORSDOF 15
ENDMDL
MODEL 5
REMARK VINA RESULT: -7.032319042      2.151      6.752
REMARK  15 active torsions:
REMARK  status: ('A' for Active; 'I' for Inactive)
REMARK    1  A    between atoms: C2_2  and  N1_3 
REMARK    2  A    between atoms: N1_3  and  C3_5 
REMARK    3  A    between atoms: C3_5  and  C4_9 
REMARK    4  A    between atoms: C4_9  and  C5_10 
REMARK    5  A    between atoms: C5_10  and  C6_11 
REMARK    6  A    between atoms: C6_11  and  N3_12 
REMARK    7  A    between atoms: N3_12  and  C7_14 
REMARK    8  A    between atoms: C8_17  and  N5_18 
REMARK    9  A    between atoms: N5_18  and  C9_20 
REMARK   10  A    between atoms: C9_20  and  C10_21 
REMARK   11  A    between atoms: C10_21  and  C11_22 
REMARK   12  A    between atoms: C11_22  and  C12_23 
REMARK   13  A    between atoms: C12_23  and  N6_24 
REMARK   14  A    between atoms: N8_32  and  C14_33 
REMARK   15  A    between atoms: C14_33  and  C15_34 
ROOT
HETATM    1  C7  UNL     1      -8.104  47.349  55.858  1.00  0.00     0.703 A 
HETATM    2  N4  UNL     1      -7.703  48.535  55.420  1.00  0.00    -0.022 N 
ATOM      3  H4  UNL     1      -7.086  48.582  54.609  1.00  0.00     0.203 HD
HETATM    4  C8  UNL     1      -8.093  49.692  56.025  1.00  0.00     0.696 A 
HETATM    5  N7  UNL     1      -8.901  49.603  57.085  1.00  0.00    -0.140 N 
ATOM      6  H7  UNL     1      -9.210  50.451  57.560  1.00  0.00     0.189 HD
HETATM    7  C13 UNL     1      -9.312  48.391  57.534  1.00  0.00     0.359 A 
HETATM    8  O1  UNL     1     -10.074  48.426  58.551  1.00  0.00    -0.245 OA
HETATM    9  N8  UNL     1      -8.933  47.244  56.942  1.00  0.00    -0.105 N 
ENDROOT
BRANCH   1  10
HETATM   10  N3  UNL     1      -7.753  46.236  55.335  1.00  0.00    -0.225 N 
ATOM     11  H3  UNL     1      -8.500  45.682  54.917  1.00  0.00     0.177 HD
BRANCH  10  12
HETATM   12  C6  UNL     1      -6.432  45.671  55.266  1.00  0.00     0.138 C 
BRANCH  12  13
HETATM   13  C5  UNL     1      -6.529  44.277  55.821  1.00  0.00     0.027 C 
BRANCH  13  14
HETATM   14  C4  UNL     1      -6.343  43.183  54.832  1.00  0.00     0.077 C 
BRANCH  14  15
HETATM   15  C3  UNL     1      -7.512  42.295  54.768  1.00  0.00     0.070 C 
HETATM   16  N2  UNL     1      -7.299  41.002  54.920  1.00  0.00    -0.389 N 
ATOM     17  H22 UNL     1      -8.110  40.385  54.875  1.00  0.00     0.157 HD
ATOM     18  H21 UNL     1      -6.336  40.703  55.073  1.00  0.00     0.157 HD
BRANCH  15  19
HETATM   19  N1  UNL     1      -8.851  42.711  54.555  1.00  0.00    -0.380 N 
ATOM     20  H1  UNL     1      -9.118  43.662  54.809  1.00  0.00     0.160 HD
BRANCH  19  21
HETATM   21  C2  UNL     1      -9.840  41.839  53.995  1.00  0.00     0.116 C 
HETATM   22  C1  UNL     1     -10.908  41.495  54.983  1.00  0.00     0.026 C 
ENDBRANCH  19  21
ENDBRANCH  15  19
ENDBRANCH  14  15
ENDBRANCH  13  14
ENDBRANCH  12  13
ENDBRANCH  10  12
ENDBRANCH   1  10
BRANCH   9  23
HETATM   23  C14 UNL     1      -9.381  45.967  57.464  1.00  0.00     0.131 C 
BRANCH  23  24
HETATM   24  C15 UNL     1     -10.737  45.563  57.163  1.00  0.00    -0.019 A 
HETATM   25  C16 UNL     1     -11.698  45.482  58.157  1.00  0.00     0.013 A 
HETATM   26  C17 UNL     1     -13.017  45.086  57.893  1.00  0.00     0.001 A 
HETATM   27  C18 UNL     1     -13.383  44.768  56.624  1.00  0.00     0.000 A 
HETATM   28  C19 UNL     1     -12.445  44.844  55.633  1.00  0.00     0.001 A 
HETATM   29  C20 UNL     1     -11.142  45.237  55.898  1.00  0.00     0.013 A 
ENDBRANCH  23  24
ENDBRANCH   9  23
BRANCH   4  30
HETATM   30  N5  UNL     1      -7.682  50.800  55.559  1.00  0.00    -0.225 N 
ATOM     31  H5  UNL     1      -8.339  51.581  55.578  1.00  0.00     0.177 HD
BRANCH  30  32
HETATM   32  C9  UNL     1      -6.358  51.066  55.000  1.00  0.00     0.138 C 
BRANCH  32  33
HETATM   33  C10 UNL     1      -5.692  52.214  55.639  1.00  0.00     0.022 C 
BRANCH  33  34
HETATM   34  C11 UNL     1      -6.151  52.506  57.018  1.00  0.00     0.029 C 
BRANCH  34  35
HETATM   35  C12 UNL     1      -5.368  51.934  58.151  1.00  0.00     0.229 C 
BRANCH  35  36
HETATM   36  N6  UNL     1      -5.955  50.810  58.801  1.00  0.00    -0.079 N 
ATOM     37  H63 UNL     1      -5.331  50.464  59.530  1.00  0.00     0.274 HD
ATOM     38  H62 UNL     1      -6.748  51.111  59.368  1.00  0.00     0.274 HD
ATOM     39  H61 UNL     1      -6.236  50.044  58.190  1.00  0.00     0.274 HD
ENDBRANCH  35  36
ENDBRANCH  34  35
ENDBRANCH  33  34
ENDBRANCH  32  33
ENDBRANCH  30  32
ENDBRANCH   4  30
TORSDOF 15
ENDMDL
