MODEL 1
REMARK VINA RESULT: -4.254676639      0.000      0.000
REMARK  3 active torsions:
REMARK  status: ('A' for Active; 'I' for Inactive)
REMARK    1  A    between atoms: N1_1  and  S1_4 
REMARK    2  A    between atoms: S1_4  and  N2_6 
REMARK    3  A    between atoms: S1_4  and  C2_11 
REMARK       I    between atoms: N2_6  and  C1_8 
ROOT
HETATM    1  S1  UNL     1      51.843  56.565  66.560  1.00  0.00     0.175 S 
HETATM    2  O1  UNL     1      51.949  57.949  67.180  1.00  0.00    -0.220 OA
ENDROOT
BRANCH   1   3
HETATM    3  N1  UNL     1      51.908  56.679  65.022  1.00  0.00    -0.338 N 
ATOM      4  H12 UNL     1      51.149  57.030  64.438  1.00  0.00     0.167 HD
ATOM      5  H11 UNL     1      52.816  56.351  64.693  1.00  0.00     0.167 HD
ENDBRANCH   1   3
BRANCH   1   6
HETATM    6  N2  UNL     1      53.177  55.661  67.181  1.00  0.00    -0.249 N 
HETATM    7  C1  UNL     1      53.471  54.391  66.639  1.00  0.00     0.341 C 
HETATM    8  N3  UNL     1      54.556  53.597  67.106  1.00  0.00    -0.039 NA
HETATM    9  O2  UNL     1      52.772  53.912  65.710  1.00  0.00    -0.250 OA
ATOM     10  H2  UNL     1      53.750  56.042  67.935  1.00  0.00     0.181 HD
ENDBRANCH   1   6
BRANCH   1  11
HETATM   11  C2  UNL     1      50.345  55.846  67.079  1.00  0.00     0.228 A 
HETATM   12  N4  UNL     1      50.177  54.605  67.604  1.00  0.00    -0.261 N 
HETATM   13  N5  UNL     1      48.879  54.432  67.872  1.00  0.00    -0.007 NA
ATOM     14  H4  UNL     1      50.916  53.921  67.766  1.00  0.00     0.186 HD
HETATM   15  N6  UNL     1      48.219  55.527  67.533  1.00  0.00    -0.007 NA
HETATM   16  N7  UNL     1      49.097  56.391  67.052  1.00  0.00    -0.261 N 
ATOM     17  H7  UNL     1      48.873  57.326  66.710  1.00  0.00     0.186 HD
ENDBRANCH   1  11
TORSDOF 3
ENDMDL
MODEL 2
REMARK VINA RESULT: -4.163041448      2.144      3.176
REMARK  3 active torsions:
REMARK  status: ('A' for Active; 'I' for Inactive)
REMARK    1  A    between atoms: N1_1  and  S1_4 
REMARK    2  A    between atoms: S1_4  and  N2_6 
REMARK    3  A    between atoms: S1_4  and  C2_11 
REMARK       I    between atoms: N2_6  and  C1_8 
ROOT
HETATM    1  S1  UNL     1      51.003  54.881  67.107  1.00  0.00     0.175 S 
HETATM    2  O1  UNL     1      50.560  54.727  65.661  1.00  0.00    -0.220 OA
ENDROOT
BRANCH   1   3
HETATM    3  N1  UNL     1      49.964  54.222  68.039  1.00  0.00    -0.338 N 
ATOM      4  H12 UNL     1      49.360  53.445  67.771  1.00  0.00     0.167 HD
ATOM      5  H11 UNL     1      49.980  54.682  68.950  1.00  0.00     0.167 HD
ENDBRANCH   1   3
BRANCH   1   6
HETATM    6  N2  UNL     1      52.538  54.096  67.221  1.00  0.00    -0.249 N 
HETATM    7  C1  UNL     1      52.593  52.691  67.346  1.00  0.00     0.341 C 
HETATM    8  N3  UNL     1      53.825  51.984  67.444  1.00  0.00    -0.039 NA
HETATM    9  O2  UNL     1      51.539  52.006  67.376  1.00  0.00    -0.250 OA
ATOM     10  H2  UNL     1      53.398  54.644  67.197  1.00  0.00     0.181 HD
ENDBRANCH   1   6
BRANCH   1  11
HETATM   11  C2  UNL     1      51.176  56.578  67.450  1.00  0.00     0.228 A 
HETATM   12  N4  UNL     1      50.224  57.410  67.943  1.00  0.00    -0.261 N 
HETATM   13  N5  UNL     1      50.751  58.632  68.064  1.00  0.00    -0.007 NA
ATOM     14  H4  UNL     1      49.267  57.147  68.180  1.00  0.00     0.186 HD
HETATM   15  N6  UNL     1      52.011  58.599  67.663  1.00  0.00    -0.007 NA
HETATM   16  N7  UNL     1      52.281  57.360  67.289  1.00  0.00    -0.261 N 
ATOM     17  H7  UNL     1      53.181  57.037  66.933  1.00  0.00     0.186 HD
ENDBRANCH   1  11
TORSDOF 3
ENDMDL
MODEL 3
REMARK VINA RESULT: -4.010029324      1.278      1.278
REMARK  3 active torsions:
REMARK  status: ('A' for Active; 'I' for Inactive)
REMARK    1  A    between atoms: N1_1  and  S1_4 
REMARK    2  A    between atoms: S1_4  and  N2_6 
REMARK    3  A    between atoms: S1_4  and  C2_11 
REMARK       I    between atoms: N2_6  and  C1_8 
ROOT
HETATM    1  S1  UNL     1      51.842  56.592  66.583  1.00  0.00     0.175 S 
HETATM    2  O1  UNL     1      51.926  57.988  67.179  1.00  0.00    -0.220 OA
ENDROOT
BRANCH   1   3
HETATM    3  N1  UNL     1      51.926  56.680  65.044  1.00  0.00    -0.338 N 
ATOM      4  H12 UNL     1      52.775  56.903  64.524  1.00  0.00     0.167 HD
ATOM      5  H11 UNL     1      51.010  56.485  64.639  1.00  0.00     0.167 HD
ENDBRANCH   1   3
BRANCH   1   6
HETATM    6  N2  UNL     1      53.180  55.715  67.236  1.00  0.00    -0.249 N 
HETATM    7  C1  UNL     1      54.481  55.965  66.748  1.00  0.00     0.341 C 
HETATM    8  N3  UNL     1      55.624  55.277  67.243  1.00  0.00    -0.039 NA
HETATM    9  O2  UNL     1      54.676  56.818  65.845  1.00  0.00    -0.250 OA
ATOM     10  H2  UNL     1      53.031  55.022  67.969  1.00  0.00     0.181 HD
ENDBRANCH   1   6
BRANCH   1  11
HETATM   11  C2  UNL     1      50.347  55.865  67.096  1.00  0.00     0.228 A 
HETATM   12  N4  UNL     1      50.189  54.643  67.665  1.00  0.00    -0.261 N 
HETATM   13  N5  UNL     1      48.889  54.456  67.911  1.00  0.00    -0.007 NA
ATOM     14  H4  UNL     1      50.937  53.980  67.870  1.00  0.00     0.186 HD
HETATM   15  N6  UNL     1      48.217  55.524  67.515  1.00  0.00    -0.007 NA
HETATM   16  N7  UNL     1      49.090  56.386  67.020  1.00  0.00    -0.261 N 
ATOM     17  H7  UNL     1      48.857  57.302  66.638  1.00  0.00     0.186 HD
ENDBRANCH   1  11
TORSDOF 3
ENDMDL
MODEL 4
REMARK VINA RESULT: -4.002803122      1.690      4.169
REMARK  3 active torsions:
REMARK  status: ('A' for Active; 'I' for Inactive)
REMARK    1  A    between atoms: N1_1  and  S1_4 
REMARK    2  A    between atoms: S1_4  and  N2_6 
REMARK    3  A    between atoms: S1_4  and  C2_11 
REMARK       I    between atoms: N2_6  and  C1_8 
ROOT
HETATM    1  S1  UNL     1      51.689  56.577  66.546  1.00  0.00     0.175 S 
HETATM    2  O1  UNL     1      52.150  57.113  65.201  1.00  0.00    -0.220 OA
ENDROOT
BRANCH   1   3
HETATM    3  N1  UNL     1      51.915  57.648  67.635  1.00  0.00    -0.338 N 
ATOM      4  H12 UNL     1      52.830  57.998  67.918  1.00  0.00     0.167 HD
ATOM      5  H11 UNL     1      51.016  57.941  68.020  1.00  0.00     0.167 HD
ENDBRANCH   1   3
BRANCH   1   6
HETATM    6  N2  UNL     1      50.011  56.211  66.363  1.00  0.00    -0.249 N 
HETATM    7  C1  UNL     1      49.250  55.845  67.495  1.00  0.00     0.341 C 
HETATM    8  N3  UNL     1      47.865  55.531  67.411  1.00  0.00    -0.039 NA
HETATM    9  O2  UNL     1      49.780  55.783  68.633  1.00  0.00    -0.250 OA
ATOM     10  H2  UNL     1      49.572  56.259  65.443  1.00  0.00     0.181 HD
ENDBRANCH   1   6
BRANCH   1  11
HETATM   11  C2  UNL     1      52.580  55.123  66.892  1.00  0.00     0.228 A 
HETATM   12  N4  UNL     1      53.929  54.974  66.883  1.00  0.00    -0.261 N 
HETATM   13  N5  UNL     1      54.217  53.708  67.202  1.00  0.00    -0.007 NA
ATOM     14  H4  UNL     1      54.608  55.704  66.670  1.00  0.00     0.186 HD
HETATM   15  N6  UNL     1      53.089  53.050  67.413  1.00  0.00    -0.007 NA
HETATM   16  N7  UNL     1      52.090  53.897  67.229  1.00  0.00    -0.261 N 
ATOM     17  H7  UNL     1      51.101  53.667  67.324  1.00  0.00     0.186 HD
ENDBRANCH   1  11
TORSDOF 3
ENDMDL
MODEL 5
REMARK VINA RESULT: -3.970035790      1.899      4.460
REMARK  3 active torsions:
REMARK  status: ('A' for Active; 'I' for Inactive)
REMARK    1  A    between atoms: N1_1  and  S1_4 
REMARK    2  A    between atoms: S1_4  and  N2_6 
REMARK    3  A    between atoms: S1_4  and  C2_11 
REMARK       I    between atoms: N2_6  and  C1_8 
ROOT
HETATM    1  S1  UNL     1      51.216  54.483  66.896  1.00  0.00     0.175 S 
HETATM    2  O1  UNL     1      50.452  53.322  67.512  1.00  0.00    -0.220 OA
ENDROOT
BRANCH   1   3
HETATM    3  N1  UNL     1      50.815  54.638  65.414  1.00  0.00    -0.338 N 
ATOM      4  H12 UNL     1      49.855  54.742  65.084  1.00  0.00     0.167 HD
ATOM      5  H11 UNL     1      51.651  54.620  64.829  1.00  0.00     0.167 HD
ENDBRANCH   1   3
BRANCH   1   6
HETATM    6  N2  UNL     1      50.782  55.880  67.815  1.00  0.00    -0.249 N 
HETATM    7  C1  UNL     1      51.147  57.161  67.348  1.00  0.00     0.341 C 
HETATM    8  N3  UNL     1      50.821  58.351  68.057  1.00  0.00    -0.039 NA
HETATM    9  O2  UNL     1      51.784  57.296  66.272  1.00  0.00    -0.250 OA
ATOM     10  H2  UNL     1      50.265  55.780  68.688  1.00  0.00     0.181 HD
ENDBRANCH   1   6
BRANCH   1  11
HETATM   11  C2  UNL     1      52.920  54.168  67.062  1.00  0.00     0.228 A 
HETATM   12  N4  UNL     1      53.499  52.994  67.419  1.00  0.00    -0.261 N 
HETATM   13  N5  UNL     1      54.825  53.163  67.431  1.00  0.00    -0.007 NA
ATOM     14  H4  UNL     1      53.006  52.129  67.640  1.00  0.00     0.186 HD
HETATM   15  N6  UNL     1      55.103  54.411  67.093  1.00  0.00    -0.007 NA
HETATM   16  N7  UNL     1      53.957  55.030  66.866  1.00  0.00    -0.261 N 
ATOM     17  H7  UNL     1      53.863  56.007  66.586  1.00  0.00     0.186 HD
ENDBRANCH   1  11
TORSDOF 3
ENDMDL
