MODEL 1
REMARK VINA RESULT: -4.839689579      0.000      0.000
REMARK  4 active torsions:
REMARK  status: ('A' for Active; 'I' for Inactive)
REMARK    1  A    between atoms: C2_3  and  N2_4 
REMARK    2  A    between atoms: C2_3  and  C3_8 
REMARK    3  A    between atoms: C3_8  and  C4_10 
REMARK    4  A    between atoms: C6_19  and  N6_20 
ROOT
HETATM    1  N1  UNL     1      47.450  55.407  67.811  1.00  0.00    -0.195 NA
HETATM    2  C1  UNL     1      48.606  55.312  67.857  1.00  0.00     0.100 C 
HETATM    3  C2  UNL     1      50.078  55.191  67.942  1.00  0.00     0.364 C 
ENDROOT
BRANCH   3   4
HETATM    4  N2  UNL     1      50.642  56.485  67.738  1.00  0.00    -0.055 N 
ATOM      5  H23 UNL     1      50.941  56.926  68.608  1.00  0.00     0.276 HD
ATOM      6  H22 UNL     1      51.553  56.450  67.281  1.00  0.00     0.276 HD
ATOM      7  H21 UNL     1      49.966  57.050  67.223  1.00  0.00     0.276 HD
ENDBRANCH   3   4
BRANCH   3   8
HETATM    8  C3  UNL     1      50.581  54.140  67.042  1.00  0.00     0.225 C 
HETATM    9  O1  UNL     1      50.486  54.377  65.818  1.00  0.00    -0.287 OA
BRANCH   8  10
HETATM   10  C4  UNL     1      51.159  52.891  67.490  1.00  0.00     0.141 A 
HETATM   11  N3  UNL     1      50.486  52.257  68.502  1.00  0.00    -0.290 N 
HETATM   12  N4  UNL     1      50.901  51.123  68.999  1.00  0.00    -0.251 N 
ATOM     13  H3  UNL     1      49.639  52.684  68.877  1.00  0.00     0.187 HD
HETATM   14  C5  UNL     1      52.018  50.560  68.506  1.00  0.00     0.340 A 
ATOM     15  H4  UNL     1      50.383  50.669  69.751  1.00  0.00     0.191 HD
HETATM   16  O2  UNL     1      52.395  49.453  69.013  1.00  0.00    -0.245 OA
HETATM   17  N5  UNL     1      52.707  51.140  67.520  1.00  0.00    -0.292 N 
HETATM   18  C6  UNL     1      52.300  52.335  66.972  1.00  0.00     0.135 A 
ATOM     19  H5  UNL     1      53.550  50.689  67.166  1.00  0.00     0.172 HD
BRANCH  18  20
HETATM   20  N6  UNL     1      52.982  52.811  66.068  1.00  0.00    -0.383 N 
ATOM     21  H62 UNL     1      53.536  53.642  66.277  1.00  0.00     0.157 HD
ATOM     22  H61 UNL     1      53.047  52.448  65.118  1.00  0.00     0.157 HD
ENDBRANCH  18  20
ENDBRANCH   8  10
ENDBRANCH   3   8
TORSDOF 4
ENDMDL
MODEL 2
REMARK VINA RESULT: -4.675165611      1.177      1.189
REMARK  4 active torsions:
REMARK  status: ('A' for Active; 'I' for Inactive)
REMARK    1  A    between atoms: C2_3  and  N2_4 
REMARK    2  A    between atoms: C2_3  and  C3_8 
REMARK    3  A    between atoms: C3_8  and  C4_10 
REMARK    4  A    between atoms: C6_19  and  N6_20 
ROOT
HETATM    1  N1  UNL     1      47.364  55.385  67.789  1.00  0.00    -0.195 NA
HETATM    2  C1  UNL     1      48.519  55.490  67.843  1.00  0.00     0.100 C 
HETATM    3  C2  UNL     1      49.989  55.622  67.937  1.00  0.00     0.364 C 
ENDROOT
BRANCH   3   4
HETATM    4  N2  UNL     1      50.317  57.007  67.851  1.00  0.00    -0.055 N 
ATOM      5  H23 UNL     1      50.509  57.424  68.763  1.00  0.00     0.276 HD
ATOM      6  H22 UNL     1      51.233  57.170  67.431  1.00  0.00     0.276 HD
ATOM      7  H21 UNL     1      49.565  57.482  67.352  1.00  0.00     0.276 HD
ENDBRANCH   3   4
BRANCH   3   8
HETATM    8  C3  UNL     1      50.668  54.756  66.957  1.00  0.00     0.225 C 
HETATM    9  O1  UNL     1      50.423  54.995  65.755  1.00  0.00    -0.287 OA
BRANCH   8  10
HETATM   10  C4  UNL     1      51.572  53.681  67.308  1.00  0.00     0.141 A 
HETATM   11  N3  UNL     1      50.980  52.546  67.797  1.00  0.00    -0.290 N 
HETATM   12  N4  UNL     1      51.681  51.503  68.150  1.00  0.00    -0.251 N 
ATOM     13  H3  UNL     1      49.964  52.516  67.886  1.00  0.00     0.187 HD
HETATM   14  C5  UNL     1      53.020  51.541  68.034  1.00  0.00     0.340 A 
ATOM     15  H4  UNL     1      51.219  50.668  68.510  1.00  0.00     0.191 HD
HETATM   16  O2  UNL     1      53.675  50.506  68.388  1.00  0.00    -0.245 OA
HETATM   17  N5  UNL     1      53.641  52.625  67.563  1.00  0.00    -0.292 N 
HETATM   18  C6  UNL     1      52.936  53.744  67.180  1.00  0.00     0.135 A 
ATOM     19  H5  UNL     1      54.658  52.625  67.485  1.00  0.00     0.172 HD
BRANCH  18  20
HETATM   20  N6  UNL     1      53.572  54.704  66.756  1.00  0.00    -0.383 N 
ATOM     21  H62 UNL     1      54.117  55.247  67.427  1.00  0.00     0.157 HD
ATOM     22  H61 UNL     1      53.607  55.013  65.785  1.00  0.00     0.157 HD
ENDBRANCH  18  20
ENDBRANCH   8  10
ENDBRANCH   3   8
TORSDOF 4
ENDMDL
MODEL 3
REMARK VINA RESULT: -4.550872779      2.993      4.905
REMARK  4 active torsions:
REMARK  status: ('A' for Active; 'I' for Inactive)
REMARK    1  A    between atoms: C2_3  and  N2_4 
REMARK    2  A    between atoms: C2_3  and  C3_8 
REMARK    3  A    between atoms: C3_8  and  C4_10 
REMARK    4  A    between atoms: C6_19  and  N6_20 
ROOT
HETATM    1  N1  UNL     1      53.732  59.114  65.646  1.00  0.00    -0.195 NA
HETATM    2  C1  UNL     1      53.647  58.222  66.385  1.00  0.00     0.100 C 
HETATM    3  C2  UNL     1      53.532  57.103  67.345  1.00  0.00     0.364 C 
ENDROOT
BRANCH   3   4
HETATM    4  N2  UNL     1      54.841  56.782  67.812  1.00  0.00    -0.055 N 
ATOM      5  H23 UNL     1      55.257  57.532  68.364  1.00  0.00     0.276 HD
ATOM      6  H22 UNL     1      54.835  56.064  68.536  1.00  0.00     0.276 HD
ATOM      7  H21 UNL     1      55.412  56.524  67.006  1.00  0.00     0.276 HD
ENDBRANCH   3   4
BRANCH   3   8
HETATM    8  C3  UNL     1      52.780  55.976  66.766  1.00  0.00     0.225 C 
HETATM    9  O1  UNL     1      53.412  55.251  65.967  1.00  0.00    -0.287 OA
BRANCH   8  10
HETATM   10  C4  UNL     1      51.395  55.680  67.066  1.00  0.00     0.141 A 
HETATM   11  N3  UNL     1      50.533  56.742  66.986  1.00  0.00    -0.290 N 
HETATM   12  N4  UNL     1      49.257  56.611  67.232  1.00  0.00    -0.251 N 
ATOM     13  H3  UNL     1      50.897  57.659  66.726  1.00  0.00     0.187 HD
HETATM   14  C5  UNL     1      48.775  55.404  67.575  1.00  0.00     0.340 A 
ATOM     15  H4  UNL     1      48.633  57.415  67.165  1.00  0.00     0.191 HD
HETATM   16  O2  UNL     1      47.525  55.311  67.808  1.00  0.00    -0.245 OA
HETATM   17  N5  UNL     1      49.577  54.340  67.666  1.00  0.00    -0.292 N 
HETATM   18  C6  UNL     1      50.926  54.440  67.414  1.00  0.00     0.135 A 
ATOM     19  H5  UNL     1      49.182  53.437  67.927  1.00  0.00     0.172 HD
BRANCH  18  20
HETATM   20  N6  UNL     1      51.604  53.421  67.517  1.00  0.00    -0.383 N 
ATOM     21  H62 UNL     1      52.593  53.528  67.743  1.00  0.00     0.157 HD
ATOM     22  H61 UNL     1      51.265  52.466  67.397  1.00  0.00     0.157 HD
ENDBRANCH  18  20
ENDBRANCH   8  10
ENDBRANCH   3   8
TORSDOF 4
ENDMDL
MODEL 4
REMARK VINA RESULT: -4.545360674      7.846      8.802
REMARK  4 active torsions:
REMARK  status: ('A' for Active; 'I' for Inactive)
REMARK    1  A    between atoms: C2_3  and  N2_4 
REMARK    2  A    between atoms: C2_3  and  C3_8 
REMARK    3  A    between atoms: C3_8  and  C4_10 
REMARK    4  A    between atoms: C6_19  and  N6_20 
ROOT
HETATM    1  N1  UNL     1      50.165  62.708  66.392  1.00  0.00    -0.195 NA
HETATM    2  C1  UNL     1      49.941  62.480  67.509  1.00  0.00     0.100 C 
HETATM    3  C2  UNL     1      49.632  62.193  68.926  1.00  0.00     0.364 C 
ENDROOT
BRANCH   3   4
HETATM    4  N2  UNL     1      49.985  63.340  69.698  1.00  0.00    -0.055 N 
ATOM      5  H23 UNL     1      50.612  63.117  70.471  1.00  0.00     0.276 HD
ATOM      6  H22 UNL     1      50.606  63.976  69.197  1.00  0.00     0.276 HD
ATOM      7  H21 UNL     1      49.125  63.793  70.007  1.00  0.00     0.276 HD
ENDBRANCH   3   4
BRANCH   3   8
HETATM    8  C3  UNL     1      50.249  60.930  69.364  1.00  0.00     0.225 C 
HETATM    9  O1  UNL     1      50.713  60.205  68.457  1.00  0.00    -0.287 OA
BRANCH   8  10
HETATM   10  C4  UNL     1      50.340  60.502  70.744  1.00  0.00     0.141 A 
HETATM   11  N3  UNL     1      51.388  61.024  71.457  1.00  0.00    -0.290 N 
HETATM   12  N4  UNL     1      51.585  60.720  72.711  1.00  0.00    -0.251 N 
ATOM     13  H3  UNL     1      52.031  61.667  70.995  1.00  0.00     0.187 HD
HETATM   14  C5  UNL     1      50.739  59.872  73.322  1.00  0.00     0.340 A 
ATOM     15  H4  UNL     1      52.372  61.122  73.222  1.00  0.00     0.191 HD
HETATM   16  O2  UNL     1      50.961  59.597  74.548  1.00  0.00    -0.245 OA
HETATM   17  N5  UNL     1      49.705  59.339  72.669  1.00  0.00    -0.292 N 
HETATM   18  C6  UNL     1      49.465  59.636  71.346  1.00  0.00     0.135 A 
ATOM     19  H5  UNL     1      49.079  58.699  73.159  1.00  0.00     0.172 HD
BRANCH  18  20
HETATM   20  N6  UNL     1      48.495  59.109  70.808  1.00  0.00    -0.383 N 
ATOM     21  H62 UNL     1      47.750  59.718  70.470  1.00  0.00     0.157 HD
ATOM     22  H61 UNL     1      48.364  58.108  70.666  1.00  0.00     0.157 HD
ENDBRANCH  18  20
ENDBRANCH   8  10
ENDBRANCH   3   8
TORSDOF 4
ENDMDL
MODEL 5
REMARK VINA RESULT: -4.488487176      2.915      4.934
REMARK  4 active torsions:
REMARK  status: ('A' for Active; 'I' for Inactive)
REMARK    1  A    between atoms: C2_3  and  N2_4 
REMARK    2  A    between atoms: C2_3  and  C3_8 
REMARK    3  A    between atoms: C3_8  and  C4_10 
REMARK    4  A    between atoms: C6_19  and  N6_20 
ROOT
HETATM    1  N1  UNL     1      52.961  58.026  63.862  1.00  0.00    -0.195 NA
HETATM    2  C1  UNL     1      53.169  57.043  64.446  1.00  0.00     0.100 C 
HETATM    3  C2  UNL     1      53.457  55.793  65.181  1.00  0.00     0.364 C 
ENDROOT
BRANCH   3   4
HETATM    4  N2  UNL     1      52.990  54.698  64.396  1.00  0.00    -0.055 N 
ATOM      5  H23 UNL     1      52.000  54.775  64.161  1.00  0.00     0.276 HD
ATOM      6  H22 UNL     1      53.358  54.711  63.444  1.00  0.00     0.276 HD
ATOM      7  H21 UNL     1      53.210  53.834  64.892  1.00  0.00     0.276 HD
ENDBRANCH   3   4
BRANCH   3   8
HETATM    8  C3  UNL     1      52.931  55.847  66.556  1.00  0.00     0.225 C 
HETATM    9  O1  UNL     1      53.761  56.125  67.448  1.00  0.00    -0.287 OA
BRANCH   8  10
HETATM   10  C4  UNL     1      51.548  55.604  66.910  1.00  0.00     0.141 A 
HETATM   11  N3  UNL     1      50.710  56.683  66.797  1.00  0.00    -0.290 N 
HETATM   12  N4  UNL     1      49.439  56.599  67.085  1.00  0.00    -0.251 N 
ATOM     13  H3  UNL     1      51.090  57.574  66.479  1.00  0.00     0.187 HD
HETATM   14  C5  UNL     1      48.937  55.424  67.505  1.00  0.00     0.340 A 
ATOM     15  H4  UNL     1      48.834  57.415  66.993  1.00  0.00     0.191 HD
HETATM   16  O2  UNL     1      47.693  55.376  67.778  1.00  0.00    -0.245 OA
HETATM   17  N5  UNL     1      49.715  54.346  67.630  1.00  0.00    -0.292 N 
HETATM   18  C6  UNL     1      51.059  54.396  67.336  1.00  0.00     0.135 A 
ATOM     19  H5  UNL     1      49.306  53.468  67.950  1.00  0.00     0.172 HD
BRANCH  18  20
HETATM   20  N6  UNL     1      51.714  53.367  67.474  1.00  0.00    -0.383 N 
ATOM     21  H62 UNL     1      51.701  52.689  66.711  1.00  0.00     0.157 HD
ATOM     22  H61 UNL     1      52.276  53.124  68.289  1.00  0.00     0.157 HD
ENDBRANCH  18  20
ENDBRANCH   8  10
ENDBRANCH   3   8
TORSDOF 4
ENDMDL
