MODEL 1
REMARK VINA RESULT: -4.855148297      0.000      0.000
REMARK  2 active torsions:
REMARK  status: ('A' for Active; 'I' for Inactive)
REMARK    1  A    between atoms: C3_6  and  N2_7 
REMARK    2  A    between atoms: N2_7  and  C4_9 
ROOT
HETATM    1  N2  UNL     1      51.000  53.923  66.427  1.00  0.00    -0.182 N 
ATOM      2  H2  UNL     1      50.845  53.739  65.436  1.00  0.00     0.184 HD
ENDROOT
BRANCH   1   3
HETATM    3  C3  UNL     1      51.004  55.253  66.931  1.00  0.00     0.132 A 
HETATM    4  C2  UNL     1      52.143  56.018  67.009  1.00  0.00     0.128 A 
HETATM    5  N1  UNL     1      52.108  57.272  67.491  1.00  0.00    -0.316 N 
HETATM    6  C1  UNL     1      50.956  57.834  67.920  1.00  0.00     0.327 A 
ATOM      7  H1  UNL     1      52.971  57.813  67.533  1.00  0.00     0.170 HD
HETATM    8  O1  UNL     1      50.893  59.006  68.376  1.00  0.00    -0.247 OA
HETATM    9  N7  UNL     1      49.835  57.096  67.849  1.00  0.00    -0.274 N 
HETATM   10  C5  UNL     1      49.828  55.826  67.368  1.00  0.00     0.278 A 
ATOM     11  H7  UNL     1      48.957  57.505  68.168  1.00  0.00     0.173 HD
HETATM   12  O2  UNL     1      48.777  55.156  67.310  1.00  0.00    -0.265 OA
ENDBRANCH   1   3
BRANCH   1  13
HETATM   13  C4  UNL     1      51.202  52.941  67.268  1.00  0.00     0.714 A 
HETATM   14  N3  UNL     1      52.253  52.104  67.330  1.00  0.00    -0.115 N 
HETATM   15  N4  UNL     1      52.035  51.269  68.337  1.00  0.00    -0.213 N 
ATOM     16  H3  UNL     1      53.068  52.111  66.717  1.00  0.00     0.207 HD
HETATM   17  N5  UNL     1      50.898  51.538  68.912  1.00  0.00    -0.213 N 
ATOM     18  H4  UNL     1      52.668  50.521  68.620  1.00  0.00     0.210 HD
HETATM   19  N6  UNL     1      50.376  52.566  68.262  1.00  0.00    -0.115 N 
ATOM     20  H5  UNL     1      50.489  51.051  69.709  1.00  0.00     0.210 HD
ATOM     21  H6  UNL     1      49.483  53.006  68.481  1.00  0.00     0.207 HD
ENDBRANCH   1  13
TORSDOF 2
ENDMDL
MODEL 2
REMARK VINA RESULT: -4.817021218      1.991      3.052
REMARK  2 active torsions:
REMARK  status: ('A' for Active; 'I' for Inactive)
REMARK    1  A    between atoms: C3_6  and  N2_7 
REMARK    2  A    between atoms: N2_7  and  C4_9 
ROOT
HETATM    1  N2  UNL     1      52.719  54.975  67.061  1.00  0.00    -0.182 N 
ATOM      2  H2  UNL     1      53.336  55.777  67.192  1.00  0.00     0.184 HD
ENDROOT
BRANCH   1   3
HETATM    3  C3  UNL     1      51.317  55.093  67.270  1.00  0.00     0.132 A 
HETATM    4  C2  UNL     1      50.551  54.075  67.789  1.00  0.00     0.128 A 
HETATM    5  N1  UNL     1      49.229  54.223  67.972  1.00  0.00    -0.316 N 
HETATM    6  C1  UNL     1      48.593  55.373  67.656  1.00  0.00     0.327 A 
ATOM      7  H1  UNL     1      48.691  53.449  68.360  1.00  0.00     0.170 HD
HETATM    8  O1  UNL     1      47.356  55.541  67.817  1.00  0.00    -0.247 OA
HETATM    9  N7  UNL     1      49.331  56.376  67.148  1.00  0.00    -0.274 N 
HETATM   10  C5  UNL     1      50.669  56.267  66.947  1.00  0.00     0.278 A 
ATOM     11  H7  UNL     1      48.867  57.252  66.904  1.00  0.00     0.173 HD
HETATM   12  O2  UNL     1      51.338  57.210  66.475  1.00  0.00    -0.265 OA
ENDBRANCH   1   3
BRANCH   1  13
HETATM   13  C4  UNL     1      53.195  53.813  66.698  1.00  0.00     0.714 A 
HETATM   14  N3  UNL     1      53.051  53.189  65.514  1.00  0.00    -0.115 N 
HETATM   15  N4  UNL     1      53.702  52.037  65.592  1.00  0.00    -0.213 N 
ATOM     16  H3  UNL     1      52.536  53.539  64.706  1.00  0.00     0.207 HD
HETATM   17  N5  UNL     1      54.250  51.903  66.765  1.00  0.00    -0.213 N 
ATOM     18  H4  UNL     1      53.765  51.352  64.839  1.00  0.00     0.210 HD
HETATM   19  N6  UNL     1      53.944  52.990  67.454  1.00  0.00    -0.115 N 
ATOM     20  H5  UNL     1      54.807  51.113  67.090  1.00  0.00     0.210 HD
ATOM     21  H6  UNL     1      54.233  53.177  68.415  1.00  0.00     0.207 HD
ENDBRANCH   1  13
TORSDOF 2
ENDMDL
MODEL 3
REMARK VINA RESULT: -4.806950607      2.237      3.764
REMARK  2 active torsions:
REMARK  status: ('A' for Active; 'I' for Inactive)
REMARK    1  A    between atoms: C3_6  and  N2_7 
REMARK    2  A    between atoms: N2_7  and  C4_9 
ROOT
HETATM    1  N2  UNL     1      52.517  55.592  66.131  1.00  0.00    -0.182 N 
ATOM      2  H2  UNL     1      52.456  55.676  65.116  1.00  0.00     0.184 HD
ENDROOT
BRANCH   1   3
HETATM    3  C3  UNL     1      51.342  55.511  66.928  1.00  0.00     0.132 A 
HETATM    4  C2  UNL     1      50.745  54.317  67.258  1.00  0.00     0.128 A 
HETATM    5  N1  UNL     1      49.635  54.280  68.014  1.00  0.00    -0.316 N 
HETATM    6  C1  UNL     1      49.057  55.409  68.481  1.00  0.00     0.327 A 
ATOM      7  H1  UNL     1      49.218  53.378  68.241  1.00  0.00     0.170 HD
HETATM    8  O1  UNL     1      48.018  55.405  69.192  1.00  0.00    -0.247 OA
HETATM    9  N7  UNL     1      49.632  56.583  68.166  1.00  0.00    -0.274 N 
HETATM   10  C5  UNL     1      50.753  56.664  67.405  1.00  0.00     0.278 A 
ATOM     11  H7  UNL     1      49.209  57.445  68.511  1.00  0.00     0.173 HD
HETATM   12  O2  UNL     1      51.273  57.763  67.122  1.00  0.00    -0.265 OA
ENDBRANCH   1   3
BRANCH   1  13
HETATM   13  C4  UNL     1      53.677  55.555  66.732  1.00  0.00     0.714 A 
HETATM   14  N3  UNL     1      54.549  54.532  66.795  1.00  0.00    -0.115 N 
HETATM   15  N4  UNL     1      55.590  54.941  67.506  1.00  0.00    -0.213 N 
ATOM     16  H3  UNL     1      54.430  53.611  66.372  1.00  0.00     0.207 HD
HETATM   17  N5  UNL     1      55.418  56.172  67.896  1.00  0.00    -0.213 N 
ATOM     18  H4  UNL     1      56.409  54.373  67.719  1.00  0.00     0.210 HD
HETATM   19  N6  UNL     1      54.244  56.560  67.425  1.00  0.00    -0.115 N 
ATOM     20  H5  UNL     1      56.064  56.728  68.455  1.00  0.00     0.210 HD
ATOM     21  H6  UNL     1      53.831  57.481  67.567  1.00  0.00     0.207 HD
ENDBRANCH   1  13
TORSDOF 2
ENDMDL
MODEL 4
REMARK VINA RESULT: -4.779310986      2.298      3.753
REMARK  2 active torsions:
REMARK  status: ('A' for Active; 'I' for Inactive)
REMARK    1  A    between atoms: C3_6  and  N2_7 
REMARK    2  A    between atoms: N2_7  and  C4_9 
ROOT
HETATM    1  N2  UNL     1      52.753  55.199  67.065  1.00  0.00    -0.182 N 
ATOM      2  H2  UNL     1      53.399  55.473  67.805  1.00  0.00     0.184 HD
ENDROOT
BRANCH   1   3
HETATM    3  C3  UNL     1      51.346  55.235  67.275  1.00  0.00     0.132 A 
HETATM    4  C2  UNL     1      50.630  54.148  67.715  1.00  0.00     0.128 A 
HETATM    5  N1  UNL     1      49.301  54.219  67.902  1.00  0.00    -0.316 N 
HETATM    6  C1  UNL     1      48.612  55.358  67.666  1.00  0.00     0.327 A 
ATOM      7  H1  UNL     1      48.800  53.394  68.231  1.00  0.00     0.170 HD
HETATM    8  O1  UNL     1      47.368  55.454  67.832  1.00  0.00    -0.247 OA
HETATM    9  N7  UNL     1      49.302  56.428  67.235  1.00  0.00    -0.274 N 
HETATM   10  C5  UNL     1      50.644  56.398  67.034  1.00  0.00     0.278 A 
ATOM     11  H7  UNL     1      48.798  57.296  67.053  1.00  0.00     0.173 HD
HETATM   12  O2  UNL     1      51.268  57.402  66.633  1.00  0.00    -0.265 OA
ENDBRANCH   1   3
BRANCH   1  13
HETATM   13  C4  UNL     1      53.195  54.806  65.899  1.00  0.00     0.714 A 
HETATM   14  N3  UNL     1      53.704  53.606  65.565  1.00  0.00    -0.115 N 
HETATM   15  N4  UNL     1      54.022  53.655  64.279  1.00  0.00    -0.213 N 
ATOM     16  H3  UNL     1      53.822  52.806  66.187  1.00  0.00     0.207 HD
HETATM   17  N5  UNL     1      53.739  54.826  63.785  1.00  0.00    -0.213 N 
ATOM     18  H4  UNL     1      54.430  52.884  63.750  1.00  0.00     0.210 HD
HETATM   19  N6  UNL     1      53.230  55.543  64.773  1.00  0.00    -0.115 N 
ATOM     20  H5  UNL     1      53.882  55.131  62.823  1.00  0.00     0.210 HD
ATOM     21  H6  UNL     1      52.912  56.509  64.694  1.00  0.00     0.207 HD
ENDBRANCH   1  13
TORSDOF 2
ENDMDL
MODEL 5
REMARK VINA RESULT: -4.678697424      1.864      4.843
REMARK  2 active torsions:
REMARK  status: ('A' for Active; 'I' for Inactive)
REMARK    1  A    between atoms: C3_6  and  N2_7 
REMARK    2  A    between atoms: N2_7  and  C4_9 
ROOT
HETATM    1  N2  UNL     1      50.578  55.719  66.358  1.00  0.00    -0.182 N 
ATOM      2  H2  UNL     1      50.097  55.824  65.464  1.00  0.00     0.184 HD
ENDROOT
BRANCH   1   3
HETATM    3  C3  UNL     1      50.974  54.437  66.827  1.00  0.00     0.132 A 
HETATM    4  C2  UNL     1      52.106  53.796  66.383  1.00  0.00     0.128 A 
HETATM    5  N1  UNL     1      52.448  52.584  66.850  1.00  0.00    -0.316 N 
HETATM    6  C1  UNL     1      51.698  51.942  67.773  1.00  0.00     0.327 A 
ATOM      7  H1  UNL     1      53.296  52.137  66.500  1.00  0.00     0.170 HD
HETATM    8  O1  UNL     1      51.995  50.807  68.229  1.00  0.00    -0.247 OA
HETATM    9  N7  UNL     1      50.589  52.558  68.216  1.00  0.00    -0.274 N 
HETATM   10  C5  UNL     1      50.208  53.782  67.770  1.00  0.00     0.278 A 
ATOM     11  H7  UNL     1      50.012  52.088  68.913  1.00  0.00     0.173 HD
HETATM   12  O2  UNL     1      49.174  54.340  68.193  1.00  0.00    -0.265 OA
ENDBRANCH   1   3
BRANCH   1  13
HETATM   13  C4  UNL     1      50.846  56.761  67.101  1.00  0.00     0.714 A 
HETATM   14  N3  UNL     1      52.022  57.400  67.243  1.00  0.00    -0.115 N 
HETATM   15  N4  UNL     1      51.829  58.398  68.094  1.00  0.00    -0.213 N 
ATOM     16  H3  UNL     1      52.899  57.161  66.780  1.00  0.00     0.207 HD
HETATM   17  N5  UNL     1      50.591  58.421  68.496  1.00  0.00    -0.213 N 
ATOM     18  H4  UNL     1      52.550  59.056  68.392  1.00  0.00     0.210 HD
HETATM   19  N6  UNL     1      49.977  57.417  67.891  1.00  0.00    -0.115 N 
ATOM     20  H5  UNL     1      50.176  59.084  69.150  1.00  0.00     0.210 HD
ATOM     21  H6  UNL     1      48.992  57.177  68.007  1.00  0.00     0.207 HD
ENDBRANCH   1  13
TORSDOF 2
ENDMDL
