MODEL 1
REMARK VINA RESULT: -5.206231000      0.000      0.000
REMARK  3 active torsions:
REMARK  status: ('A' for Active; 'I' for Inactive)
REMARK    1  A    between atoms: N1_1  and  N2_4 
REMARK    2  A    between atoms: N2_4  and  C1_5 
REMARK    3  A    between atoms: C1_5  and  C2_6 
ROOT
HETATM    1  C2  UNL     1      52.336  52.910  67.608  1.00  0.00     0.033 A 
HETATM    2  C3  UNL     1      50.990  53.046  67.915  1.00  0.00     0.077 A 
HETATM    3  C4  UNL     1      50.354  54.273  67.939  1.00  0.00     0.137 A 
HETATM    4  N3  UNL     1      49.101  54.692  68.195  1.00  0.00    -0.281 N 
ATOM      5  H3  UNL     1      48.326  54.077  68.444  1.00  0.00     0.188 HD
HETATM    6  N4  UNL     1      49.005  56.002  68.080  1.00  0.00    -0.249 N 
ATOM      7  H4  UNL     1      48.172  56.575  68.219  1.00  0.00     0.192 HD
HETATM    8  C5  UNL     1      50.242  56.426  67.741  1.00  0.00     0.351 A 
HETATM    9  O1  UNL     1      50.551  57.642  67.540  1.00  0.00    -0.244 OA
HETATM   10  N5  UNL     1      51.079  55.369  67.652  1.00  0.00    -0.197 N 
HETATM   11  C6  UNL     1      52.393  55.262  67.349  1.00  0.00     0.336 A 
HETATM   12  O2  UNL     1      53.041  56.304  67.086  1.00  0.00    -0.246 OA
HETATM   13  N6  UNL     1      52.995  54.059  67.331  1.00  0.00    -0.310 N 
ATOM     14  H6  UNL     1      53.987  54.011  67.099  1.00  0.00     0.170 HD
ENDROOT
BRANCH   1  15
HETATM   15  C1  UNL     1      53.012  51.585  67.585  1.00  0.00     0.191 C 
BRANCH  15  16
HETATM   16  N2  UNL     1      54.312  51.746  68.209  1.00  0.00    -0.142 NA
BRANCH  16  17
HETATM   17  N1  UNL     1      54.336  51.268  69.518  1.00  0.00    -0.348 N 
ATOM     18  H12 UNL     1      53.695  50.552  69.859  1.00  0.00     0.172 HD
ATOM     19  H11 UNL     1      55.059  51.714  70.082  1.00  0.00     0.172 HD
ENDBRANCH  16  17
ENDBRANCH  15  16
ENDBRANCH   1  15
TORSDOF 3
ENDMDL
MODEL 2
REMARK VINA RESULT: -5.112897997      0.954      1.051
REMARK  3 active torsions:
REMARK  status: ('A' for Active; 'I' for Inactive)
REMARK    1  A    between atoms: N1_1  and  N2_4 
REMARK    2  A    between atoms: N2_4  and  C1_5 
REMARK    3  A    between atoms: C1_5  and  C2_6 
ROOT
HETATM    1  C2  UNL     1      52.278  52.808  67.596  1.00  0.00     0.033 A 
HETATM    2  C3  UNL     1      50.949  52.986  67.953  1.00  0.00     0.077 A 
HETATM    3  C4  UNL     1      50.356  54.233  68.011  1.00  0.00     0.137 A 
HETATM    4  N3  UNL     1      49.127  54.691  68.315  1.00  0.00    -0.281 N 
ATOM      5  H3  UNL     1      48.342  54.100  68.586  1.00  0.00     0.188 HD
HETATM    6  N4  UNL     1      49.072  56.005  68.216  1.00  0.00    -0.249 N 
ATOM      7  H4  UNL     1      48.264  56.604  68.390  1.00  0.00     0.192 HD
HETATM    8  C5  UNL     1      50.310  56.391  67.836  1.00  0.00     0.351 A 
HETATM    9  O1  UNL     1      50.653  57.598  67.635  1.00  0.00    -0.244 OA
HETATM   10  N5  UNL     1      51.107  55.307  67.707  1.00  0.00    -0.197 N 
HETATM   11  C6  UNL     1      52.405  55.159  67.357  1.00  0.00     0.336 A 
HETATM   12  O2  UNL     1      53.078  56.181  67.080  1.00  0.00    -0.246 OA
HETATM   13  N6  UNL     1      52.964  53.936  67.306  1.00  0.00    -0.310 N 
ATOM     14  H6  UNL     1      53.945  53.858  67.038  1.00  0.00     0.170 HD
ENDROOT
BRANCH   1  15
HETATM   15  C1  UNL     1      52.907  51.461  67.537  1.00  0.00     0.191 C 
BRANCH  15  16
HETATM   16  N2  UNL     1      53.914  51.494  66.492  1.00  0.00    -0.142 NA
BRANCH  16  17
HETATM   17  N1  UNL     1      54.415  50.227  66.197  1.00  0.00    -0.348 N 
ATOM     18  H12 UNL     1      55.413  50.023  66.150  1.00  0.00     0.172 HD
ATOM     19  H11 UNL     1      53.675  49.544  66.036  1.00  0.00     0.172 HD
ENDBRANCH  16  17
ENDBRANCH  15  16
ENDBRANCH   1  15
TORSDOF 3
ENDMDL
MODEL 3
REMARK VINA RESULT: -5.056793956      2.012      4.883
REMARK  3 active torsions:
REMARK  status: ('A' for Active; 'I' for Inactive)
REMARK    1  A    between atoms: N1_1  and  N2_4 
REMARK    2  A    between atoms: N2_4  and  C1_5 
REMARK    3  A    between atoms: C1_5  and  C2_6 
ROOT
HETATM    1  C2  UNL     1      50.438  54.172  67.514  1.00  0.00     0.033 A 
HETATM    2  C3  UNL     1      51.228  53.077  67.831  1.00  0.00     0.077 A 
HETATM    3  C4  UNL     1      52.292  52.676  67.046  1.00  0.00     0.137 A 
HETATM    4  N3  UNL     1      53.202  51.685  67.107  1.00  0.00    -0.281 N 
ATOM      5  H3  UNL     1      53.244  50.985  67.848  1.00  0.00     0.188 HD
HETATM    6  N4  UNL     1      54.032  51.739  66.084  1.00  0.00    -0.249 N 
ATOM      7  H4  UNL     1      54.812  51.110  65.887  1.00  0.00     0.192 HD
HETATM    8  C5  UNL     1      53.633  52.800  65.350  1.00  0.00     0.351 A 
HETATM    9  O1  UNL     1      54.193  53.178  64.274  1.00  0.00    -0.244 OA
HETATM   10  N5  UNL     1      52.563  53.384  65.934  1.00  0.00    -0.197 N 
HETATM   11  C6  UNL     1      51.807  54.456  65.604  1.00  0.00     0.336 A 
HETATM   12  O2  UNL     1      52.085  55.094  64.560  1.00  0.00    -0.246 OA
HETATM   13  N6  UNL     1      50.775  54.830  66.381  1.00  0.00    -0.310 N 
ATOM     14  H6  UNL     1      50.224  55.643  66.104  1.00  0.00     0.170 HD
ENDROOT
BRANCH   1  15
HETATM   15  C1  UNL     1      49.293  54.596  68.364  1.00  0.00     0.191 C 
BRANCH  15  16
HETATM   16  N2  UNL     1      48.364  55.322  67.519  1.00  0.00    -0.142 NA
BRANCH  16  17
HETATM   17  N1  UNL     1      47.231  55.742  68.212  1.00  0.00    -0.348 N 
ATOM     18  H12 UNL     1      46.779  55.176  68.931  1.00  0.00     0.172 HD
ATOM     19  H11 UNL     1      46.915  56.666  67.919  1.00  0.00     0.172 HD
ENDBRANCH  16  17
ENDBRANCH  15  16
ENDBRANCH   1  15
TORSDOF 3
ENDMDL
MODEL 4
REMARK VINA RESULT: -4.868242768      2.842      5.006
REMARK  3 active torsions:
REMARK  status: ('A' for Active; 'I' for Inactive)
REMARK    1  A    between atoms: N1_1  and  N2_4 
REMARK    2  A    between atoms: N2_4  and  C1_5 
REMARK    3  A    between atoms: C1_5  and  C2_6 
ROOT
HETATM    1  C2  UNL     1      50.447  54.134  67.574  1.00  0.00     0.033 A 
HETATM    2  C3  UNL     1      50.841  54.787  66.416  1.00  0.00     0.077 A 
HETATM    3  C4  UNL     1      51.900  54.352  65.642  1.00  0.00     0.137 A 
HETATM    4  N3  UNL     1      52.487  54.774  64.506  1.00  0.00    -0.281 N 
ATOM      5  H3  UNL     1      52.192  55.594  63.975  1.00  0.00     0.188 HD
HETATM    6  N4  UNL     1      53.491  53.988  64.169  1.00  0.00    -0.249 N 
ATOM      7  H4  UNL     1      54.101  54.080  63.356  1.00  0.00     0.192 HD
HETATM    8  C5  UNL     1      53.541  53.037  65.126  1.00  0.00     0.351 A 
HETATM    9  O1  UNL     1      54.386  52.088  65.149  1.00  0.00    -0.244 OA
HETATM   10  N5  UNL     1      52.566  53.252  66.037  1.00  0.00    -0.197 N 
HETATM   11  C6  UNL     1      52.200  52.598  67.163  1.00  0.00     0.336 A 
HETATM   12  O2  UNL     1      52.842  51.575  67.505  1.00  0.00    -0.246 OA
HETATM   13  N6  UNL     1      51.166  53.036  67.904  1.00  0.00    -0.310 N 
ATOM     14  H6  UNL     1      50.915  52.521  68.747  1.00  0.00     0.170 HD
ENDROOT
BRANCH   1  15
HETATM   15  C1  UNL     1      49.306  54.609  68.402  1.00  0.00     0.191 C 
BRANCH  15  16
HETATM   16  N2  UNL     1      48.387  55.307  67.522  1.00  0.00    -0.142 NA
BRANCH  16  17
HETATM   17  N1  UNL     1      47.243  55.745  68.187  1.00  0.00    -0.348 N 
ATOM     18  H12 UNL     1      46.683  56.534  67.866  1.00  0.00     0.172 HD
ATOM     19  H11 UNL     1      47.039  55.189  69.018  1.00  0.00     0.172 HD
ENDBRANCH  16  17
ENDBRANCH  15  16
ENDBRANCH   1  15
TORSDOF 3
ENDMDL
MODEL 5
REMARK VINA RESULT: -4.843687803      2.070      4.909
REMARK  3 active torsions:
REMARK  status: ('A' for Active; 'I' for Inactive)
REMARK    1  A    between atoms: N1_1  and  N2_4 
REMARK    2  A    between atoms: N2_4  and  C1_5 
REMARK    3  A    between atoms: C1_5  and  C2_6 
ROOT
HETATM    1  C2  UNL     1      50.579  54.778  67.063  1.00  0.00     0.033 A 
HETATM    2  C3  UNL     1      50.855  53.662  67.840  1.00  0.00     0.077 A 
HETATM    3  C4  UNL     1      51.857  52.765  67.521  1.00  0.00     0.137 A 
HETATM    4  N3  UNL     1      52.333  51.633  68.072  1.00  0.00    -0.281 N 
ATOM      5  H3  UNL     1      51.971  51.211  68.928  1.00  0.00     0.188 HD
HETATM    6  N4  UNL     1      53.328  51.140  67.361  1.00  0.00    -0.249 N 
ATOM      7  H4  UNL     1      53.865  50.294  67.554  1.00  0.00     0.192 HD
HETATM    8  C5  UNL     1      53.486  51.990  66.324  1.00  0.00     0.351 A 
HETATM    9  O1  UNL     1      54.359  51.851  65.411  1.00  0.00    -0.244 OA
HETATM   10  N5  UNL     1      52.586  52.994  66.414  1.00  0.00    -0.197 N 
HETATM   11  C6  UNL     1      52.336  54.075  65.641  1.00  0.00     0.336 A 
HETATM   12  O2  UNL     1      53.033  54.260  64.614  1.00  0.00    -0.246 OA
HETATM   13  N6  UNL     1      51.356  54.937  65.967  1.00  0.00    -0.310 N 
ATOM     14  H6  UNL     1      51.192  55.743  65.363  1.00  0.00     0.170 HD
ENDROOT
BRANCH   1  15
HETATM   15  C1  UNL     1      49.498  55.738  67.413  1.00  0.00     0.191 C 
BRANCH  15  16
HETATM   16  N2  UNL     1      48.318  54.965  67.754  1.00  0.00    -0.142 NA
BRANCH  16  17
HETATM   17  N1  UNL     1      47.246  55.770  68.134  1.00  0.00    -0.348 N 
ATOM     18  H12 UNL     1      47.366  56.665  68.607  1.00  0.00     0.172 HD
ATOM     19  H11 UNL     1      46.346  55.362  67.885  1.00  0.00     0.172 HD
ENDBRANCH  16  17
ENDBRANCH  15  16
ENDBRANCH   1  15
TORSDOF 3
ENDMDL
