MODEL 1
REMARK VINA RESULT: -4.778629647      0.000      0.000
REMARK  2 active torsions:
REMARK  status: ('A' for Active; 'I' for Inactive)
REMARK       I    between atoms: C1_2  and  N2_4 
REMARK    1  A    between atoms: N2_4  and  N3_6 
REMARK    2  A    between atoms: C2_8  and  C3_9 
ROOT
HETATM    1  C3  UNL     1      51.218  59.878  69.786  1.00  0.00     0.122 A 
HETATM    2  N4  UNL     1      51.558  59.817  71.070  1.00  0.00    -0.281 N 
ATOM      3  H4  UNL     1      51.965  58.954  71.432  1.00  0.00     0.188 HD
HETATM    4  N5  UNL     1      51.387  60.838  71.893  1.00  0.00    -0.239 N 
ATOM      5  H5  UNL     1      51.665  60.738  72.869  1.00  0.00     0.208 HD
HETATM    6  N6  UNL     1      50.865  61.986  71.487  1.00  0.00    -0.248 N 
ATOM      7  H6  UNL     1      50.750  62.752  72.152  1.00  0.00     0.192 HD
HETATM    8  C4  UNL     1      50.485  62.152  70.200  1.00  0.00     0.313 A 
HETATM    9  O2  UNL     1      49.990  63.219  69.779  1.00  0.00    -0.262 OA
HETATM   10  C5  UNL     1      50.666  61.084  69.344  1.00  0.00     0.270 A 
HETATM   11  O3  UNL     1      50.337  61.154  68.120  1.00  0.00    -0.280 OA
ENDROOT
BRANCH   1  12
HETATM   12  C2  UNL     1      51.392  58.774  68.852  1.00  0.00     0.142 C 
HETATM   13  N3  UNL     1      50.389  58.043  68.509  1.00  0.00    -0.306 N 
ATOM     14  H3  UNL     1      49.478  58.264  68.911  1.00  0.00     0.186 HD
BRANCH  13  15
HETATM   15  N2  UNL     1      50.469  56.983  67.634  1.00  0.00    -0.254 N 
HETATM   16  C1  UNL     1      49.764  55.782  67.876  1.00  0.00     0.347 C 
HETATM   17  N1  UNL     1      49.841  54.677  66.974  1.00  0.00    -0.038 NA
HETATM   18  O1  UNL     1      49.045  55.642  68.891  1.00  0.00    -0.249 OA
ATOM     19  H2  UNL     1      51.046  57.066  66.797  1.00  0.00     0.191 HD
ENDBRANCH  13  15
ENDBRANCH   1  12
TORSDOF 2
ENDMDL
MODEL 2
REMARK VINA RESULT: -4.776054183      3.612      4.936
REMARK  2 active torsions:
REMARK  status: ('A' for Active; 'I' for Inactive)
REMARK       I    between atoms: C1_2  and  N2_4 
REMARK    1  A    between atoms: N2_4  and  N3_6 
REMARK    2  A    between atoms: C2_8  and  C3_9 
ROOT
HETATM    1  C3  UNL     1      50.207  60.384  70.325  1.00  0.00     0.122 A 
HETATM    2  N4  UNL     1      49.367  59.452  70.766  1.00  0.00    -0.281 N 
ATOM      3  H4  UNL     1      48.740  58.999  70.101  1.00  0.00     0.188 HD
HETATM    4  N5  UNL     1      49.318  59.094  72.037  1.00  0.00    -0.239 N 
ATOM      5  H5  UNL     1      48.655  58.374  72.324  1.00  0.00     0.208 HD
HETATM    6  N6  UNL     1      50.105  59.642  72.952  1.00  0.00    -0.248 N 
ATOM      7  H6  UNL     1      50.039  59.339  73.924  1.00  0.00     0.192 HD
HETATM    8  C4  UNL     1      50.996  60.600  72.608  1.00  0.00     0.313 A 
HETATM    9  O2  UNL     1      51.755  61.140  73.440  1.00  0.00    -0.262 OA
HETATM   10  C5  UNL     1      51.044  60.971  71.279  1.00  0.00     0.270 A 
HETATM   11  O3  UNL     1      51.850  61.861  70.869  1.00  0.00    -0.280 OA
ENDROOT
BRANCH   1  12
HETATM   12  C2  UNL     1      50.288  60.804  68.932  1.00  0.00     0.142 C 
HETATM   13  N3  UNL     1      49.603  61.808  68.511  1.00  0.00    -0.306 N 
ATOM     14  H3  UNL     1      49.008  62.295  69.181  1.00  0.00     0.186 HD
BRANCH  13  15
HETATM   15  N2  UNL     1      49.622  62.267  67.213  1.00  0.00    -0.254 N 
HETATM   16  C1  UNL     1      50.265  63.481  66.877  1.00  0.00     0.347 C 
HETATM   17  N1  UNL     1      50.291  63.964  65.533  1.00  0.00    -0.038 NA
HETATM   18  O1  UNL     1      50.838  64.176  67.745  1.00  0.00    -0.249 OA
ATOM     19  H2  UNL     1      49.165  61.723  66.481  1.00  0.00     0.191 HD
ENDBRANCH  13  15
ENDBRANCH   1  12
TORSDOF 2
ENDMDL
MODEL 3
REMARK VINA RESULT: -4.752749936      2.146      6.379
REMARK  2 active torsions:
REMARK  status: ('A' for Active; 'I' for Inactive)
REMARK       I    between atoms: C1_2  and  N2_4 
REMARK    1  A    between atoms: N2_4  and  N3_6 
REMARK    2  A    between atoms: C2_8  and  C3_9 
ROOT
HETATM    1  C3  UNL     1      50.519  56.332  68.053  1.00  0.00     0.122 A 
HETATM    2  N4  UNL     1      49.316  56.007  68.518  1.00  0.00    -0.281 N 
ATOM      3  H4  UNL     1      48.688  56.750  68.825  1.00  0.00     0.188 HD
HETATM    4  N5  UNL     1      48.907  54.752  68.596  1.00  0.00    -0.239 N 
ATOM      5  H5  UNL     1      47.975  54.557  68.961  1.00  0.00     0.208 HD
HETATM    6  N6  UNL     1      49.672  53.740  68.214  1.00  0.00    -0.248 N 
ATOM      7  H6  UNL     1      49.322  52.784  68.288  1.00  0.00     0.192 HD
HETATM    8  C4  UNL     1      50.914  53.962  67.726  1.00  0.00     0.313 A 
HETATM    9  O2  UNL     1      51.664  53.035  67.355  1.00  0.00    -0.262 OA
HETATM   10  C5  UNL     1      51.337  55.274  67.646  1.00  0.00     0.270 A 
HETATM   11  O3  UNL     1      52.486  55.572  67.200  1.00  0.00    -0.280 OA
ENDROOT
BRANCH   1  12
HETATM   12  C2  UNL     1      51.001  57.702  67.953  1.00  0.00     0.142 C 
HETATM   13  N3  UNL     1      50.697  58.570  68.853  1.00  0.00    -0.306 N 
ATOM     14  H3  UNL     1      50.111  58.266  69.631  1.00  0.00     0.186 HD
BRANCH  13  15
HETATM   15  N2  UNL     1      51.111  59.884  68.833  1.00  0.00    -0.254 N 
HETATM   16  C1  UNL     1      50.455  60.869  69.605  1.00  0.00     0.347 C 
HETATM   17  N1  UNL     1      50.878  62.233  69.591  1.00  0.00    -0.038 NA
HETATM   18  O1  UNL     1      49.478  60.581  70.333  1.00  0.00    -0.249 OA
ATOM     19  H2  UNL     1      51.905  60.150  68.250  1.00  0.00     0.191 HD
ENDBRANCH  13  15
ENDBRANCH   1  12
TORSDOF 2
ENDMDL
MODEL 4
REMARK VINA RESULT: -4.656614031      4.287      6.408
REMARK  2 active torsions:
REMARK  status: ('A' for Active; 'I' for Inactive)
REMARK       I    between atoms: C1_2  and  N2_4 
REMARK    1  A    between atoms: N2_4  and  N3_6 
REMARK    2  A    between atoms: C2_8  and  C3_9 
ROOT
HETATM    1  C3  UNL     1      51.007  54.157  67.657  1.00  0.00     0.122 A 
HETATM    2  N4  UNL     1      49.830  53.911  68.226  1.00  0.00    -0.281 N 
ATOM      3  H4  UNL     1      49.542  52.942  68.365  1.00  0.00     0.188 HD
HETATM    4  N5  UNL     1      49.021  54.880  68.618  1.00  0.00    -0.239 N 
ATOM      5  H5  UNL     1      48.129  54.637  69.049  1.00  0.00     0.208 HD
HETATM    6  N6  UNL     1      49.334  56.159  68.468  1.00  0.00    -0.248 N 
ATOM      7  H6  UNL     1      48.684  56.879  68.783  1.00  0.00     0.192 HD
HETATM    8  C4  UNL     1      50.508  56.518  67.900  1.00  0.00     0.313 A 
HETATM    9  O2  UNL     1      50.839  57.712  67.742  1.00  0.00    -0.262 OA
HETATM   10  C5  UNL     1      51.350  55.502  67.492  1.00  0.00     0.270 A 
HETATM   11  O3  UNL     1      52.470  55.749  66.951  1.00  0.00    -0.280 OA
ENDROOT
BRANCH   1  12
HETATM   12  C2  UNL     1      51.922  53.115  67.213  1.00  0.00     0.142 C 
HETATM   13  N3  UNL     1      53.089  53.000  67.744  1.00  0.00    -0.306 N 
ATOM     14  H3  UNL     1      53.346  53.658  68.480  1.00  0.00     0.186 HD
BRANCH  13  15
HETATM   15  N2  UNL     1      54.012  52.045  67.382  1.00  0.00    -0.254 N 
HETATM   16  C1  UNL     1      54.706  51.292  68.357  1.00  0.00     0.347 C 
HETATM   17  N1  UNL     1      55.665  50.299  67.991  1.00  0.00    -0.038 NA
HETATM   18  O1  UNL     1      54.504  51.469  69.580  1.00  0.00    -0.249 OA
ATOM     19  H2  UNL     1      54.199  51.876  66.394  1.00  0.00     0.191 HD
ENDBRANCH  13  15
ENDBRANCH   1  12
TORSDOF 2
ENDMDL
MODEL 5
REMARK VINA RESULT: -4.642209960      4.969      6.775
REMARK  2 active torsions:
REMARK  status: ('A' for Active; 'I' for Inactive)
REMARK       I    between atoms: C1_2  and  N2_4 
REMARK    1  A    between atoms: N2_4  and  N3_6 
REMARK    2  A    between atoms: C2_8  and  C3_9 
ROOT
HETATM    1  C3  UNL     1      50.701  55.756  66.546  1.00  0.00     0.122 A 
HETATM    2  N4  UNL     1      49.759  56.488  67.136  1.00  0.00    -0.281 N 
ATOM      3  H4  UNL     1      49.607  57.445  66.818  1.00  0.00     0.188 HD
HETATM    4  N5  UNL     1      49.014  56.014  68.120  1.00  0.00    -0.239 N 
ATOM      5  H5  UNL     1      48.305  56.617  68.538  1.00  0.00     0.208 HD
HETATM    6  N6  UNL     1      49.160  54.780  68.579  1.00  0.00    -0.248 N 
ATOM      7  H6  UNL     1      48.566  54.450  69.340  1.00  0.00     0.192 HD
HETATM    8  C4  UNL     1      50.090  53.954  68.049  1.00  0.00     0.313 A 
HETATM    9  O2  UNL     1      50.258  52.784  68.454  1.00  0.00    -0.262 OA
HETATM   10  C5  UNL     1      50.866  54.452  67.021  1.00  0.00     0.270 A 
HETATM   11  O3  UNL     1      51.761  53.745  66.466  1.00  0.00    -0.280 OA
ENDROOT
BRANCH   1  12
HETATM   12  C2  UNL     1      51.540  56.245  65.460  1.00  0.00     0.142 C 
HETATM   13  N3  UNL     1      52.758  56.595  65.682  1.00  0.00    -0.306 N 
ATOM     14  H3  UNL     1      53.111  56.518  66.635  1.00  0.00     0.186 HD
BRANCH  13  15
HETATM   15  N2  UNL     1      53.615  57.067  64.713  1.00  0.00    -0.254 N 
HETATM   16  C1  UNL     1      54.033  58.418  64.702  1.00  0.00     0.347 C 
HETATM   17  N1  UNL     1      54.922  58.916  63.700  1.00  0.00    -0.038 NA
HETATM   18  O1  UNL     1      53.639  59.228  65.570  1.00  0.00    -0.249 OA
ATOM     19  H2  UNL     1      53.955  56.432  63.991  1.00  0.00     0.191 HD
ENDBRANCH  13  15
ENDBRANCH   1  12
TORSDOF 2
ENDMDL
