MODEL 1
REMARK VINA RESULT: -4.559986602      0.000      0.000
REMARK  2 active torsions:
REMARK  status: ('A' for Active; 'I' for Inactive)
REMARK    1  A    between atoms: N1_1  and  N2_4 
REMARK       I    between atoms: N2_4  and  C1_6 
REMARK    2  A    between atoms: C1_6  and  C2_8 
REMARK       I    between atoms: N3_10  and  C4_11 
ROOT
HETATM    1  C2  UNL     1      52.185  53.201  67.539  1.00  0.00     0.122 A 
HETATM    2  C3  UNL     1      50.871  53.675  67.545  1.00  0.00     0.141 A 
HETATM    3  N3  UNL     1      50.891  55.014  67.372  1.00  0.00    -0.226 N 
HETATM    4  C4  UNL     1      49.785  55.898  67.315  1.00  0.00     0.343 C 
HETATM    5  N4  UNL     1      48.447  55.453  67.443  1.00  0.00    -0.039 NA
HETATM    6  O2  UNL     1      50.011  57.122  67.146  1.00  0.00    -0.250 OA
HETATM    7  C5  UNL     1      52.176  55.337  67.263  1.00  0.00     0.335 A 
HETATM    8  O3  UNL     1      52.611  56.514  67.089  1.00  0.00    -0.246 OA
HETATM    9  N5  UNL     1      52.966  54.269  67.359  1.00  0.00    -0.302 N 
ATOM     10  H5  UNL     1      53.985  54.269  67.306  1.00  0.00     0.171 HD
ENDROOT
BRANCH   1  11
HETATM   11  C1  UNL     1      52.577  51.819  67.696  1.00  0.00     0.287 C 
HETATM   12  N2  UNL     1      53.580  51.265  66.870  1.00  0.00    -0.271 N 
ATOM     13  H2  UNL     1      54.023  51.853  66.165  1.00  0.00     0.189 HD
HETATM   14  O1  UNL     1      52.040  51.075  68.567  1.00  0.00    -0.264 OA
BRANCH  12  15
HETATM   15  N1  UNL     1      53.984  49.934  66.994  1.00  0.00    -0.342 N 
ATOM     16  H12 UNL     1      54.837  49.644  66.515  1.00  0.00     0.176 HD
ATOM     17  H11 UNL     1      53.452  49.258  67.543  1.00  0.00     0.176 HD
ENDBRANCH  12  15
ENDBRANCH   1  11
TORSDOF 2
ENDMDL
MODEL 2
REMARK VINA RESULT: -4.532555445      1.775      2.354
REMARK  2 active torsions:
REMARK  status: ('A' for Active; 'I' for Inactive)
REMARK    1  A    between atoms: N1_1  and  N2_4 
REMARK       I    between atoms: N2_4  and  C1_6 
REMARK    2  A    between atoms: C1_6  and  C2_8 
REMARK       I    between atoms: N3_10  and  C4_11 
ROOT
HETATM    1  C2  UNL     1      51.509  52.935  67.761  1.00  0.00     0.122 A 
HETATM    2  C3  UNL     1      51.971  54.114  67.170  1.00  0.00     0.141 A 
HETATM    3  N3  UNL     1      50.983  55.034  67.204  1.00  0.00    -0.226 N 
HETATM    4  C4  UNL     1      51.018  56.364  66.716  1.00  0.00     0.343 C 
HETATM    5  N4  UNL     1      52.165  56.917  66.096  1.00  0.00    -0.039 NA
HETATM    6  O2  UNL     1      49.988  57.070  66.842  1.00  0.00    -0.250 OA
HETATM    7  C5  UNL     1      49.958  54.430  67.798  1.00  0.00     0.335 A 
HETATM    8  O3  UNL     1      48.833  54.969  68.019  1.00  0.00    -0.246 OA
HETATM    9  N5  UNL     1      50.250  53.176  68.139  1.00  0.00    -0.302 N 
ATOM     10  H5  UNL     1      49.625  52.518  68.605  1.00  0.00     0.171 HD
ENDROOT
BRANCH   1  11
HETATM   11  C1  UNL     1      52.276  51.720  67.914  1.00  0.00     0.287 C 
HETATM   12  N2  UNL     1      51.924  50.776  68.905  1.00  0.00    -0.271 N 
ATOM     13  H2  UNL     1      51.123  50.966  69.507  1.00  0.00     0.189 HD
HETATM   14  O1  UNL     1      53.270  51.469  67.174  1.00  0.00    -0.264 OA
BRANCH  12  15
HETATM   15  N1  UNL     1      52.641  49.592  69.082  1.00  0.00    -0.342 N 
ATOM     16  H12 UNL     1      52.787  48.993  68.269  1.00  0.00     0.176 HD
ATOM     17  H11 UNL     1      53.016  49.319  69.991  1.00  0.00     0.176 HD
ENDBRANCH  12  15
ENDBRANCH   1  11
TORSDOF 2
ENDMDL
MODEL 3
REMARK VINA RESULT: -4.521734193      1.349      2.041
REMARK  2 active torsions:
REMARK  status: ('A' for Active; 'I' for Inactive)
REMARK    1  A    between atoms: N1_1  and  N2_4 
REMARK       I    between atoms: N2_4  and  C1_6 
REMARK    2  A    between atoms: C1_6  and  C2_8 
REMARK       I    between atoms: N3_10  and  C4_11 
ROOT
HETATM    1  C2  UNL     1      51.591  52.993  67.729  1.00  0.00     0.122 A 
HETATM    2  C3  UNL     1      52.050  54.187  67.168  1.00  0.00     0.141 A 
HETATM    3  N3  UNL     1      51.081  55.121  67.281  1.00  0.00    -0.226 N 
HETATM    4  C4  UNL     1      51.120  56.469  66.847  1.00  0.00     0.343 C 
HETATM    5  N4  UNL     1      52.249  57.029  66.201  1.00  0.00    -0.039 NA
HETATM    6  O2  UNL     1      50.109  57.187  67.045  1.00  0.00    -0.250 OA
HETATM    7  C5  UNL     1      50.071  54.510  67.893  1.00  0.00     0.335 A 
HETATM    8  O3  UNL     1      48.966  55.058  68.183  1.00  0.00    -0.246 OA
HETATM    9  N5  UNL     1      50.354  53.238  68.170  1.00  0.00    -0.302 N 
ATOM     10  H5  UNL     1      49.737  52.573  68.635  1.00  0.00     0.171 HD
ENDROOT
BRANCH   1  11
HETATM   11  C1  UNL     1      52.341  51.759  67.800  1.00  0.00     0.287 C 
HETATM   12  N2  UNL     1      53.324  51.467  66.829  1.00  0.00    -0.271 N 
ATOM     13  H2  UNL     1      53.496  52.137  66.080  1.00  0.00     0.189 HD
HETATM   14  O1  UNL     1      52.142  50.918  68.723  1.00  0.00    -0.264 OA
BRANCH  12  15
HETATM   15  N1  UNL     1      54.068  50.286  66.866  1.00  0.00    -0.342 N 
ATOM     16  H12 UNL     1      53.604  49.437  67.190  1.00  0.00     0.176 HD
ATOM     17  H11 UNL     1      55.047  50.257  66.581  1.00  0.00     0.176 HD
ENDBRANCH  12  15
ENDBRANCH   1  11
TORSDOF 2
ENDMDL
MODEL 4
REMARK VINA RESULT: -4.496819629      1.267      1.267
REMARK  2 active torsions:
REMARK  status: ('A' for Active; 'I' for Inactive)
REMARK    1  A    between atoms: N1_1  and  N2_4 
REMARK       I    between atoms: N2_4  and  C1_6 
REMARK    2  A    between atoms: C1_6  and  C2_8 
REMARK       I    between atoms: N3_10  and  C4_11 
ROOT
HETATM    1  C2  UNL     1      52.019  53.042  67.689  1.00  0.00     0.122 A 
HETATM    2  C3  UNL     1      50.725  53.567  67.681  1.00  0.00     0.141 A 
HETATM    3  N3  UNL     1      50.793  54.886  67.397  1.00  0.00    -0.226 N 
HETATM    4  C4  UNL     1      49.722  55.807  67.289  1.00  0.00     0.343 C 
HETATM    5  N4  UNL     1      48.370  55.428  67.478  1.00  0.00    -0.039 NA
HETATM    6  O2  UNL     1      49.991  57.002  67.015  1.00  0.00    -0.250 OA
HETATM    7  C5  UNL     1      52.087  55.147  67.238  1.00  0.00     0.335 A 
HETATM    8  O3  UNL     1      52.563  56.287  66.959  1.00  0.00    -0.246 OA
HETATM    9  N5  UNL     1      52.837  54.060  67.407  1.00  0.00    -0.302 N 
ATOM     10  H5  UNL     1      53.854  54.013  67.334  1.00  0.00     0.171 HD
ENDROOT
BRANCH   1  11
HETATM   11  C1  UNL     1      52.361  51.662  67.952  1.00  0.00     0.287 C 
HETATM   12  N2  UNL     1      51.671  50.936  68.948  1.00  0.00    -0.271 N 
ATOM     13  H2  UNL     1      50.932  51.399  69.477  1.00  0.00     0.189 HD
HETATM   14  O1  UNL     1      53.274  51.072  67.305  1.00  0.00    -0.264 OA
BRANCH  12  15
HETATM   15  N1  UNL     1      51.973  49.602  69.230  1.00  0.00    -0.342 N 
ATOM     16  H12 UNL     1      52.592  49.105  68.589  1.00  0.00     0.176 HD
ATOM     17  H11 UNL     1      51.595  49.125  70.048  1.00  0.00     0.176 HD
ENDBRANCH  12  15
ENDBRANCH   1  11
TORSDOF 2
ENDMDL
MODEL 5
REMARK VINA RESULT: -4.424131381      3.019      6.078
REMARK  2 active torsions:
REMARK  status: ('A' for Active; 'I' for Inactive)
REMARK    1  A    between atoms: N1_1  and  N2_4 
REMARK       I    between atoms: N2_4  and  C1_6 
REMARK    2  A    between atoms: C1_6  and  C2_8 
REMARK       I    between atoms: N3_10  and  C4_11 
ROOT
HETATM    1  C2  UNL     1      50.965  57.646  68.222  1.00  0.00     0.122 A 
HETATM    2  C3  UNL     1      52.087  56.984  67.718  1.00  0.00     0.141 A 
HETATM    3  N3  UNL     1      51.706  55.774  67.253  1.00  0.00    -0.226 N 
HETATM    4  C4  UNL     1      52.518  54.777  66.659  1.00  0.00     0.343 C 
HETATM    5  N4  UNL     1      53.912  54.942  66.472  1.00  0.00    -0.039 NA
HETATM    6  O2  UNL     1      51.972  53.709  66.288  1.00  0.00    -0.250 OA
HETATM    7  C5  UNL     1      50.395  55.710  67.469  1.00  0.00     0.335 A 
HETATM    8  O3  UNL     1      49.663  54.721  67.167  1.00  0.00    -0.246 OA
HETATM    9  N5  UNL     1      49.932  56.817  68.047  1.00  0.00    -0.302 N 
ATOM     10  H5  UNL     1      48.963  56.999  68.308  1.00  0.00     0.171 HD
ENDROOT
BRANCH   1  11
HETATM   11  C1  UNL     1      50.967  58.967  68.807  1.00  0.00     0.287 C 
HETATM   12  N2  UNL     1      50.160  59.249  69.933  1.00  0.00    -0.271 N 
ATOM     13  H2  UNL     1      49.579  58.508  70.324  1.00  0.00     0.189 HD
HETATM   14  O1  UNL     1      51.682  59.898  68.336  1.00  0.00    -0.264 OA
BRANCH  12  15
HETATM   15  N1  UNL     1      50.137  60.513  70.524  1.00  0.00    -0.342 N 
ATOM     16  H12 UNL     1      49.707  61.278  70.004  1.00  0.00     0.176 HD
ATOM     17  H11 UNL     1      50.533  60.683  71.448  1.00  0.00     0.176 HD
ENDBRANCH  12  15
ENDBRANCH   1  11
TORSDOF 2
ENDMDL
