MODEL 1
REMARK VINA RESULT: -6.036591232      0.000      0.000
REMARK  16 active torsions:
REMARK  status: ('A' for Active; 'I' for Inactive)
REMARK    1  A    between atoms: C3_4  and  O2_5 
REMARK    2  A    between atoms: O2_5  and  C4_6 
REMARK    3  A    between atoms: C5_7  and  N1_8 
REMARK    4  A    between atoms: C7_13  and  O3_14 
REMARK    5  A    between atoms: O3_14  and  C8_15 
REMARK    6  A    between atoms: C9_17  and  C10_18 
REMARK    7  A    between atoms: C10_18  and  N2_19 
REMARK    8  A    between atoms: C11_23  and  O5_24 
REMARK    9  A    between atoms: C12_29  and  N4_30 
REMARK   10  A    between atoms: C13_34  and  O6_35 
REMARK   11  A    between atoms: O6_35  and  C14_36 
REMARK   12  A    between atoms: C17_40  and  N5_41 
REMARK   13  A    between atoms: C18_45  and  O8_46 
REMARK   14  A    between atoms: C19_48  and  N6_49 
REMARK   15  A    between atoms: C20_53  and  O9_54 
REMARK   16  A    between atoms: C21_56  and  N7_57 
ROOT
HETATM    1  C4  UNL     1     -32.190 -19.144  -1.767  1.00  0.00     0.188 C 
HETATM    2  C5  UNL     1     -31.472 -20.222  -1.025  1.00  0.00     0.217 C 
HETATM    3  C6  UNL     1     -32.333 -20.576   0.201  1.00  0.00     0.070 C 
HETATM    4  C7  UNL     1     -32.113 -19.391   1.134  1.00  0.00     0.158 C 
HETATM    5  C13 UNL     1     -32.751 -18.215   0.447  1.00  0.00     0.186 C 
HETATM    6  C19 UNL     1     -32.104 -17.895  -0.870  1.00  0.00     0.245 C 
ENDROOT
BRANCH   4   7
HETATM    7  O3  UNL     1     -32.655 -19.557   2.365  1.00  0.00    -0.349 OA
BRANCH   7   8
HETATM    8  C8  UNL     1     -31.821 -19.210   3.425  1.00  0.00     0.319 C 
HETATM    9  O4  UNL     1     -30.533 -19.312   2.940  1.00  0.00    -0.346 OA
HETATM   10  C9  UNL     1     -29.524 -19.362   3.866  1.00  0.00     0.206 C 
HETATM   11  C11 UNL     1     -29.764 -20.396   4.940  1.00  0.00     0.352 C 
HETATM   12  N3  UNL     1     -30.975 -20.041   5.601  1.00  0.00    -0.013 N 
HETATM   13  C12 UNL     1     -32.108 -19.853   4.718  1.00  0.00     0.437 C 
ATOM     14  H32 UNL     1     -31.198 -20.725   6.325  1.00  0.00     0.283 HD
ATOM     15  H31 UNL     1     -30.834 -19.213   6.180  1.00  0.00     0.283 HD
BRANCH  10  16
HETATM   16  C10 UNL     1     -29.274 -17.994   4.445  1.00  0.00     0.266 C 
BRANCH  16  17
HETATM   17  N2  UNL     1     -27.909 -17.768   4.856  1.00  0.00    -0.077 N 
ATOM     18  H23 UNL     1     -27.526 -16.946   4.388  1.00  0.00     0.274 HD
ATOM     19  H22 UNL     1     -27.876 -17.448   5.824  1.00  0.00     0.274 HD
ATOM     20  H21 UNL     1     -27.296 -18.572   4.724  1.00  0.00     0.274 HD
ENDBRANCH  16  17
ENDBRANCH  10  16
BRANCH  11  21
HETATM   21  O5  UNL     1     -28.717 -20.322   5.850  1.00  0.00    -0.368 OA
ATOM     22  H5  UNL     1     -28.888 -19.595   6.438  1.00  0.00     0.212 HD
ENDBRANCH  11  21
BRANCH  13  23
HETATM   23  N4  UNL     1     -33.108 -19.083   5.484  1.00  0.00    -0.045 N 
ATOM     24  H43 UNL     1     -32.692 -18.632   6.299  1.00  0.00     0.277 HD
ATOM     25  H42 UNL     1     -33.406 -18.248   4.980  1.00  0.00     0.277 HD
ATOM     26  H41 UNL     1     -33.903 -19.668   5.744  1.00  0.00     0.277 HD
ENDBRANCH  13  23
ENDBRANCH   7   8
ENDBRANCH   4   7
BRANCH   5  27
HETATM   27  O6  UNL     1     -32.930 -17.107   1.220  1.00  0.00    -0.349 OA
BRANCH  27  28
HETATM   28  C14 UNL     1     -34.241 -16.636   1.296  1.00  0.00     0.291 C 
HETATM   29  O7  UNL     1     -34.798 -16.916   2.541  1.00  0.00    -0.352 OA
HETATM   30  C15 UNL     1     -35.477 -15.805   2.960  1.00  0.00     0.153 C 
HETATM   31  C16 UNL     1     -36.931 -15.969   2.506  1.00  0.00     0.042 C 
HETATM   32  C17 UNL     1     -34.825 -14.614   2.355  1.00  0.00     0.245 C 
HETATM   33  C18 UNL     1     -34.251 -15.169   1.066  1.00  0.00     0.206 C 
BRANCH  32  34
HETATM   34  N5  UNL     1     -35.759 -13.535   2.088  1.00  0.00    -0.070 N 
ATOM     35  H53 UNL     1     -35.689 -13.222   1.120  1.00  0.00     0.274 HD
ATOM     36  H52 UNL     1     -36.720 -13.878   2.082  1.00  0.00     0.274 HD
ATOM     37  H51 UNL     1     -35.655 -12.752   2.734  1.00  0.00     0.274 HD
ENDBRANCH  32  34
BRANCH  33  38
HETATM   38  O8  UNL     1     -35.124 -14.868   0.013  1.00  0.00    -0.388 OA
ATOM     39  H8  UNL     1     -35.860 -15.469   0.030  1.00  0.00     0.210 HD
ENDBRANCH  33  38
ENDBRANCH  27  28
ENDBRANCH   5  27
BRANCH   2  40
HETATM   40  N1  UNL     1     -31.199 -21.399  -1.808  1.00  0.00    -0.072 N 
ATOM     41  H13 UNL     1     -30.303 -21.310  -2.286  1.00  0.00     0.274 HD
ATOM     42  H12 UNL     1     -30.994 -22.192  -1.200  1.00  0.00     0.274 HD
ATOM     43  H11 UNL     1     -31.936 -21.639  -2.471  1.00  0.00     0.274 HD
ENDBRANCH   2  40
BRANCH   6  44
HETATM   44  N6  UNL     1     -32.815 -16.796  -1.464  1.00  0.00    -0.070 N 
ATOM     45  H63 UNL     1     -32.184 -16.144  -1.930  1.00  0.00     0.274 HD
ATOM     46  H62 UNL     1     -33.357 -17.090  -2.277  1.00  0.00     0.274 HD
ATOM     47  H61 UNL     1     -33.398 -16.329  -0.769  1.00  0.00     0.274 HD
ENDBRANCH   6  44
BRANCH   1  48
HETATM   48  O2  UNL     1     -31.569 -18.948  -2.977  1.00  0.00    -0.349 OA
BRANCH  48  49
HETATM   49  C3  UNL     1     -32.389 -18.988  -4.068  1.00  0.00     0.291 C 
HETATM   50  O1  UNL     1     -33.703 -18.986  -3.677  1.00  0.00    -0.352 OA
HETATM   51  C2  UNL     1     -34.409 -18.044  -4.370  1.00  0.00     0.153 C 
HETATM   52  C1  UNL     1     -35.832 -18.448  -4.684  1.00  0.00     0.042 C 
HETATM   53  C21 UNL     1     -33.613 -17.773  -5.633  1.00  0.00     0.245 C 
HETATM   54  C20 UNL     1     -32.199 -17.837  -5.030  1.00  0.00     0.206 C 
BRANCH  53  55
HETATM   55  N7  UNL     1     -33.792 -16.447  -6.140  1.00  0.00    -0.070 N 
ATOM     56  H73 UNL     1     -34.780 -16.253  -6.307  1.00  0.00     0.274 HD
ATOM     57  H72 UNL     1     -33.604 -15.753  -5.416  1.00  0.00     0.274 HD
ATOM     58  H71 UNL     1     -33.240 -16.257  -6.977  1.00  0.00     0.274 HD
ENDBRANCH  53  55
BRANCH  54  59
HETATM   59  O9  UNL     1     -32.025 -16.618  -4.385  1.00  0.00    -0.388 OA
ATOM     60  H9  UNL     1     -31.251 -16.152  -4.680  1.00  0.00     0.210 HD
ENDBRANCH  54  59
ENDBRANCH  48  49
ENDBRANCH   1  48
TORSDOF 16
ENDMDL
MODEL 2
REMARK VINA RESULT: -6.010653267      1.388      1.659
REMARK  16 active torsions:
REMARK  status: ('A' for Active; 'I' for Inactive)
REMARK    1  A    between atoms: C3_4  and  O2_5 
REMARK    2  A    between atoms: O2_5  and  C4_6 
REMARK    3  A    between atoms: C5_7  and  N1_8 
REMARK    4  A    between atoms: C7_13  and  O3_14 
REMARK    5  A    between atoms: O3_14  and  C8_15 
REMARK    6  A    between atoms: C9_17  and  C10_18 
REMARK    7  A    between atoms: C10_18  and  N2_19 
REMARK    8  A    between atoms: C11_23  and  O5_24 
REMARK    9  A    between atoms: C12_29  and  N4_30 
REMARK   10  A    between atoms: C13_34  and  O6_35 
REMARK   11  A    between atoms: O6_35  and  C14_36 
REMARK   12  A    between atoms: C17_40  and  N5_41 
REMARK   13  A    between atoms: C18_45  and  O8_46 
REMARK   14  A    between atoms: C19_48  and  N6_49 
REMARK   15  A    between atoms: C20_53  and  O9_54 
REMARK   16  A    between atoms: C21_56  and  N7_57 
ROOT
HETATM    1  C4  UNL     1     -32.178 -19.161  -1.759  1.00  0.00     0.188 C 
HETATM    2  C5  UNL     1     -31.222 -20.072  -1.063  1.00  0.00     0.217 C 
HETATM    3  C6  UNL     1     -31.964 -20.665   0.148  1.00  0.00     0.070 C 
HETATM    4  C7  UNL     1     -32.013 -19.502   1.130  1.00  0.00     0.158 C 
HETATM    5  C13 UNL     1     -32.913 -18.478   0.494  1.00  0.00     0.186 C 
HETATM    6  C19 UNL     1     -32.373 -17.963  -0.810  1.00  0.00     0.245 C 
ENDROOT
BRANCH   4   7
HETATM    7  O3  UNL     1     -32.488 -19.838   2.354  1.00  0.00    -0.349 OA
BRANCH   7   8
HETATM    8  C8  UNL     1     -31.713 -19.401   3.425  1.00  0.00     0.319 C 
HETATM    9  O4  UNL     1     -30.407 -19.422   2.977  1.00  0.00    -0.346 OA
HETATM   10  C9  UNL     1     -29.425 -19.372   3.931  1.00  0.00     0.206 C 
HETATM   11  C11 UNL     1     -29.620 -20.390   5.030  1.00  0.00     0.352 C 
HETATM   12  N3  UNL     1     -30.872 -20.106   5.647  1.00  0.00    -0.013 N 
HETATM   13  C12 UNL     1     -31.990 -20.027   4.728  1.00  0.00     0.437 C 
ATOM     14  H32 UNL     1     -31.066 -20.784   6.385  1.00  0.00     0.283 HD
ATOM     15  H31 UNL     1     -30.808 -19.254   6.204  1.00  0.00     0.283 HD
BRANCH  10  16
HETATM   16  C10 UNL     1     -29.291 -17.973   4.476  1.00  0.00     0.266 C 
BRANCH  16  17
HETATM   17  N2  UNL     1     -27.970 -17.651   4.956  1.00  0.00    -0.077 N 
ATOM     18  H23 UNL     1     -27.732 -18.228   5.763  1.00  0.00     0.274 HD
ATOM     19  H22 UNL     1     -27.261 -17.976   4.297  1.00  0.00     0.274 HD
ATOM     20  H21 UNL     1     -27.833 -16.664   5.170  1.00  0.00     0.274 HD
ENDBRANCH  16  17
ENDBRANCH  10  16
BRANCH  11  21
HETATM   21  O5  UNL     1     -28.608 -20.214   5.965  1.00  0.00    -0.368 OA
ATOM     22  H5  UNL     1     -27.985 -20.924   5.862  1.00  0.00     0.212 HD
ENDBRANCH  11  21
BRANCH  13  23
HETATM   23  N4  UNL     1     -33.065 -19.310   5.444  1.00  0.00    -0.045 N 
ATOM     24  H43 UNL     1     -33.815 -19.029   4.811  1.00  0.00     0.277 HD
ATOM     25  H42 UNL     1     -33.598 -19.937   6.047  1.00  0.00     0.277 HD
ATOM     26  H41 UNL     1     -32.694 -18.514   5.963  1.00  0.00     0.277 HD
ENDBRANCH  13  23
ENDBRANCH   7   8
ENDBRANCH   4   7
BRANCH   5  27
HETATM   27  O6  UNL     1     -33.335 -17.473   1.314  1.00  0.00    -0.349 OA
BRANCH  27  28
HETATM   28  C14 UNL     1     -34.714 -17.402   1.513  1.00  0.00     0.291 C 
HETATM   29  O7  UNL     1     -35.368 -18.420   0.824  1.00  0.00    -0.352 OA
HETATM   30  C15 UNL     1     -36.324 -18.944   1.650  1.00  0.00     0.153 C 
HETATM   31  C16 UNL     1     -37.628 -18.194   1.360  1.00  0.00     0.042 C 
HETATM   32  C17 UNL     1     -35.866 -18.763   3.053  1.00  0.00     0.245 C 
HETATM   33  C18 UNL     1     -35.008 -17.515   2.964  1.00  0.00     0.206 C 
BRANCH  32  34
HETATM   34  N5  UNL     1     -36.964 -18.576   3.984  1.00  0.00    -0.070 N 
ATOM     35  H53 UNL     1     -37.846 -18.883   3.575  1.00  0.00     0.274 HD
ATOM     36  H52 UNL     1     -36.901 -19.236   4.759  1.00  0.00     0.274 HD
ATOM     37  H51 UNL     1     -37.033 -17.617   4.326  1.00  0.00     0.274 HD
ENDBRANCH  32  34
BRANCH  33  38
HETATM   38  O8  UNL     1     -35.767 -16.412   3.373  1.00  0.00    -0.388 OA
ATOM     39  H8  UNL     1     -36.660 -16.508   3.062  1.00  0.00     0.210 HD
ENDBRANCH  33  38
ENDBRANCH  27  28
ENDBRANCH   5  27
BRANCH   2  40
HETATM   40  N1  UNL     1     -30.694 -21.122  -1.896  1.00  0.00    -0.072 N 
ATOM     41  H13 UNL     1     -30.239 -20.729  -2.719  1.00  0.00     0.274 HD
ATOM     42  H12 UNL     1     -29.890 -21.563  -1.448  1.00  0.00     0.274 HD
ATOM     43  H11 UNL     1     -31.381 -21.825  -2.168  1.00  0.00     0.274 HD
ENDBRANCH   2  40
BRANCH   6  44
HETATM   44  N6  UNL     1     -33.325 -17.035  -1.356  1.00  0.00    -0.070 N 
ATOM     45  H63 UNL     1     -33.266 -16.986  -2.373  1.00  0.00     0.274 HD
ATOM     46  H62 UNL     1     -34.281 -17.382  -1.275  1.00  0.00     0.274 HD
ATOM     47  H61 UNL     1     -33.218 -16.117  -0.925  1.00  0.00     0.274 HD
ENDBRANCH   6  44
BRANCH   1  48
HETATM   48  O2  UNL     1     -31.632 -18.778  -2.960  1.00  0.00    -0.349 OA
BRANCH  48  49
HETATM   49  C3  UNL     1     -32.434 -18.961  -4.050  1.00  0.00     0.291 C 
HETATM   50  O1  UNL     1     -33.719 -19.232  -3.657  1.00  0.00    -0.352 OA
HETATM   51  C2  UNL     1     -34.604 -18.439  -4.330  1.00  0.00     0.153 C 
HETATM   52  C1  UNL     1     -35.918 -19.116  -4.650  1.00  0.00     0.042 C 
HETATM   53  C21 UNL     1     -33.887 -17.988  -5.588  1.00  0.00     0.245 C 
HETATM   54  C20 UNL     1     -32.486 -17.777  -4.989  1.00  0.00     0.206 C 
BRANCH  53  55
HETATM   55  N7  UNL     1     -34.333 -16.716  -6.068  1.00  0.00    -0.070 N 
ATOM     56  H73 UNL     1     -35.267 -16.503  -5.717  1.00  0.00     0.274 HD
ATOM     57  H72 UNL     1     -33.811 -15.959  -5.627  1.00  0.00     0.274 HD
ATOM     58  H71 UNL     1     -34.302 -16.634  -7.084  1.00  0.00     0.274 HD
ENDBRANCH  53  55
BRANCH  54  59
HETATM   59  O9  UNL     1     -32.559 -16.561  -4.320  1.00  0.00    -0.388 OA
ATOM     60  H9  UNL     1     -32.017 -15.888  -4.717  1.00  0.00     0.210 HD
ENDBRANCH  54  59
ENDBRANCH  48  49
ENDBRANCH   1  48
TORSDOF 16
ENDMDL
MODEL 3
REMARK VINA RESULT: -5.904928917      2.864      8.312
REMARK  16 active torsions:
REMARK  status: ('A' for Active; 'I' for Inactive)
REMARK    1  A    between atoms: C3_4  and  O2_5 
REMARK    2  A    between atoms: O2_5  and  C4_6 
REMARK    3  A    between atoms: C5_7  and  N1_8 
REMARK    4  A    between atoms: C7_13  and  O3_14 
REMARK    5  A    between atoms: O3_14  and  C8_15 
REMARK    6  A    between atoms: C9_17  and  C10_18 
REMARK    7  A    between atoms: C10_18  and  N2_19 
REMARK    8  A    between atoms: C11_23  and  O5_24 
REMARK    9  A    between atoms: C12_29  and  N4_30 
REMARK   10  A    between atoms: C13_34  and  O6_35 
REMARK   11  A    between atoms: O6_35  and  C14_36 
REMARK   12  A    between atoms: C17_40  and  N5_41 
REMARK   13  A    between atoms: C18_45  and  O8_46 
REMARK   14  A    between atoms: C19_48  and  N6_49 
REMARK   15  A    between atoms: C20_53  and  O9_54 
REMARK   16  A    between atoms: C21_56  and  N7_57 
ROOT
HETATM    1  C4  UNL     1     -28.466 -18.637   4.027  1.00  0.00     0.188 C 
HETATM    2  C5  UNL     1     -29.446 -19.233   4.983  1.00  0.00     0.217 C 
HETATM    3  C6  UNL     1     -30.304 -20.232   4.186  1.00  0.00     0.070 C 
HETATM    4  C7  UNL     1     -31.218 -19.329   3.367  1.00  0.00     0.158 C 
HETATM    5  C13 UNL     1     -30.316 -18.618   2.396  1.00  0.00     0.186 C 
HETATM    6  C19 UNL     1     -29.298 -17.750   3.081  1.00  0.00     0.245 C 
ENDROOT
BRANCH   4   7
HETATM    7  O3  UNL     1     -32.187 -19.996   2.694  1.00  0.00    -0.349 OA
BRANCH   7   8
HETATM    8  C8  UNL     1     -33.489 -19.634   3.028  1.00  0.00     0.319 C 
HETATM    9  O4  UNL     1     -34.068 -19.190   1.856  1.00  0.00    -0.346 OA
HETATM   10  C9  UNL     1     -35.220 -18.458   1.974  1.00  0.00     0.206 C 
HETATM   11  C11 UNL     1     -35.097 -17.323   2.963  1.00  0.00     0.352 C 
HETATM   12  N3  UNL     1     -34.791 -17.900   4.228  1.00  0.00    -0.013 N 
HETATM   13  C12 UNL     1     -33.645 -18.787   4.222  1.00  0.00     0.437 C 
ATOM     14  H32 UNL     1     -34.672 -17.171   4.932  1.00  0.00     0.283 HD
ATOM     15  H31 UNL     1     -35.608 -18.378   4.607  1.00  0.00     0.283 HD
BRANCH  10  16
HETATM   16  C10 UNL     1     -36.385 -19.359   2.291  1.00  0.00     0.266 C 
BRANCH  16  17
HETATM   17  N2  UNL     1     -37.615 -18.986   1.635  1.00  0.00    -0.077 N 
ATOM     18  H23 UNL     1     -37.968 -18.105   2.010  1.00  0.00     0.274 HD
ATOM     19  H22 UNL     1     -37.434 -18.704   0.671  1.00  0.00     0.274 HD
ATOM     20  H21 UNL     1     -38.339 -19.703   1.667  1.00  0.00     0.274 HD
ENDBRANCH  16  17
ENDBRANCH  10  16
BRANCH  11  21
HETATM   21  O5  UNL     1     -36.330 -16.688   3.045  1.00  0.00    -0.368 OA
ATOM     22  H5  UNL     1     -36.178 -15.750   3.049  1.00  0.00     0.212 HD
ENDBRANCH  11  21
BRANCH  13  23
HETATM   23  N4  UNL     1     -33.748 -19.608   5.446  1.00  0.00    -0.045 N 
ATOM     24  H43 UNL     1     -34.207 -20.500   5.263  1.00  0.00     0.277 HD
ATOM     25  H42 UNL     1     -32.837 -19.959   5.740  1.00  0.00     0.277 HD
ATOM     26  H41 UNL     1     -34.212 -19.093   6.195  1.00  0.00     0.277 HD
ENDBRANCH  13  23
ENDBRANCH   7   8
ENDBRANCH   4   7
BRANCH   5  27
HETATM   27  O6  UNL     1     -30.943 -17.972   1.372  1.00  0.00    -0.349 OA
BRANCH  27  28
HETATM   28  C14 UNL     1     -30.800 -18.561   0.116  1.00  0.00     0.291 C 
HETATM   29  O7  UNL     1     -30.528 -19.921   0.233  1.00  0.00    -0.352 OA
HETATM   30  C15 UNL     1     -31.286 -20.586  -0.692  1.00  0.00     0.153 C 
HETATM   31  C16 UNL     1     -30.427 -20.736  -1.951  1.00  0.00     0.042 C 
HETATM   32  C17 UNL     1     -32.515 -19.787  -0.936  1.00  0.00     0.245 C 
HETATM   33  C18 UNL     1     -32.050 -18.369  -0.663  1.00  0.00     0.206 C 
BRANCH  32  34
HETATM   34  N5  UNL     1     -33.013 -19.919  -2.293  1.00  0.00    -0.070 N 
ATOM     35  H53 UNL     1     -32.270 -19.755  -2.973  1.00  0.00     0.274 HD
ATOM     36  H52 UNL     1     -33.223 -20.894  -2.511  1.00  0.00     0.274 HD
ATOM     37  H51 UNL     1     -33.818 -19.321  -2.480  1.00  0.00     0.274 HD
ENDBRANCH  32  34
BRANCH  33  38
HETATM   38  O8  UNL     1     -31.750 -17.747  -1.881  1.00  0.00    -0.388 OA
ATOM     39  H8  UNL     1     -32.229 -16.929  -1.946  1.00  0.00     0.210 HD
ENDBRANCH  33  38
ENDBRANCH  27  28
ENDBRANCH   5  27
BRANCH   2  40
HETATM   40  N1  UNL     1     -28.843 -19.879   6.120  1.00  0.00    -0.072 N 
ATOM     41  H13 UNL     1     -28.361 -19.197   6.705  1.00  0.00     0.274 HD
ATOM     42  H12 UNL     1     -29.561 -20.192   6.775  1.00  0.00     0.274 HD
ATOM     43  H11 UNL     1     -28.218 -20.649   5.881  1.00  0.00     0.274 HD
ENDBRANCH   2  40
BRANCH   6  44
HETATM   44  N6  UNL     1     -28.460 -17.160   2.073  1.00  0.00    -0.070 N 
ATOM     45  H63 UNL     1     -28.015 -16.304   2.405  1.00  0.00     0.274 HD
ATOM     46  H62 UNL     1     -27.620 -17.714   1.907  1.00  0.00     0.274 HD
ATOM     47  H61 UNL     1     -28.988 -17.005   1.214  1.00  0.00     0.274 HD
ENDBRANCH   6  44
BRANCH   1  48
HETATM   48  O2  UNL     1     -27.544 -17.904   4.735  1.00  0.00    -0.349 OA
BRANCH  48  49
HETATM   49  C3  UNL     1     -26.241 -18.255   4.534  1.00  0.00     0.291 C 
HETATM   50  O1  UNL     1     -25.434 -17.149   4.593  1.00  0.00    -0.352 OA
HETATM   51  C2  UNL     1     -24.371 -17.374   5.422  1.00  0.00     0.153 C 
HETATM   52  C1  UNL     1     -23.089 -16.706   4.975  1.00  0.00     0.042 C 
HETATM   53  C21 UNL     1     -24.217 -18.880   5.504  1.00  0.00     0.245 C 
HETATM   54  C20 UNL     1     -25.708 -19.260   5.530  1.00  0.00     0.206 C 
BRANCH  53  55
HETATM   55  N7  UNL     1     -23.650 -19.324   6.740  1.00  0.00    -0.070 N 
ATOM     56  H73 UNL     1     -24.327 -19.244   7.499  1.00  0.00     0.274 HD
ATOM     57  H72 UNL     1     -23.521 -20.336   6.737  1.00  0.00     0.274 HD
ATOM     58  H71 UNL     1     -22.780 -18.849   6.979  1.00  0.00     0.274 HD
ENDBRANCH  53  55
BRANCH  54  59
HETATM   59  O9  UNL     1     -26.123 -19.002   6.831  1.00  0.00    -0.388 OA
ATOM     60  H9  UNL     1     -25.411 -19.038   7.460  1.00  0.00     0.210 HD
ENDBRANCH  54  59
ENDBRANCH  48  49
ENDBRANCH   1  48
TORSDOF 16
ENDMDL
MODEL 4
REMARK VINA RESULT: -5.667236806      2.783      8.164
REMARK  16 active torsions:
REMARK  status: ('A' for Active; 'I' for Inactive)
REMARK    1  A    between atoms: C3_4  and  O2_5 
REMARK    2  A    between atoms: O2_5  and  C4_6 
REMARK    3  A    between atoms: C5_7  and  N1_8 
REMARK    4  A    between atoms: C7_13  and  O3_14 
REMARK    5  A    between atoms: O3_14  and  C8_15 
REMARK    6  A    between atoms: C9_17  and  C10_18 
REMARK    7  A    between atoms: C10_18  and  N2_19 
REMARK    8  A    between atoms: C11_23  and  O5_24 
REMARK    9  A    between atoms: C12_29  and  N4_30 
REMARK   10  A    between atoms: C13_34  and  O6_35 
REMARK   11  A    between atoms: O6_35  and  C14_36 
REMARK   12  A    between atoms: C17_40  and  N5_41 
REMARK   13  A    between atoms: C18_45  and  O8_46 
REMARK   14  A    between atoms: C19_48  and  N6_49 
REMARK   15  A    between atoms: C20_53  and  O9_54 
REMARK   16  A    between atoms: C21_56  and  N7_57 
ROOT
HETATM    1  C4  UNL     1     -28.909 -18.656   4.005  1.00  0.00     0.188 C 
HETATM    2  C5  UNL     1     -29.899 -19.188   4.988  1.00  0.00     0.217 C 
HETATM    3  C6  UNL     1     -30.791 -20.190   4.232  1.00  0.00     0.070 C 
HETATM    4  C7  UNL     1     -31.685 -19.291   3.387  1.00  0.00     0.158 C 
HETATM    5  C13 UNL     1     -30.769 -18.642   2.385  1.00  0.00     0.186 C 
HETATM    6  C19 UNL     1     -29.722 -17.780   3.032  1.00  0.00     0.245 C 
ENDROOT
BRANCH   4   7
HETATM    7  O3  UNL     1     -32.677 -19.954   2.745  1.00  0.00    -0.349 OA
BRANCH   7   8
HETATM    8  C8  UNL     1     -33.791 -19.180   2.430  1.00  0.00     0.319 C 
HETATM    9  O4  UNL     1     -33.920 -18.269   3.459  1.00  0.00    -0.346 OA
HETATM   10  C9  UNL     1     -35.125 -17.626   3.569  1.00  0.00     0.206 C 
HETATM   11  C11 UNL     1     -36.300 -18.575   3.557  1.00  0.00     0.352 C 
HETATM   12  N3  UNL     1     -36.265 -19.271   2.315  1.00  0.00    -0.013 N 
HETATM   13  C12 UNL     1     -35.001 -19.915   2.023  1.00  0.00     0.437 C 
ATOM     14  H32 UNL     1     -37.028 -19.946   2.264  1.00  0.00     0.283 HD
ATOM     15  H31 UNL     1     -36.532 -18.648   1.552  1.00  0.00     0.283 HD
BRANCH  10  16
HETATM   16  C10 UNL     1     -35.250 -16.559   2.513  1.00  0.00     0.266 C 
BRANCH  16  17
HETATM   17  N2  UNL     1     -35.751 -15.299   3.005  1.00  0.00    -0.077 N 
ATOM     18  H23 UNL     1     -36.556 -14.995   2.457  1.00  0.00     0.274 HD
ATOM     19  H22 UNL     1     -36.197 -15.422   3.915  1.00  0.00     0.274 HD
ATOM     20  H21 UNL     1     -35.049 -14.560   3.049  1.00  0.00     0.274 HD
ENDBRANCH  16  17
ENDBRANCH  10  16
BRANCH  11  21
HETATM   21  O5  UNL     1     -37.464 -17.819   3.616  1.00  0.00    -0.368 OA
ATOM     22  H5  UNL     1     -37.641 -17.482   2.745  1.00  0.00     0.212 HD
ENDBRANCH  11  21
BRANCH  13  23
HETATM   23  N4  UNL     1     -34.996 -20.183   0.571  1.00  0.00    -0.045 N 
ATOM     24  H43 UNL     1     -34.706 -19.363   0.038  1.00  0.00     0.277 HD
ATOM     25  H42 UNL     1     -34.240 -20.815   0.308  1.00  0.00     0.277 HD
ATOM     26  H41 UNL     1     -35.903 -20.532   0.259  1.00  0.00     0.277 HD
ENDBRANCH  13  23
ENDBRANCH   7   8
ENDBRANCH   4   7
BRANCH   5  27
HETATM   27  O6  UNL     1     -31.385 -18.016   1.343  1.00  0.00    -0.349 OA
BRANCH  27  28
HETATM   28  C14 UNL     1     -31.115 -18.547   0.082  1.00  0.00     0.291 C 
HETATM   29  O7  UNL     1     -30.961 -19.929   0.147  1.00  0.00    -0.352 OA
HETATM   30  C15 UNL     1     -31.632 -20.481  -0.909  1.00  0.00     0.153 C 
HETATM   31  C16 UNL     1     -30.623 -20.633  -2.052  1.00  0.00     0.042 C 
HETATM   32  C17 UNL     1     -32.756 -19.574  -1.263  1.00  0.00     0.245 C 
HETATM   33  C18 UNL     1     -32.230 -18.215  -0.842  1.00  0.00     0.206 C 
BRANCH  32  34
HETATM   34  N5  UNL     1     -33.072 -19.594  -2.679  1.00  0.00    -0.070 N 
ATOM     35  H53 UNL     1     -33.978 -19.161  -2.857  1.00  0.00     0.274 HD
ATOM     36  H52 UNL     1     -32.475 -18.948  -3.196  1.00  0.00     0.274 HD
ATOM     37  H51 UNL     1     -33.030 -20.531  -3.080  1.00  0.00     0.274 HD
ENDBRANCH  32  34
BRANCH  33  38
HETATM   38  O8  UNL     1     -31.723 -17.555  -1.968  1.00  0.00    -0.388 OA
ATOM     39  H8  UNL     1     -30.780 -17.670  -2.005  1.00  0.00     0.210 HD
ENDBRANCH  33  38
ENDBRANCH  27  28
ENDBRANCH   5  27
BRANCH   2  40
HETATM   40  N1  UNL     1     -29.307 -19.811   6.144  1.00  0.00    -0.072 N 
ATOM     41  H13 UNL     1     -29.939 -19.754   6.942  1.00  0.00     0.274 HD
ATOM     42  H12 UNL     1     -29.271 -20.824   6.024  1.00  0.00     0.274 HD
ATOM     43  H11 UNL     1     -28.387 -19.447   6.389  1.00  0.00     0.274 HD
ENDBRANCH   2  40
BRANCH   6  44
HETATM   44  N6  UNL     1     -28.874 -17.252   1.999  1.00  0.00    -0.070 N 
ATOM     45  H63 UNL     1     -28.429 -16.379   2.284  1.00  0.00     0.274 HD
ATOM     46  H62 UNL     1     -28.035 -17.817   1.871  1.00  0.00     0.274 HD
ATOM     47  H61 UNL     1     -29.394 -17.145   1.128  1.00  0.00     0.274 HD
ENDBRANCH   6  44
BRANCH   1  48
HETATM   48  O2  UNL     1     -27.961 -17.925   4.680  1.00  0.00    -0.349 OA
BRANCH  48  49
HETATM   49  C3  UNL     1     -26.667 -18.278   4.432  1.00  0.00     0.291 C 
HETATM   50  O1  UNL     1     -25.848 -17.182   4.518  1.00  0.00    -0.352 OA
HETATM   51  C2  UNL     1     -24.767 -17.451   5.310  1.00  0.00     0.153 C 
HETATM   52  C1  UNL     1     -23.491 -16.775   4.861  1.00  0.00     0.042 C 
HETATM   53  C21 UNL     1     -24.626 -18.961   5.324  1.00  0.00     0.245 C 
HETATM   54  C20 UNL     1     -26.119 -19.330   5.371  1.00  0.00     0.206 C 
BRANCH  53  55
HETATM   55  N7  UNL     1     -24.032 -19.462   6.526  1.00  0.00    -0.070 N 
ATOM     56  H73 UNL     1     -23.438 -20.268   6.328  1.00  0.00     0.274 HD
ATOM     57  H72 UNL     1     -23.327 -18.816   6.878  1.00  0.00     0.274 HD
ATOM     58  H71 UNL     1     -24.715 -19.685   7.250  1.00  0.00     0.274 HD
ENDBRANCH  53  55
BRANCH  54  59
HETATM   59  O9  UNL     1     -26.500 -19.124   6.692  1.00  0.00    -0.388 OA
ATOM     60  H9  UNL     1     -27.246 -19.655   6.947  1.00  0.00     0.210 HD
ENDBRANCH  54  59
ENDBRANCH  48  49
ENDBRANCH   1  48
TORSDOF 16
ENDMDL
MODEL 5
REMARK VINA RESULT: -5.645024819      1.471      2.065
REMARK  16 active torsions:
REMARK  status: ('A' for Active; 'I' for Inactive)
REMARK    1  A    between atoms: C3_4  and  O2_5 
REMARK    2  A    between atoms: O2_5  and  C4_6 
REMARK    3  A    between atoms: C5_7  and  N1_8 
REMARK    4  A    between atoms: C7_13  and  O3_14 
REMARK    5  A    between atoms: O3_14  and  C8_15 
REMARK    6  A    between atoms: C9_17  and  C10_18 
REMARK    7  A    between atoms: C10_18  and  N2_19 
REMARK    8  A    between atoms: C11_23  and  O5_24 
REMARK    9  A    between atoms: C12_29  and  N4_30 
REMARK   10  A    between atoms: C13_34  and  O6_35 
REMARK   11  A    between atoms: O6_35  and  C14_36 
REMARK   12  A    between atoms: C17_40  and  N5_41 
REMARK   13  A    between atoms: C18_45  and  O8_46 
REMARK   14  A    between atoms: C19_48  and  N6_49 
REMARK   15  A    between atoms: C20_53  and  O9_54 
REMARK   16  A    between atoms: C21_56  and  N7_57 
ROOT
HETATM    1  C4  UNL     1     -33.292 -19.639  -2.263  1.00  0.00     0.188 C 
HETATM    2  C5  UNL     1     -32.009 -19.901  -1.546  1.00  0.00     0.217 C 
HETATM    3  C6  UNL     1     -32.364 -20.637  -0.242  1.00  0.00     0.070 C 
HETATM    4  C7  UNL     1     -32.957 -19.536   0.629  1.00  0.00     0.158 C 
HETATM    5  C13 UNL     1     -34.244 -19.144  -0.043  1.00  0.00     0.186 C 
HETATM    6  C19 UNL     1     -34.029 -18.582  -1.420  1.00  0.00     0.245 C 
ENDROOT
BRANCH   4   7
HETATM    7  O3  UNL     1     -33.201 -19.920   1.905  1.00  0.00    -0.349 OA
BRANCH   7   8
HETATM    8  C8  UNL     1     -32.378 -19.332   2.862  1.00  0.00     0.319 C 
HETATM    9  O4  UNL     1     -31.088 -19.675   2.513  1.00  0.00    -0.346 OA
HETATM   10  C9  UNL     1     -30.124 -19.518   3.473  1.00  0.00     0.206 C 
HETATM   11  C11 UNL     1     -30.498 -20.153   4.791  1.00  0.00     0.352 C 
HETATM   12  N3  UNL     1     -31.694 -19.522   5.237  1.00  0.00    -0.013 N 
HETATM   13  C12 UNL     1     -32.772 -19.525   4.268  1.00  0.00     0.437 C 
ATOM     14  H32 UNL     1     -32.006 -19.932   6.117  1.00  0.00     0.283 HD
ATOM     15  H31 UNL     1     -31.498 -18.570   5.547  1.00  0.00     0.283 HD
BRANCH  10  16
HETATM   16  C10 UNL     1     -29.769 -18.062   3.628  1.00  0.00     0.266 C 
BRANCH  16  17
HETATM   17  N2  UNL     1     -28.401 -17.827   4.021  1.00  0.00    -0.077 N 
ATOM     18  H23 UNL     1     -27.849 -17.512   3.222  1.00  0.00     0.274 HD
ATOM     19  H22 UNL     1     -28.337 -16.999   4.613  1.00  0.00     0.274 HD
ATOM     20  H21 UNL     1     -27.953 -18.625   4.472  1.00  0.00     0.274 HD
ENDBRANCH  16  17
ENDBRANCH  10  16
BRANCH  11  21
HETATM   21  O5  UNL     1     -29.483 -19.886   5.701  1.00  0.00    -0.368 OA
ATOM     22  H5  UNL     1     -29.474 -18.950   5.867  1.00  0.00     0.212 HD
ENDBRANCH  11  21
BRANCH  13  23
HETATM   23  N4  UNL     1     -33.724 -18.483   4.702  1.00  0.00    -0.045 N 
ATOM     24  H43 UNL     1     -33.475 -17.567   4.328  1.00  0.00     0.277 HD
ATOM     25  H42 UNL     1     -34.632 -18.593   4.251  1.00  0.00     0.277 HD
ATOM     26  H41 UNL     1     -33.809 -18.464   5.719  1.00  0.00     0.277 HD
ENDBRANCH  13  23
ENDBRANCH   7   8
ENDBRANCH   4   7
BRANCH   5  27
HETATM   27  O6  UNL     1     -35.089 -18.377   0.703  1.00  0.00    -0.349 OA
BRANCH  27  28
HETATM   28  C14 UNL     1     -34.958 -17.000   0.530  1.00  0.00     0.291 C 
HETATM   29  O7  UNL     1     -36.190 -16.415   0.248  1.00  0.00    -0.352 OA
HETATM   30  C15 UNL     1     -36.290 -15.264   0.981  1.00  0.00     0.153 C 
HETATM   31  C16 UNL     1     -35.781 -14.123   0.095  1.00  0.00     0.042 C 
HETATM   32  C17 UNL     1     -35.474 -15.433   2.212  1.00  0.00     0.245 C 
HETATM   33  C18 UNL     1     -34.394 -16.399   1.765  1.00  0.00     0.206 C 
BRANCH  32  34
HETATM   34  N5  UNL     1     -34.898 -14.186   2.681  1.00  0.00    -0.070 N 
ATOM     35  H53 UNL     1     -34.982 -13.456   1.974  1.00  0.00     0.274 HD
ATOM     36  H52 UNL     1     -35.472 -13.772   3.415  1.00  0.00     0.274 HD
ATOM     37  H51 UNL     1     -33.930 -14.288   2.987  1.00  0.00     0.274 HD
ENDBRANCH  32  34
BRANCH  33  38
HETATM   38  O8  UNL     1     -33.240 -15.673   1.446  1.00  0.00    -0.388 OA
ATOM     39  H8  UNL     1     -32.727 -15.530   2.233  1.00  0.00     0.210 HD
ENDBRANCH  33  38
ENDBRANCH  27  28
ENDBRANCH   5  27
BRANCH   2  40
HETATM   40  N1  UNL     1     -31.049 -20.657  -2.308  1.00  0.00    -0.072 N 
ATOM     41  H13 UNL     1     -30.150 -20.177  -2.326  1.00  0.00     0.274 HD
ATOM     42  H12 UNL     1     -30.783 -21.505  -1.806  1.00  0.00     0.274 HD
ATOM     43  H11 UNL     1     -31.353 -20.884  -3.255  1.00  0.00     0.274 HD
ENDBRANCH   2  40
BRANCH   6  44
HETATM   44  N6  UNL     1     -35.315 -18.287  -1.990  1.00  0.00    -0.070 N 
ATOM     45  H63 UNL     1     -35.929 -17.822  -1.321  1.00  0.00     0.274 HD
ATOM     46  H62 UNL     1     -35.260 -17.545  -2.688  1.00  0.00     0.274 HD
ATOM     47  H61 UNL     1     -35.741 -19.133  -2.371  1.00  0.00     0.274 HD
ENDBRANCH   6  44
BRANCH   1  48
HETATM   48  O2  UNL     1     -33.009 -19.179  -3.527  1.00  0.00    -0.349 OA
BRANCH  48  49
HETATM   49  C3  UNL     1     -32.198 -18.082  -3.579  1.00  0.00     0.291 C 
HETATM   50  O1  UNL     1     -31.083 -18.348  -4.330  1.00  0.00    -0.352 OA
HETATM   51  C2  UNL     1     -30.878 -17.360  -5.252  1.00  0.00     0.153 C 
HETATM   52  C1  UNL     1     -29.420 -17.059  -5.518  1.00  0.00     0.042 C 
HETATM   53  C21 UNL     1     -31.614 -16.141  -4.729  1.00  0.00     0.245 C 
HETATM   54  C20 UNL     1     -32.856 -16.851  -4.163  1.00  0.00     0.206 C 
BRANCH  53  55
HETATM   55  N7  UNL     1     -32.067 -15.266  -5.766  1.00  0.00    -0.070 N 
ATOM     56  H73 UNL     1     -31.735 -15.582  -6.677  1.00  0.00     0.274 HD
ATOM     57  H72 UNL     1     -33.072 -15.365  -5.910  1.00  0.00     0.274 HD
ATOM     58  H71 UNL     1     -31.818 -14.290  -5.608  1.00  0.00     0.274 HD
ENDBRANCH  53  55
BRANCH  54  59
HETATM   59  O9  UNL     1     -33.646 -17.136  -5.271  1.00  0.00    -0.388 OA
ATOM     60  H9  UNL     1     -33.798 -16.375  -5.821  1.00  0.00     0.210 HD
ENDBRANCH  54  59
ENDBRANCH  48  49
ENDBRANCH   1  48
TORSDOF 16
ENDMDL
