MODEL 1
REMARK VINA RESULT: -8.455614896      0.000      0.000
REMARK  16 active torsions:
REMARK  status: ('A' for Active; 'I' for Inactive)
REMARK    1  A    between atoms: N1_1  and  C1_4 
REMARK    2  A    between atoms: C3_8  and  C4_9 
REMARK    3  A    between atoms: C4_9  and  N3_10 
REMARK    4  A    between atoms: C5_13  and  C6_14 
REMARK       I    between atoms: C6_14  and  N5_16 
REMARK    5  A    between atoms: N5_16  and  N6_18 
REMARK    6  A    between atoms: N6_18  and  C7_20 
REMARK    7  A    between atoms: C8_23  and  N8_24 
REMARK    8  A    between atoms: C9_29  and  N10_30 
REMARK    9  A    between atoms: C11_36  and  O2_37 
REMARK   10  A    between atoms: C12_39  and  C13_40 
REMARK       I    between atoms: C13_40  and  N12_42 
REMARK   11  A    between atoms: N12_42  and  O4_44 
REMARK   12  A    between atoms: O4_44  and  C14_45 
REMARK   13  A    between atoms: C14_45  and  C15_46 
REMARK   14  A    between atoms: C15_46  and  O5_47 
REMARK   15  A    between atoms: C15_46  and  C16_49 
REMARK   16  A    between atoms: C16_49  and  O6_50 
ROOT
HETATM    1  N3  UNL     1     -32.363 -19.905   2.744  1.00  0.00    -0.207 N 
HETATM    2  N4  UNL     1     -33.104 -20.448   3.659  1.00  0.00    -0.275 N 
ATOM      3  H4  UNL     1     -34.019 -20.863   3.485  1.00  0.00     0.189 HD
HETATM    4  C5  UNL     1     -32.504 -20.396   4.889  1.00  0.00     0.152 A 
HETATM    5  C10 UNL     1     -31.309 -19.762   4.657  1.00  0.00     0.145 A 
HETATM    6  C11 UNL     1     -30.133 -19.275   5.209  1.00  0.00     0.133 A 
HETATM    7  C12 UNL     1     -29.384 -18.703   4.199  1.00  0.00     0.155 A 
HETATM    8  N13 UNL     1     -30.150 -18.872   3.083  1.00  0.00    -0.270 N 
ATOM      9  H13 UNL     1     -29.876 -18.556   2.152  1.00  0.00     0.189 HD
HETATM   10  N14 UNL     1     -31.267 -19.483   3.341  1.00  0.00    -0.174 N 
ENDROOT
BRANCH   4  11
HETATM   11  C6  UNL     1     -33.090 -20.890   6.109  1.00  0.00     0.291 C 
HETATM   12  O1  UNL     1     -34.382 -20.860   6.155  1.00  0.00    -0.264 OA
HETATM   13  N5  UNL     1     -32.450 -21.400   7.241  1.00  0.00    -0.250 N 
ATOM     14  H5  UNL     1     -31.432 -21.457   7.263  1.00  0.00     0.191 HD
BRANCH  13  15
HETATM   15  N6  UNL     1     -33.209 -21.841   8.369  1.00  0.00    -0.128 N 
ATOM     16  H6  UNL     1     -34.019 -21.314   8.697  1.00  0.00     0.205 HD
BRANCH  15  17
HETATM   17  C7  UNL     1     -32.838 -22.923   8.960  1.00  0.00     0.726 A 
HETATM   18  N7  UNL     1     -33.015 -23.017  10.301  1.00  0.00    -0.020 N 
HETATM   19  C8  UNL     1     -32.638 -24.128  10.940  1.00  0.00     0.705 A 
ATOM     20  H7  UNL     1     -33.434 -22.244  10.819  1.00  0.00     0.203 HD
HETATM   21  N9  UNL     1     -32.083 -25.179  10.312  1.00  0.00    -0.022 N 
HETATM   22  C9  UNL     1     -31.905 -25.089   8.987  1.00  0.00     0.705 A 
ATOM     23  H9  UNL     1     -31.806 -26.015  10.826  1.00  0.00     0.203 HD
HETATM   24  N11 UNL     1     -32.279 -23.978   8.331  1.00  0.00    -0.020 N 
ATOM     25  H11 UNL     1     -32.136 -23.930   7.322  1.00  0.00     0.203 HD
BRANCH  19  26
HETATM   26  N8  UNL     1     -32.820 -24.193  12.222  1.00  0.00    -0.234 N 
ATOM     27  H82 UNL     1     -33.769 -24.306  12.577  1.00  0.00     0.174 HD
ATOM     28  H81 UNL     1     -32.004 -24.127  12.831  1.00  0.00     0.174 HD
ENDBRANCH  19  26
BRANCH  22  29
HETATM   29  N10 UNL     1     -31.374 -26.090   8.377  1.00  0.00    -0.234 N 
ATOM     30 2H10 UNL     1     -30.608 -26.623   8.787  1.00  0.00     0.174 HD
ATOM     31 1H10 UNL     1     -31.741 -26.343   7.460  1.00  0.00     0.174 HD
ENDBRANCH  22  29
ENDBRANCH  15  17
ENDBRANCH  13  15
ENDBRANCH   4  11
BRANCH   1  32
HETATM   32  C4  UNL     1     -32.651 -19.764   1.307  1.00  0.00     0.213 C 
BRANCH  32  33
HETATM   33  C3  UNL     1     -33.132 -18.377   1.066  1.00  0.00    -0.005 A 
HETATM   34  C2  UNL     1     -32.419 -17.480   0.297  1.00  0.00     0.116 A 
HETATM   35  N2  UNL     1     -32.891 -16.229   0.103  1.00  0.00    -0.202 N 
HETATM   36  C1  UNL     1     -34.049 -15.792   0.631  1.00  0.00     0.675 A 
ATOM     37  H2  UNL     1     -32.344 -15.586  -0.470  1.00  0.00     0.183 HD
HETATM   38  N15 UNL     1     -34.743 -16.669   1.380  1.00  0.00    -0.202 N 
HETATM   39  C17 UNL     1     -34.325 -17.926   1.609  1.00  0.00     0.116 A 
ATOM     40  H15 UNL     1     -35.625 -16.365   1.792  1.00  0.00     0.183 HD
BRANCH  36  41
HETATM   41  N1  UNL     1     -34.504 -14.597   0.448  1.00  0.00    -0.234 N 
ATOM     42  H12 UNL     1     -33.921 -13.894  -0.005  1.00  0.00     0.174 HD
ATOM     43  H11 UNL     1     -35.436 -14.304   0.737  1.00  0.00     0.174 HD
ENDBRANCH  36  41
ENDBRANCH  32  33
ENDBRANCH   1  32
BRANCH   6  44
HETATM   44  O2  UNL     1     -29.761 -19.340   6.522  1.00  0.00    -0.356 OA
ATOM     45  H2  UNL     1     -29.077 -19.886   6.892  1.00  0.00     0.218 HD
ENDBRANCH   6  44
BRANCH   7  46
HETATM   46  C13 UNL     1     -28.092 -18.055   4.208  1.00  0.00     0.296 C 
HETATM   47  O3  UNL     1     -27.590 -17.627   3.140  1.00  0.00    -0.264 OA
HETATM   48  N12 UNL     1     -27.358 -17.881   5.403  1.00  0.00    -0.229 N 
ATOM     49  H12 UNL     1     -27.742 -18.219   6.285  1.00  0.00     0.198 HD
BRANCH  48  50
HETATM   50  O4  UNL     1     -26.132 -17.261   5.385  1.00  0.00    -0.275 OA
BRANCH  50  51
HETATM   51  C14 UNL     1     -25.132 -18.184   5.050  1.00  0.00     0.235 C 
BRANCH  51  52
HETATM   52  C15 UNL     1     -24.253 -18.318   6.284  1.00  0.00     0.167 C 
BRANCH  52  53
HETATM   53  O5  UNL     1     -25.064 -18.749   7.313  1.00  0.00    -0.391 OA
ATOM     54  H5  UNL     1     -24.587 -18.606   8.122  1.00  0.00     0.210 HD
ENDBRANCH  52  53
BRANCH  52  55
HETATM   55  C16 UNL     1     -23.223 -19.391   5.988  1.00  0.00     0.198 C 
BRANCH  55  56
HETATM   56  O6  UNL     1     -23.837 -20.340   5.165  1.00  0.00    -0.398 OA
ATOM     57  H6  UNL     1     -24.174 -19.878   4.406  1.00  0.00     0.209 HD
ENDBRANCH  55  56
ENDBRANCH  52  55
ENDBRANCH  51  52
ENDBRANCH  50  51
ENDBRANCH  48  50
ENDBRANCH   7  46
TORSDOF 16
ENDMDL
MODEL 2
REMARK VINA RESULT: -8.358371165      1.479      1.957
REMARK  16 active torsions:
REMARK  status: ('A' for Active; 'I' for Inactive)
REMARK    1  A    between atoms: N1_1  and  C1_4 
REMARK    2  A    between atoms: C3_8  and  C4_9 
REMARK    3  A    between atoms: C4_9  and  N3_10 
REMARK    4  A    between atoms: C5_13  and  C6_14 
REMARK       I    between atoms: C6_14  and  N5_16 
REMARK    5  A    between atoms: N5_16  and  N6_18 
REMARK    6  A    between atoms: N6_18  and  C7_20 
REMARK    7  A    between atoms: C8_23  and  N8_24 
REMARK    8  A    between atoms: C9_29  and  N10_30 
REMARK    9  A    between atoms: C11_36  and  O2_37 
REMARK   10  A    between atoms: C12_39  and  C13_40 
REMARK       I    between atoms: C13_40  and  N12_42 
REMARK   11  A    between atoms: N12_42  and  O4_44 
REMARK   12  A    between atoms: O4_44  and  C14_45 
REMARK   13  A    between atoms: C14_45  and  C15_46 
REMARK   14  A    between atoms: C15_46  and  O5_47 
REMARK   15  A    between atoms: C15_46  and  C16_49 
REMARK   16  A    between atoms: C16_49  and  O6_50 
ROOT
HETATM    1  N3  UNL     1     -30.606 -18.607   2.688  1.00  0.00    -0.207 N 
HETATM    2  N4  UNL     1     -31.640 -19.244   3.145  1.00  0.00    -0.275 N 
ATOM      3  H4  UNL     1     -32.510 -19.371   2.628  1.00  0.00     0.189 HD
HETATM    4  C5  UNL     1     -31.416 -19.725   4.407  1.00  0.00     0.152 A 
HETATM    5  C10 UNL     1     -30.137 -19.324   4.701  1.00  0.00     0.145 A 
HETATM    6  C11 UNL     1     -29.119 -19.311   5.644  1.00  0.00     0.133 A 
HETATM    7  C12 UNL     1     -28.048 -18.618   5.114  1.00  0.00     0.155 A 
HETATM    8  N13 UNL     1     -28.475 -18.245   3.873  1.00  0.00    -0.270 N 
ATOM      9  H13 UNL     1     -27.909 -17.711   3.214  1.00  0.00     0.189 HD
HETATM   10  N14 UNL     1     -29.685 -18.650   3.629  1.00  0.00    -0.174 N 
ENDROOT
BRANCH   4  11
HETATM   11  C6  UNL     1     -32.384 -20.450   5.192  1.00  0.00     0.291 C 
HETATM   12  O1  UNL     1     -33.504 -20.701   4.596  1.00  0.00    -0.264 OA
HETATM   13  N5  UNL     1     -32.271 -20.918   6.503  1.00  0.00    -0.250 N 
ATOM     14  H5  UNL     1     -31.409 -20.758   7.023  1.00  0.00     0.191 HD
BRANCH  13  15
HETATM   15  N6  UNL     1     -33.352 -21.619   7.121  1.00  0.00    -0.128 N 
ATOM     16  H6  UNL     1     -34.320 -21.429   6.859  1.00  0.00     0.205 HD
BRANCH  15  17
HETATM   17  C7  UNL     1     -33.067 -22.497   8.018  1.00  0.00     0.726 A 
HETATM   18  N7  UNL     1     -33.344 -22.205   9.314  1.00  0.00    -0.020 N 
HETATM   19  C8  UNL     1     -33.058 -23.096  10.266  1.00  0.00     0.705 A 
ATOM     20  H7  UNL     1     -33.769 -21.310   9.559  1.00  0.00     0.203 HD
HETATM   21  N9  UNL     1     -32.500 -24.291  10.005  1.00  0.00    -0.022 N 
HETATM   22  C9  UNL     1     -32.224 -24.582   8.726  1.00  0.00     0.705 A 
ATOM     23  H9  UNL     1     -32.294 -24.953  10.753  1.00  0.00     0.203 HD
HETATM   24  N11 UNL     1     -32.507 -23.695   7.758  1.00  0.00    -0.020 N 
ATOM     25  H11 UNL     1     -32.289 -23.937   6.790  1.00  0.00     0.203 HD
BRANCH  19  26
HETATM   26  N8  UNL     1     -33.333 -22.794  11.496  1.00  0.00    -0.234 N 
ATOM     27  H82 UNL     1     -33.984 -22.029  11.679  1.00  0.00     0.174 HD
ATOM     28  H81 UNL     1     -32.887 -23.331  12.240  1.00  0.00     0.174 HD
ENDBRANCH  19  26
BRANCH  22  29
HETATM   29  N10 UNL     1     -31.690 -25.723   8.466  1.00  0.00    -0.234 N 
ATOM     30 2H10 UNL     1     -30.703 -25.909   8.645  1.00  0.00     0.174 HD
ATOM     31 1H10 UNL     1     -32.284 -26.452   8.069  1.00  0.00     0.174 HD
ENDBRANCH  22  29
ENDBRANCH  15  17
ENDBRANCH  13  15
ENDBRANCH   4  11
BRANCH   1  32
HETATM   32  C4  UNL     1     -30.450 -17.948   1.380  1.00  0.00     0.213 C 
BRANCH  32  33
HETATM   33  C3  UNL     1     -31.646 -18.269   0.556  1.00  0.00    -0.005 A 
HETATM   34  C2  UNL     1     -31.749 -19.446  -0.156  1.00  0.00     0.116 A 
HETATM   35  N2  UNL     1     -32.852 -19.700  -0.892  1.00  0.00    -0.202 N 
HETATM   36  C1  UNL     1     -33.890 -18.847  -0.976  1.00  0.00     0.675 A 
ATOM     37  H2  UNL     1     -32.902 -20.578  -1.409  1.00  0.00     0.183 HD
HETATM   38  N15 UNL     1     -33.788 -17.699  -0.281  1.00  0.00    -0.202 N 
HETATM   39  C17 UNL     1     -32.715 -17.391   0.470  1.00  0.00     0.116 A 
ATOM     40  H15 UNL     1     -34.560 -17.034  -0.325  1.00  0.00     0.183 HD
BRANCH  36  41
HETATM   41  N1  UNL     1     -34.947 -19.085  -1.679  1.00  0.00    -0.234 N 
ATOM     42  H12 UNL     1     -34.913 -19.770  -2.434  1.00  0.00     0.174 HD
ATOM     43  H11 UNL     1     -35.839 -18.617  -1.522  1.00  0.00     0.174 HD
ENDBRANCH  36  41
ENDBRANCH  32  33
ENDBRANCH   1  32
BRANCH   6  44
HETATM   44  O2  UNL     1     -29.151 -19.877   6.887  1.00  0.00    -0.356 OA
ATOM     45  H2  UNL     1     -29.243 -20.802   7.087  1.00  0.00     0.218 HD
ENDBRANCH   6  44
BRANCH   7  46
HETATM   46  C13 UNL     1     -26.744 -18.304   5.653  1.00  0.00     0.296 C 
HETATM   47  O3  UNL     1     -26.304 -18.925   6.652  1.00  0.00    -0.264 OA
HETATM   48  N12 UNL     1     -25.928 -17.301   5.084  1.00  0.00    -0.229 N 
ATOM     49  H12 UNL     1     -26.259 -16.781   4.271  1.00  0.00     0.198 HD
BRANCH  48  50
HETATM   50  O4  UNL     1     -24.691 -17.022   5.615  1.00  0.00    -0.275 OA
BRANCH  50  51
HETATM   51  C14 UNL     1     -23.708 -17.783   4.967  1.00  0.00     0.235 C 
BRANCH  51  52
HETATM   52  C15 UNL     1     -22.969 -18.537   6.062  1.00  0.00     0.167 C 
BRANCH  52  53
HETATM   53  O5  UNL     1     -23.656 -18.317   7.237  1.00  0.00    -0.391 OA
ATOM     54  H5  UNL     1     -23.305 -17.522   7.620  1.00  0.00     0.210 HD
ENDBRANCH  52  53
BRANCH  52  55
HETATM   55  C16 UNL     1     -23.040 -20.011   5.719  1.00  0.00     0.198 C 
BRANCH  55  56
HETATM   56  O6  UNL     1     -24.203 -20.207   4.969  1.00  0.00    -0.398 OA
ATOM     57  H6  UNL     1     -24.880 -20.501   5.569  1.00  0.00     0.209 HD
ENDBRANCH  55  56
ENDBRANCH  52  55
ENDBRANCH  51  52
ENDBRANCH  50  51
ENDBRANCH  48  50
ENDBRANCH   7  46
TORSDOF 16
ENDMDL
MODEL 3
REMARK VINA RESULT: -8.330234005      1.452      2.263
REMARK  16 active torsions:
REMARK  status: ('A' for Active; 'I' for Inactive)
REMARK    1  A    between atoms: N1_1  and  C1_4 
REMARK    2  A    between atoms: C3_8  and  C4_9 
REMARK    3  A    between atoms: C4_9  and  N3_10 
REMARK    4  A    between atoms: C5_13  and  C6_14 
REMARK       I    between atoms: C6_14  and  N5_16 
REMARK    5  A    between atoms: N5_16  and  N6_18 
REMARK    6  A    between atoms: N6_18  and  C7_20 
REMARK    7  A    between atoms: C8_23  and  N8_24 
REMARK    8  A    between atoms: C9_29  and  N10_30 
REMARK    9  A    between atoms: C11_36  and  O2_37 
REMARK   10  A    between atoms: C12_39  and  C13_40 
REMARK       I    between atoms: C13_40  and  N12_42 
REMARK   11  A    between atoms: N12_42  and  O4_44 
REMARK   12  A    between atoms: O4_44  and  C14_45 
REMARK   13  A    between atoms: C14_45  and  C15_46 
REMARK   14  A    between atoms: C15_46  and  O5_47 
REMARK   15  A    between atoms: C15_46  and  C16_49 
REMARK   16  A    between atoms: C16_49  and  O6_50 
ROOT
HETATM    1  N3  UNL     1     -30.720 -18.659   2.694  1.00  0.00    -0.207 N 
HETATM    2  N4  UNL     1     -31.759 -19.266   3.178  1.00  0.00    -0.275 N 
ATOM      3  H4  UNL     1     -32.635 -19.397   2.673  1.00  0.00     0.189 HD
HETATM    4  C5  UNL     1     -31.532 -19.711   4.453  1.00  0.00     0.152 A 
HETATM    5  C10 UNL     1     -30.245 -19.321   4.725  1.00  0.00     0.145 A 
HETATM    6  C11 UNL     1     -29.219 -19.293   5.659  1.00  0.00     0.133 A 
HETATM    7  C12 UNL     1     -28.142 -18.633   5.099  1.00  0.00     0.155 A 
HETATM    8  N13 UNL     1     -28.574 -18.292   3.852  1.00  0.00    -0.270 N 
ATOM      9  H13 UNL     1     -28.006 -17.786   3.171  1.00  0.00     0.189 HD
HETATM   10  N14 UNL     1     -29.792 -18.686   3.629  1.00  0.00    -0.174 N 
ENDROOT
BRANCH   4  11
HETATM   11  C6  UNL     1     -32.503 -20.397   5.267  1.00  0.00     0.291 C 
HETATM   12  O1  UNL     1     -33.712 -20.394   4.809  1.00  0.00    -0.264 OA
HETATM   13  N5  UNL     1     -32.312 -21.066   6.478  1.00  0.00    -0.250 N 
ATOM     14  H5  UNL     1     -31.379 -21.111   6.888  1.00  0.00     0.191 HD
BRANCH  13  15
HETATM   15  N6  UNL     1     -33.411 -21.688   7.148  1.00  0.00    -0.128 N 
ATOM     16  H6  UNL     1     -34.373 -21.496   6.869  1.00  0.00     0.205 HD
BRANCH  15  17
HETATM   17  C7  UNL     1     -33.148 -22.496   8.115  1.00  0.00     0.726 A 
HETATM   18  N7  UNL     1     -32.567 -23.685   7.819  1.00  0.00    -0.020 N 
HETATM   19  C8  UNL     1     -32.284 -24.544   8.802  1.00  0.00     0.705 A 
ATOM     20  H7  UNL     1     -32.347 -23.922   6.851  1.00  0.00     0.203 HD
HETATM   21  N9  UNL     1     -32.549 -24.288  10.095  1.00  0.00    -0.022 N 
HETATM   22  C9  UNL     1     -33.124 -23.115  10.391  1.00  0.00     0.705 A 
ATOM     23  H9  UNL     1     -32.320 -24.963  10.825  1.00  0.00     0.203 HD
HETATM   24  N11 UNL     1     -33.415 -22.241   9.412  1.00  0.00    -0.020 N 
ATOM     25  H11 UNL     1     -33.852 -21.353   9.659  1.00  0.00     0.203 HD
BRANCH  19  26
HETATM   26  N8  UNL     1     -31.727 -25.673   8.492  1.00  0.00    -0.234 N 
ATOM     27  H82 UNL     1     -31.585 -25.895   7.507  1.00  0.00     0.174 HD
ATOM     28  H81 UNL     1     -31.452 -26.302   9.247  1.00  0.00     0.174 HD
ENDBRANCH  19  26
BRANCH  22  29
HETATM   29  N10 UNL     1     -33.382 -22.860  11.625  1.00  0.00    -0.234 N 
ATOM     30 2H10 UNL     1     -33.116 -23.501  12.373  1.00  0.00     0.174 HD
ATOM     31 1H10 UNL     1     -33.868 -21.991  11.845  1.00  0.00     0.174 HD
ENDBRANCH  22  29
ENDBRANCH  15  17
ENDBRANCH  13  15
ENDBRANCH   4  11
BRANCH   1  32
HETATM   32  C4  UNL     1     -30.565 -18.043   1.366  1.00  0.00     0.213 C 
BRANCH  32  33
HETATM   33  C3  UNL     1     -31.798 -18.321   0.582  1.00  0.00    -0.005 A 
HETATM   34  C2  UNL     1     -31.938 -19.462  -0.181  1.00  0.00     0.116 A 
HETATM   35  N2  UNL     1     -33.074 -19.677  -0.878  1.00  0.00    -0.202 N 
HETATM   36  C1  UNL     1     -34.111 -18.818  -0.874  1.00  0.00     0.675 A 
ATOM     37  H2  UNL     1     -33.151 -20.529  -1.434  1.00  0.00     0.183 HD
HETATM   38  N15 UNL     1     -33.973 -17.706  -0.130  1.00  0.00    -0.202 N 
HETATM   39  C17 UNL     1     -32.866 -17.437   0.585  1.00  0.00     0.116 A 
ATOM     40  H15 UNL     1     -34.743 -17.037  -0.107  1.00  0.00     0.183 HD
BRANCH  36  41
HETATM   41  N1  UNL     1     -35.199 -19.019  -1.540  1.00  0.00    -0.234 N 
ATOM     42  H12 UNL     1     -35.412 -18.443  -2.354  1.00  0.00     0.174 HD
ATOM     43  H11 UNL     1     -35.878 -19.739  -1.296  1.00  0.00     0.174 HD
ENDBRANCH  36  41
ENDBRANCH  32  33
ENDBRANCH   1  32
BRANCH   6  44
HETATM   44  O2  UNL     1     -29.249 -19.820   6.919  1.00  0.00    -0.356 OA
ATOM     45  H2  UNL     1     -28.754 -20.568   7.233  1.00  0.00     0.218 HD
ENDBRANCH   6  44
BRANCH   7  46
HETATM   46  C13 UNL     1     -26.830 -18.321   5.619  1.00  0.00     0.296 C 
HETATM   47  O3  UNL     1     -26.363 -18.965   6.590  1.00  0.00    -0.264 OA
HETATM   48  N12 UNL     1     -26.035 -17.296   5.059  1.00  0.00    -0.229 N 
ATOM     49  H12 UNL     1     -26.389 -16.757   4.269  1.00  0.00     0.198 HD
BRANCH  48  50
HETATM   50  O4  UNL     1     -24.789 -17.020   5.571  1.00  0.00    -0.275 OA
BRANCH  50  51
HETATM   51  C14 UNL     1     -23.817 -17.774   4.900  1.00  0.00     0.235 C 
BRANCH  51  52
HETATM   52  C15 UNL     1     -23.023 -18.494   5.981  1.00  0.00     0.167 C 
BRANCH  52  53
HETATM   53  O5  UNL     1     -23.671 -18.267   7.176  1.00  0.00    -0.391 OA
ATOM     54  H5  UNL     1     -23.557 -19.046   7.707  1.00  0.00     0.210 HD
ENDBRANCH  52  53
BRANCH  52  55
HETATM   55  C16 UNL     1     -23.077 -19.975   5.665  1.00  0.00     0.198 C 
BRANCH  55  56
HETATM   56  O6  UNL     1     -24.263 -20.208   4.964  1.00  0.00    -0.398 OA
ATOM     57  H6  UNL     1     -24.983 -20.026   5.558  1.00  0.00     0.209 HD
ENDBRANCH  55  56
ENDBRANCH  52  55
ENDBRANCH  51  52
ENDBRANCH  50  51
ENDBRANCH  48  50
ENDBRANCH   7  46
TORSDOF 16
ENDMDL
MODEL 4
REMARK VINA RESULT: -8.266366980      0.850      1.057
REMARK  16 active torsions:
REMARK  status: ('A' for Active; 'I' for Inactive)
REMARK    1  A    between atoms: N1_1  and  C1_4 
REMARK    2  A    between atoms: C3_8  and  C4_9 
REMARK    3  A    between atoms: C4_9  and  N3_10 
REMARK    4  A    between atoms: C5_13  and  C6_14 
REMARK       I    between atoms: C6_14  and  N5_16 
REMARK    5  A    between atoms: N5_16  and  N6_18 
REMARK    6  A    between atoms: N6_18  and  C7_20 
REMARK    7  A    between atoms: C8_23  and  N8_24 
REMARK    8  A    between atoms: C9_29  and  N10_30 
REMARK    9  A    between atoms: C11_36  and  O2_37 
REMARK   10  A    between atoms: C12_39  and  C13_40 
REMARK       I    between atoms: C13_40  and  N12_42 
REMARK   11  A    between atoms: N12_42  and  O4_44 
REMARK   12  A    between atoms: O4_44  and  C14_45 
REMARK   13  A    between atoms: C14_45  and  C15_46 
REMARK   14  A    between atoms: C15_46  and  O5_47 
REMARK   15  A    between atoms: C15_46  and  C16_49 
REMARK   16  A    between atoms: C16_49  and  O6_50 
ROOT
HETATM    1  N3  UNL     1     -32.096 -19.972   2.531  1.00  0.00    -0.207 N 
HETATM    2  N4  UNL     1     -32.886 -20.484   3.424  1.00  0.00    -0.275 N 
ATOM      3  H4  UNL     1     -33.785 -20.919   3.213  1.00  0.00     0.189 HD
HETATM    4  C5  UNL     1     -32.363 -20.368   4.684  1.00  0.00     0.152 A 
HETATM    5  C10 UNL     1     -31.164 -19.729   4.496  1.00  0.00     0.145 A 
HETATM    6  C11 UNL     1     -30.029 -19.203   5.097  1.00  0.00     0.133 A 
HETATM    7  C12 UNL     1     -29.226 -18.667   4.109  1.00  0.00     0.155 A 
HETATM    8  N13 UNL     1     -29.919 -18.896   2.957  1.00  0.00    -0.270 N 
ATOM      9  H13 UNL     1     -29.593 -18.617   2.031  1.00  0.00     0.189 HD
HETATM   10  N14 UNL     1     -31.044 -19.509   3.174  1.00  0.00    -0.174 N 
ENDROOT
BRANCH   4  11
HETATM   11  C6  UNL     1     -33.018 -20.816   5.888  1.00  0.00     0.291 C 
HETATM   12  O1  UNL     1     -34.300 -20.649   5.916  1.00  0.00    -0.264 OA
HETATM   13  N5  UNL     1     -32.453 -21.407   7.020  1.00  0.00    -0.250 N 
ATOM     14  H5  UNL     1     -31.448 -21.572   7.056  1.00  0.00     0.191 HD
BRANCH  13  15
HETATM   15  N6  UNL     1     -33.273 -21.781   8.130  1.00  0.00    -0.128 N 
ATOM     16  H6  UNL     1     -34.110 -21.250   8.369  1.00  0.00     0.205 HD
BRANCH  15  17
HETATM   17  C7  UNL     1     -32.920 -22.810   8.820  1.00  0.00     0.726 A 
HETATM   18  N7  UNL     1     -33.080 -22.767  10.166  1.00  0.00    -0.020 N 
HETATM   19  C8  UNL     1     -32.722 -23.820  10.906  1.00  0.00     0.705 A 
ATOM     20  H7  UNL     1     -33.472 -21.936  10.610  1.00  0.00     0.203 HD
HETATM   21  N9  UNL     1     -32.202 -24.942  10.378  1.00  0.00    -0.022 N 
HETATM   22  C9  UNL     1     -32.042 -24.987   9.049  1.00  0.00     0.705 A 
ATOM     23  H9  UNL     1     -31.940 -25.731  10.968  1.00  0.00     0.203 HD
HETATM   24  N11 UNL     1     -32.398 -23.936   8.291  1.00  0.00    -0.020 N 
ATOM     25  H11 UNL     1     -32.268 -23.991   7.281  1.00  0.00     0.203 HD
BRANCH  19  26
HETATM   26  N8  UNL     1     -32.886 -23.754  12.190  1.00  0.00    -0.234 N 
ATOM     27  H82 UNL     1     -33.060 -24.617  12.707  1.00  0.00     0.174 HD
ATOM     28  H81 UNL     1     -32.838 -22.839  12.640  1.00  0.00     0.174 HD
ENDBRANCH  19  26
BRANCH  22  29
HETATM   29  N10 UNL     1     -31.546 -26.056   8.534  1.00  0.00    -0.234 N 
ATOM     30 2H10 UNL     1     -30.905 -26.656   9.054  1.00  0.00     0.174 HD
ATOM     31 1H10 UNL     1     -31.809 -26.296   7.578  1.00  0.00     0.174 HD
ENDBRANCH  22  29
ENDBRANCH  15  17
ENDBRANCH  13  15
ENDBRANCH   4  11
BRANCH   1  32
HETATM   32  C4  UNL     1     -32.297 -19.900   1.075  1.00  0.00     0.213 C 
BRANCH  32  33
HETATM   33  C3  UNL     1     -33.537 -19.119   0.818  1.00  0.00    -0.005 A 
HETATM   34  C2  UNL     1     -33.642 -17.784   1.148  1.00  0.00     0.116 A 
HETATM   35  N2  UNL     1     -34.786 -17.111   0.899  1.00  0.00    -0.202 N 
HETATM   36  C1  UNL     1     -35.864 -17.683   0.330  1.00  0.00     0.675 A 
ATOM     37  H2  UNL     1     -34.836 -16.125   1.153  1.00  0.00     0.183 HD
HETATM   38  N15 UNL     1     -35.760 -18.985   0.008  1.00  0.00    -0.202 N 
HETATM   39  C17 UNL     1     -34.648 -19.708   0.232  1.00  0.00     0.116 A 
ATOM     40  H15 UNL     1     -36.560 -19.445  -0.425  1.00  0.00     0.183 HD
BRANCH  36  41
HETATM   41  N1  UNL     1     -36.960 -17.044   0.090  1.00  0.00    -0.234 N 
ATOM     42  H12 UNL     1     -37.209 -16.230   0.652  1.00  0.00     0.174 HD
ATOM     43  H11 UNL     1     -37.611 -17.309  -0.648  1.00  0.00     0.174 HD
ENDBRANCH  36  41
ENDBRANCH  32  33
ENDBRANCH   1  32
BRANCH   6  44
HETATM   44  O2  UNL     1     -29.737 -19.204   6.431  1.00  0.00    -0.356 OA
ATOM     45  H2  UNL     1     -28.872 -19.231   6.823  1.00  0.00     0.218 HD
ENDBRANCH   6  44
BRANCH   7  46
HETATM   46  C13 UNL     1     -27.944 -18.001   4.167  1.00  0.00     0.296 C 
HETATM   47  O3  UNL     1     -27.393 -17.592   3.116  1.00  0.00    -0.264 OA
HETATM   48  N12 UNL     1     -27.273 -17.790   5.392  1.00  0.00    -0.229 N 
ATOM     49  H12 UNL     1     -27.697 -18.112   6.262  1.00  0.00     0.198 HD
BRANCH  48  50
HETATM   50  O4  UNL     1     -26.054 -17.154   5.421  1.00  0.00    -0.275 OA
BRANCH  50  51
HETATM   51  C14 UNL     1     -25.040 -18.043   5.042  1.00  0.00     0.235 C 
BRANCH  51  52
HETATM   52  C15 UNL     1     -24.219 -18.303   6.296  1.00  0.00     0.167 C 
BRANCH  52  53
HETATM   53  O5  UNL     1     -25.097 -18.715   7.276  1.00  0.00    -0.391 OA
ATOM     54  H5  UNL     1     -25.878 -18.180   7.192  1.00  0.00     0.210 HD
ENDBRANCH  52  53
BRANCH  52  55
HETATM   55  C16 UNL     1     -23.265 -19.439   5.981  1.00  0.00     0.198 C 
BRANCH  55  56
HETATM   56  O6  UNL     1     -23.926 -20.306   5.107  1.00  0.00    -0.398 OA
ATOM     57  H6  UNL     1     -23.292 -20.591   4.459  1.00  0.00     0.209 HD
ENDBRANCH  55  56
ENDBRANCH  52  55
ENDBRANCH  51  52
ENDBRANCH  50  51
ENDBRANCH  48  50
ENDBRANCH   7  46
TORSDOF 16
ENDMDL
MODEL 5
REMARK VINA RESULT: -8.183435988      4.009      7.774
REMARK  16 active torsions:
REMARK  status: ('A' for Active; 'I' for Inactive)
REMARK    1  A    between atoms: N1_1  and  C1_4 
REMARK    2  A    between atoms: C3_8  and  C4_9 
REMARK    3  A    between atoms: C4_9  and  N3_10 
REMARK    4  A    between atoms: C5_13  and  C6_14 
REMARK       I    between atoms: C6_14  and  N5_16 
REMARK    5  A    between atoms: N5_16  and  N6_18 
REMARK    6  A    between atoms: N6_18  and  C7_20 
REMARK    7  A    between atoms: C8_23  and  N8_24 
REMARK    8  A    between atoms: C9_29  and  N10_30 
REMARK    9  A    between atoms: C11_36  and  O2_37 
REMARK   10  A    between atoms: C12_39  and  C13_40 
REMARK       I    between atoms: C13_40  and  N12_42 
REMARK   11  A    between atoms: N12_42  and  O4_44 
REMARK   12  A    between atoms: O4_44  and  C14_45 
REMARK   13  A    between atoms: C14_45  and  C15_46 
REMARK   14  A    between atoms: C15_46  and  O5_47 
REMARK   15  A    between atoms: C15_46  and  C16_49 
REMARK   16  A    between atoms: C16_49  and  O6_50 
ROOT
HETATM    1  N3  UNL     1     -30.041 -19.460   5.113  1.00  0.00    -0.207 N 
HETATM    2  N4  UNL     1     -28.905 -19.283   5.715  1.00  0.00    -0.275 N 
ATOM      3  H4  UNL     1     -28.687 -19.641   6.645  1.00  0.00     0.189 HD
HETATM    4  C5  UNL     1     -28.037 -18.555   4.946  1.00  0.00     0.152 A 
HETATM    5  C10 UNL     1     -28.741 -18.289   3.799  1.00  0.00     0.145 A 
HETATM    6  C11 UNL     1     -28.734 -17.669   2.557  1.00  0.00     0.133 A 
HETATM    7  C12 UNL     1     -29.962 -17.881   1.961  1.00  0.00     0.155 A 
HETATM    8  N13 UNL     1     -30.652 -18.619   2.877  1.00  0.00    -0.270 N 
ATOM      9  H13 UNL     1     -31.609 -18.946   2.740  1.00  0.00     0.189 HD
HETATM   10  N14 UNL     1     -29.951 -18.858   3.945  1.00  0.00    -0.174 N 
ENDROOT
BRANCH   4  11
HETATM   11  C6  UNL     1     -26.708 -18.170   5.351  1.00  0.00     0.291 C 
HETATM   12  O1  UNL     1     -26.529 -16.902   5.529  1.00  0.00    -0.264 OA
HETATM   13  N5  UNL     1     -25.596 -18.982   5.580  1.00  0.00    -0.250 N 
ATOM     14  H5  UNL     1     -25.675 -19.992   5.464  1.00  0.00     0.191 HD
BRANCH  13  15
HETATM   15  N6  UNL     1     -24.346 -18.410   5.974  1.00  0.00    -0.128 N 
ATOM     16  H6  UNL     1     -23.964 -17.597   5.492  1.00  0.00     0.205 HD
BRANCH  15  17
HETATM   17  C7  UNL     1     -23.718 -18.955   6.958  1.00  0.00     0.726 A 
HETATM   18  N7  UNL     1     -22.797 -19.912   6.681  1.00  0.00    -0.020 N 
HETATM   19  C8  UNL     1     -22.131 -20.495   7.681  1.00  0.00     0.705 A 
ATOM     20  H7  UNL     1     -22.614 -20.184   5.715  1.00  0.00     0.203 HD
HETATM   21  N9  UNL     1     -22.327 -20.177   8.973  1.00  0.00    -0.022 N 
HETATM   22  C9  UNL     1     -23.237 -19.233   9.249  1.00  0.00     0.705 A 
ATOM     23  H9  UNL     1     -21.802 -20.638   9.716  1.00  0.00     0.203 HD
HETATM   24  N11 UNL     1     -23.915 -18.638   8.254  1.00  0.00    -0.020 N 
ATOM     25  H11 UNL     1     -24.602 -17.921   8.486  1.00  0.00     0.203 HD
BRANCH  19  26
HETATM   26  N8  UNL     1     -21.255 -21.405   7.390  1.00  0.00    -0.234 N 
ATOM     27  H82 UNL     1     -20.266 -21.190   7.512  1.00  0.00     0.174 HD
ATOM     28  H81 UNL     1     -21.588 -22.306   7.047  1.00  0.00     0.174 HD
ENDBRANCH  19  26
BRANCH  22  29
HETATM   29  N10 UNL     1     -23.432 -18.922  10.483  1.00  0.00    -0.234 N 
ATOM     30 2H10 UNL     1     -22.660 -18.832  11.143  1.00  0.00     0.174 HD
ATOM     31 1H10 UNL     1     -24.391 -18.765  10.792  1.00  0.00     0.174 HD
ENDBRANCH  22  29
ENDBRANCH  15  17
ENDBRANCH  13  15
ENDBRANCH   4  11
BRANCH   1  32
HETATM   32  C4  UNL     1     -31.226 -20.183   5.603  1.00  0.00     0.213 C 
BRANCH  32  33
HETATM   33  C3  UNL     1     -32.357 -19.895   4.680  1.00  0.00    -0.005 A 
HETATM   34  C2  UNL     1     -33.272 -18.895   4.936  1.00  0.00     0.116 A 
HETATM   35  N2  UNL     1     -34.285 -18.665   4.072  1.00  0.00    -0.202 N 
HETATM   36  C1  UNL     1     -34.460 -19.375   2.942  1.00  0.00     0.675 A 
ATOM     37  H2  UNL     1     -34.948 -17.920   4.287  1.00  0.00     0.183 HD
HETATM   38  N15 UNL     1     -33.566 -20.349   2.694  1.00  0.00    -0.202 N 
HETATM   39  C17 UNL     1     -32.538 -20.625   3.516  1.00  0.00     0.116 A 
ATOM     40  H15 UNL     1     -33.674 -20.903   1.844  1.00  0.00     0.183 HD
BRANCH  36  41
HETATM   41  N1  UNL     1     -35.428 -19.159   2.114  1.00  0.00    -0.234 N 
ATOM     42  H12 UNL     1     -36.267 -19.737   2.149  1.00  0.00     0.174 HD
ATOM     43  H11 UNL     1     -35.404 -18.425   1.407  1.00  0.00     0.174 HD
ENDBRANCH  36  41
ENDBRANCH  32  33
ENDBRANCH   1  32
BRANCH   6  44
HETATM   44  O2  UNL     1     -27.702 -16.966   2.002  1.00  0.00    -0.356 OA
ATOM     45  H2  UNL     1     -26.974 -17.323   1.507  1.00  0.00     0.218 HD
ENDBRANCH   6  44
BRANCH   7  46
HETATM   46  C13 UNL     1     -30.495 -17.467   0.683  1.00  0.00     0.296 C 
HETATM   47  O3  UNL     1     -29.981 -16.504   0.063  1.00  0.00    -0.264 OA
HETATM   48  N12 UNL     1     -31.598 -18.122   0.092  1.00  0.00    -0.229 N 
ATOM     49  H12 UNL     1     -32.037 -18.908   0.573  1.00  0.00     0.198 HD
BRANCH  48  50
HETATM   50  O4  UNL     1     -32.086 -17.709  -1.125  1.00  0.00    -0.275 OA
BRANCH  50  51
HETATM   51  C14 UNL     1     -32.840 -18.735  -1.713  1.00  0.00     0.235 C 
BRANCH  51  52
HETATM   52  C15 UNL     1     -32.809 -19.895  -0.729  1.00  0.00     0.167 C 
BRANCH  52  53
HETATM   53  O5  UNL     1     -34.112 -20.306  -0.548  1.00  0.00    -0.391 OA
ATOM     54  H5  UNL     1     -34.138 -21.238  -0.729  1.00  0.00     0.210 HD
ENDBRANCH  52  53
BRANCH  52  55
HETATM   55  C16 UNL     1     -32.026 -21.016  -1.382  1.00  0.00     0.198 C 
BRANCH  55  56
HETATM   56  O6  UNL     1     -30.746 -20.525  -1.655  1.00  0.00    -0.398 OA
ATOM     57  H6  UNL     1     -30.189 -20.769  -0.924  1.00  0.00     0.209 HD
ENDBRANCH  55  56
ENDBRANCH  52  55
ENDBRANCH  51  52
ENDBRANCH  50  51
ENDBRANCH  48  50
ENDBRANCH   7  46
TORSDOF 16
ENDMDL
