MODEL 1
REMARK VINA RESULT: -6.113966297      0.000      0.000
REMARK  5 active torsions:
REMARK  status: ('A' for Active; 'I' for Inactive)
REMARK    1  A    between atoms: N1_2  and  C2_5 
REMARK    2  A    between atoms: C2_5  and  C3_6 
REMARK    3  A    between atoms: C3_6  and  C4_7 
REMARK    4  A    between atoms: C4_7  and  C5_8 
REMARK    5  A    between atoms: C5_8  and  N2_10 
REMARK       I    between atoms: N3_13  and  C8_14 
ROOT
HETATM    1  N2  UNL     1      14.846   7.587  20.595  1.00  0.00    -0.372 N 
HETATM    2  C6  UNL     1      14.825   8.589  21.633  1.00  0.00     0.143 C 
HETATM    3  C7  UNL     1      13.573   8.342  22.480  1.00  0.00     0.145 C 
HETATM    4  N3  UNL     1      13.876   7.107  23.218  1.00  0.00    -0.353 N 
HETATM    5  C8  UNL     1      13.541   6.950  24.578  1.00  0.00     0.184 C 
HETATM    6  N4  UNL     1      12.323   6.978  24.961  1.00  0.00    -0.374 N 
ATOM      7  H41 UNL     1      12.080   6.865  25.945  1.00  0.00     0.158 HD
ATOM      8  H42 UNL     1      11.580   7.117  24.276  1.00  0.00     0.158 HD
HETATM    9  N5  UNL     1      14.566   6.758  25.524  1.00  0.00    -0.064 NA
HETATM   10  C9  UNL     1      14.537   6.053  22.488  1.00  0.00     0.145 C 
HETATM   11  C10 UNL     1      14.343   6.271  20.994  1.00  0.00     0.143 C 
ENDROOT
BRANCH   1  12
HETATM   12  C5  UNL     1      15.298   7.786  19.286  1.00  0.00     0.075 C 
HETATM   13  S1  UNL     1      16.392   6.704  18.702  1.00  0.00    -0.066 SA
BRANCH  12  14
HETATM   14  C4  UNL     1      14.902   8.852  18.384  1.00  0.00     0.071 C 
BRANCH  14  15
HETATM   15  C3  UNL     1      13.464   9.103  18.174  1.00  0.00     0.034 C 
BRANCH  15  16
HETATM   16  C2  UNL     1      12.856  10.115  19.115  1.00  0.00     0.232 C 
BRANCH  16  17
HETATM   17  N1  UNL     1      11.664   9.557  19.722  1.00  0.00    -0.079 N 
HETATM   18  C1  UNL     1      11.012  10.477  20.623  1.00  0.00     0.266 C 
ATOM     19  H12 UNL     1      11.871   8.673  20.188  1.00  0.00     0.276 HD
ATOM     20  H11 UNL     1      11.014   9.221  19.011  1.00  0.00     0.276 HD
ENDBRANCH  16  17
ENDBRANCH  15  16
ENDBRANCH  14  15
ENDBRANCH  12  14
ENDBRANCH   1  12
TORSDOF 5
ENDMDL
MODEL 2
REMARK VINA RESULT: -5.859121422      0.248      1.493
REMARK  5 active torsions:
REMARK  status: ('A' for Active; 'I' for Inactive)
REMARK    1  A    between atoms: N1_2  and  C2_5 
REMARK    2  A    between atoms: C2_5  and  C3_6 
REMARK    3  A    between atoms: C3_6  and  C4_7 
REMARK    4  A    between atoms: C4_7  and  C5_8 
REMARK    5  A    between atoms: C5_8  and  N2_10 
REMARK       I    between atoms: N3_13  and  C8_14 
ROOT
HETATM    1  N2  UNL     1      14.834   7.522  20.563  1.00  0.00    -0.372 N 
HETATM    2  C6  UNL     1      14.514   6.244  21.152  1.00  0.00     0.143 C 
HETATM    3  C7  UNL     1      15.023   6.267  22.596  1.00  0.00     0.145 C 
HETATM    4  N3  UNL     1      14.108   7.189  23.286  1.00  0.00    -0.353 N 
HETATM    5  C8  UNL     1      13.615   6.921  24.579  1.00  0.00     0.184 C 
HETATM    6  N4  UNL     1      14.406   6.830  25.576  1.00  0.00    -0.374 N 
ATOM      7  H41 UNL     1      14.049   6.636  26.512  1.00  0.00     0.158 HD
ATOM      8  H42 UNL     1      15.410   6.950  25.439  1.00  0.00     0.158 HD
HETATM    9  N5  UNL     1      12.229   6.755  24.768  1.00  0.00    -0.064 NA
HETATM   10  C9  UNL     1      13.731   8.388  22.579  1.00  0.00     0.145 C 
HETATM   11  C10 UNL     1      14.739   8.664  21.473  1.00  0.00     0.143 C 
ENDROOT
BRANCH   1  12
HETATM   12  C5  UNL     1      15.215   7.728  19.232  1.00  0.00     0.075 C 
HETATM   13  S1  UNL     1      16.371   6.726  18.624  1.00  0.00    -0.066 SA
BRANCH  12  14
HETATM   14  C4  UNL     1      14.695   8.736  18.327  1.00  0.00     0.071 C 
BRANCH  14  15
HETATM   15  C3  UNL     1      13.234   8.911  18.226  1.00  0.00     0.034 C 
BRANCH  15  16
HETATM   16  C2  UNL     1      12.675  10.038  19.061  1.00  0.00     0.232 C 
BRANCH  16  17
HETATM   17  N1  UNL     1      11.552   9.552  19.839  1.00  0.00    -0.079 N 
HETATM   18  C1  UNL     1      11.184  10.448  20.909  1.00  0.00     0.266 C 
ATOM     19  H12 UNL     1      11.731   8.613  20.193  1.00  0.00     0.276 HD
ATOM     20  H11 UNL     1      10.751   9.352  19.239  1.00  0.00     0.276 HD
ENDBRANCH  16  17
ENDBRANCH  15  16
ENDBRANCH  14  15
ENDBRANCH  12  14
ENDBRANCH   1  12
TORSDOF 5
ENDMDL
MODEL 3
REMARK VINA RESULT: -4.264131286      2.057      3.374
REMARK  5 active torsions:
REMARK  status: ('A' for Active; 'I' for Inactive)
REMARK    1  A    between atoms: N1_2  and  C2_5 
REMARK    2  A    between atoms: C2_5  and  C3_6 
REMARK    3  A    between atoms: C3_6  and  C4_7 
REMARK    4  A    between atoms: C4_7  and  C5_8 
REMARK    5  A    between atoms: C5_8  and  N2_10 
REMARK       I    between atoms: N3_13  and  C8_14 
ROOT
HETATM    1  N2  UNL     1      13.603   8.874  20.843  1.00  0.00    -0.372 N 
HETATM    2  C6  UNL     1      13.507   9.517  22.132  1.00  0.00     0.143 C 
HETATM    3  C7  UNL     1      12.745   8.568  23.060  1.00  0.00     0.145 C 
HETATM    4  N3  UNL     1      13.691   7.469  23.307  1.00  0.00    -0.353 N 
HETATM    5  C8  UNL     1      13.849   6.895  24.584  1.00  0.00     0.184 C 
HETATM    6  N4  UNL     1      12.878   6.298  25.160  1.00  0.00    -0.374 N 
ATOM      7  H41 UNL     1      12.993   5.883  26.085  1.00  0.00     0.158 HD
ATOM      8  H42 UNL     1      11.974   6.236  24.693  1.00  0.00     0.158 HD
HETATM    9  N5  UNL     1      15.098   6.982  25.230  1.00  0.00    -0.064 NA
HETATM   10  C9  UNL     1      14.458   6.999  22.179  1.00  0.00     0.145 C 
HETATM   11  C10 UNL     1      13.773   7.421  20.887  1.00  0.00     0.143 C 
ENDROOT
BRANCH   1  12
HETATM   12  C5  UNL     1      13.546   9.527  19.606  1.00  0.00     0.075 C 
HETATM   13  S1  UNL     1      12.839  11.013  19.579  1.00  0.00    -0.066 SA
BRANCH  12  14
HETATM   14  C4  UNL     1      14.046   9.028  18.338  1.00  0.00     0.071 C 
BRANCH  14  15
HETATM   15  C3  UNL     1      15.482   8.713  18.219  1.00  0.00     0.034 C 
BRANCH  15  16
HETATM   16  C2  UNL     1      15.858   7.314  18.644  1.00  0.00     0.232 C 
BRANCH  16  17
HETATM   17  N1  UNL     1      17.028   6.882  17.905  1.00  0.00    -0.079 N 
HETATM   18  C1  UNL     1      17.687   5.750  18.513  1.00  0.00     0.266 C 
ATOM     19  H12 UNL     1      17.680   7.655  17.770  1.00  0.00     0.276 HD
ATOM     20  H11 UNL     1      16.796   6.689  16.931  1.00  0.00     0.276 HD
ENDBRANCH  16  17
ENDBRANCH  15  16
ENDBRANCH  14  15
ENDBRANCH  12  14
ENDBRANCH   1  12
TORSDOF 5
ENDMDL
MODEL 4
REMARK VINA RESULT: -4.256317549      2.064      3.659
REMARK  5 active torsions:
REMARK  status: ('A' for Active; 'I' for Inactive)
REMARK    1  A    between atoms: N1_2  and  C2_5 
REMARK    2  A    between atoms: C2_5  and  C3_6 
REMARK    3  A    between atoms: C3_6  and  C4_7 
REMARK    4  A    between atoms: C4_7  and  C5_8 
REMARK    5  A    between atoms: C5_8  and  N2_10 
REMARK       I    between atoms: N3_13  and  C8_14 
ROOT
HETATM    1  N2  UNL     1      13.575   8.809  20.843  1.00  0.00    -0.372 N 
HETATM    2  C6  UNL     1      13.900   7.422  21.074  1.00  0.00     0.143 C 
HETATM    3  C7  UNL     1      14.737   7.357  22.355  1.00  0.00     0.145 C 
HETATM    4  N3  UNL     1      13.778   7.657  23.428  1.00  0.00    -0.353 N 
HETATM    5  C8  UNL     1      13.780   6.951  24.648  1.00  0.00     0.184 C 
HETATM    6  N4  UNL     1      14.790   6.993  25.427  1.00  0.00    -0.374 N 
ATOM      7  H41 UNL     1      14.792   6.482  26.310  1.00  0.00     0.158 HD
ATOM      8  H42 UNL     1      15.610   7.542  25.166  1.00  0.00     0.158 HD
HETATM    9  N5  UNL     1      12.649   6.194  25.009  1.00  0.00    -0.064 NA
HETATM   10  C9  UNL     1      12.825   8.711  23.179  1.00  0.00     0.145 C 
HETATM   11  C10 UNL     1      13.331   9.598  22.051  1.00  0.00     0.143 C 
ENDROOT
BRANCH   1  12
HETATM   12  C5  UNL     1      13.484   9.421  19.587  1.00  0.00     0.075 C 
HETATM   13  S1  UNL     1      12.686  10.859  19.515  1.00  0.00    -0.066 SA
BRANCH  12  14
HETATM   14  C4  UNL     1      14.020   8.918  18.336  1.00  0.00     0.071 C 
BRANCH  14  15
HETATM   15  C3  UNL     1      15.460   8.608  18.257  1.00  0.00     0.034 C 
BRANCH  15  16
HETATM   16  C2  UNL     1      15.824   7.199  18.658  1.00  0.00     0.232 C 
BRANCH  16  17
HETATM   17  N1  UNL     1      17.036   6.798  17.970  1.00  0.00    -0.079 N 
HETATM   18  C1  UNL     1      17.724   5.717  18.633  1.00  0.00     0.266 C 
ATOM     19  H12 UNL     1      17.657   7.595  17.829  1.00  0.00     0.276 HD
ATOM     20  H11 UNL     1      16.843   6.565  16.996  1.00  0.00     0.276 HD
ENDBRANCH  16  17
ENDBRANCH  15  16
ENDBRANCH  14  15
ENDBRANCH  12  14
ENDBRANCH   1  12
TORSDOF 5
ENDMDL
MODEL 5
REMARK VINA RESULT: -4.136587058      1.039      1.917
REMARK  5 active torsions:
REMARK  status: ('A' for Active; 'I' for Inactive)
REMARK    1  A    between atoms: N1_2  and  C2_5 
REMARK    2  A    between atoms: C2_5  and  C3_6 
REMARK    3  A    between atoms: C3_6  and  C4_7 
REMARK    4  A    between atoms: C4_7  and  C5_8 
REMARK    5  A    between atoms: C5_8  and  N2_10 
REMARK       I    between atoms: N3_13  and  C8_14 
ROOT
HETATM    1  N2  UNL     1      14.176   7.906  20.862  1.00  0.00    -0.372 N 
HETATM    2  C6  UNL     1      14.236   6.555  21.366  1.00  0.00     0.143 C 
HETATM    3  C7  UNL     1      15.037   6.591  22.671  1.00  0.00     0.145 C 
HETATM    4  N3  UNL     1      14.141   7.261  23.625  1.00  0.00    -0.353 N 
HETATM    5  C8  UNL     1      14.003   6.818  24.956  1.00  0.00     0.184 C 
HETATM    6  N4  UNL     1      14.998   6.827  25.756  1.00  0.00    -0.374 N 
ATOM      7  H41 UNL     1      14.898   6.506  26.719  1.00  0.00     0.158 HD
ATOM      8  H42 UNL     1      15.906   7.158  25.431  1.00  0.00     0.158 HD
HETATM    9  N5  UNL     1      12.749   6.361  25.404  1.00  0.00    -0.064 NA
HETATM   10  C9  UNL     1      13.401   8.401  23.139  1.00  0.00     0.145 C 
HETATM   11  C10 UNL     1      14.073   8.946  21.887  1.00  0.00     0.143 C 
ENDROOT
BRANCH   1  12
HETATM   12  C5  UNL     1      14.209   8.268  19.510  1.00  0.00     0.075 C 
HETATM   13  S1  UNL     1      15.612   7.987  18.697  1.00  0.00    -0.066 SA
BRANCH  12  14
HETATM   14  C4  UNL     1      13.131   8.869  18.746  1.00  0.00     0.071 C 
BRANCH  14  15
HETATM   15  C3  UNL     1      12.554  10.142  19.218  1.00  0.00     0.034 C 
BRANCH  15  16
HETATM   16  C2  UNL     1      11.577  10.006  20.361  1.00  0.00     0.232 C 
BRANCH  16  17
HETATM   17  N1  UNL     1      10.326  10.647  20.006  1.00  0.00    -0.079 N 
HETATM   18  C1  UNL     1       9.606   9.937  18.976  1.00  0.00     0.266 C 
ATOM     19  H12 UNL     1      10.476  11.621  19.743  1.00  0.00     0.276 HD
ATOM     20  H11 UNL     1       9.741  10.787  20.830  1.00  0.00     0.276 HD
ENDBRANCH  16  17
ENDBRANCH  15  16
ENDBRANCH  14  15
ENDBRANCH  12  14
ENDBRANCH   1  12
TORSDOF 5
ENDMDL
