MODEL 1
REMARK VINA RESULT: -6.170217316      0.000      0.000
REMARK  4 active torsions:
REMARK  status: ('A' for Active; 'I' for Inactive)
REMARK    1  A    between atoms: N4_14  and  C8_15 
REMARK    2  A    between atoms: C8_15  and  C9_16 
REMARK    3  A    between atoms: C9_16  and  C10_17 
REMARK    4  A    between atoms: C10_17  and  N5_18 
ROOT
HETATM    1  N1  UNL     1      10.829   8.813  18.488  1.00  0.00    -0.389 N 
ATOM      2  H11 UNL     1      11.126   8.233  17.703  1.00  0.00     0.157 HD
ATOM      3  H12 UNL     1       9.910   9.228  18.642  1.00  0.00     0.157 HD
HETATM    4  C1  UNL     1      11.707   9.069  19.417  1.00  0.00     0.079 C 
HETATM    5  N2  UNL     1      11.295   9.873  20.505  1.00  0.00    -0.378 N 
ATOM      6  H2  UNL     1      10.564  10.556  20.301  1.00  0.00     0.160 HD
HETATM    7  C2  UNL     1      11.768   9.853  21.849  1.00  0.00     0.151 C 
HETATM    8  C3  UNL     1      13.238   9.989  22.023  1.00  0.00     0.294 C 
HETATM    9  N3  UNL     1      14.043   9.507  20.971  1.00  0.00     0.114 N 
HETATM   10  C4  UNL     1      14.255  10.354  19.857  1.00  0.00     0.280 C 
HETATM   11  C5  UNL     1      14.001   9.506  18.612  1.00  0.00     0.031 C 
HETATM   12  C6  UNL     1      15.221   8.754  18.172  1.00  0.00     0.027 C 
HETATM   13  C7  UNL     1      15.331   7.386  18.864  1.00  0.00     0.124 C 
HETATM   14  N4  UNL     1      14.973   7.532  20.217  1.00  0.00    -0.363 N 
HETATM   15  C11 UNL     1      13.743   8.178  20.518  1.00  0.00     0.335 C 
HETATM   16  C12 UNL     1      13.031   8.471  19.194  1.00  0.00     0.111 C 
ENDROOT
BRANCH  14  17
HETATM   17  C8  UNL     1      15.536   6.686  21.182  1.00  0.00     0.062 C 
BRANCH  17  18
HETATM   18  C9  UNL     1      14.577   5.902  22.029  1.00  0.00     0.071 C 
BRANCH  18  19
HETATM   19  C10 UNL     1      14.326   6.748  23.287  1.00  0.00     0.234 C 
BRANCH  19  20
HETATM   20  N5  UNL     1      12.947   6.623  23.710  1.00  0.00    -0.079 N 
ATOM     21  H53 UNL     1      12.338   6.338  22.944  1.00  0.00     0.274 HD
ATOM     22  H52 UNL     1      12.809   5.818  24.321  1.00  0.00     0.274 HD
ATOM     23  H51 UNL     1      12.630   7.489  24.146  1.00  0.00     0.274 HD
ENDBRANCH  19  20
ENDBRANCH  18  19
ENDBRANCH  17  18
ENDBRANCH  14  17
TORSDOF 4
ENDMDL
MODEL 2
REMARK VINA RESULT: -6.155956830      1.077      1.389
REMARK  4 active torsions:
REMARK  status: ('A' for Active; 'I' for Inactive)
REMARK    1  A    between atoms: N4_14  and  C8_15 
REMARK    2  A    between atoms: C8_15  and  C9_16 
REMARK    3  A    between atoms: C9_16  and  C10_17 
REMARK    4  A    between atoms: C10_17  and  N5_18 
ROOT
HETATM    1  N1  UNL     1      11.105   8.614  18.612  1.00  0.00    -0.389 N 
ATOM      2  H11 UNL     1      11.122   7.627  18.355  1.00  0.00     0.157 HD
ATOM      3  H12 UNL     1      10.395   9.307  18.376  1.00  0.00     0.157 HD
HETATM    4  C1  UNL     1      12.097   9.069  19.326  1.00  0.00     0.079 C 
HETATM    5  N2  UNL     1      12.075  10.438  19.682  1.00  0.00    -0.378 N 
ATOM      6  H2  UNL     1      11.599  11.060  19.027  1.00  0.00     0.160 HD
HETATM    7  C2  UNL     1      12.631  11.061  20.837  1.00  0.00     0.151 C 
HETATM    8  C3  UNL     1      14.071  10.794  21.090  1.00  0.00     0.294 C 
HETATM    9  N3  UNL     1      14.573   9.561  20.628  1.00  0.00     0.114 N 
HETATM   10  C4  UNL     1      14.956   9.469  19.268  1.00  0.00     0.280 C 
HETATM   11  C5  UNL     1      14.325   8.189  18.724  1.00  0.00     0.031 C 
HETATM   12  C6  UNL     1      15.180   6.981  18.965  1.00  0.00     0.027 C 
HETATM   13  C7  UNL     1      14.887   6.335  20.329  1.00  0.00     0.124 C 
HETATM   14  N4  UNL     1      14.720   7.352  21.286  1.00  0.00    -0.363 N 
HETATM   15  C11 UNL     1      13.807   8.402  20.994  1.00  0.00     0.335 C 
HETATM   16  C12 UNL     1      13.120   8.070  19.666  1.00  0.00     0.111 C 
ENDROOT
BRANCH  14  17
HETATM   17  C8  UNL     1      15.050   7.109  22.626  1.00  0.00     0.062 C 
BRANCH  17  18
HETATM   18  C9  UNL     1      14.316   7.916  23.656  1.00  0.00     0.071 C 
BRANCH  18  19
HETATM   19  C10 UNL     1      13.401   6.931  24.400  1.00  0.00     0.234 C 
BRANCH  19  20
HETATM   20  N5  UNL     1      12.036   7.062  23.937  1.00  0.00    -0.079 N 
ATOM     21  H53 UNL     1      11.992   7.323  22.952  1.00  0.00     0.274 HD
ATOM     22  H52 UNL     1      11.566   6.159  23.876  1.00  0.00     0.274 HD
ATOM     23  H51 UNL     1      11.523   7.718  24.527  1.00  0.00     0.274 HD
ENDBRANCH  19  20
ENDBRANCH  18  19
ENDBRANCH  17  18
ENDBRANCH  14  17
TORSDOF 4
ENDMDL
MODEL 3
REMARK VINA RESULT: -5.622607997      1.183      1.383
REMARK  4 active torsions:
REMARK  status: ('A' for Active; 'I' for Inactive)
REMARK    1  A    between atoms: N4_14  and  C8_15 
REMARK    2  A    between atoms: C8_15  and  C9_16 
REMARK    3  A    between atoms: C9_16  and  C10_17 
REMARK    4  A    between atoms: C10_17  and  N5_18 
ROOT
HETATM    1  N1  UNL     1      10.176  10.032  19.266  1.00  0.00    -0.389 N 
ATOM      2  H11 UNL     1      10.248   9.862  18.263  1.00  0.00     0.157 HD
ATOM      3  H12 UNL     1       9.373  10.396  19.780  1.00  0.00     0.157 HD
HETATM    4  C1  UNL     1      11.218   9.761  20.001  1.00  0.00     0.079 C 
HETATM    5  N2  UNL     1      11.119   9.999  21.393  1.00  0.00    -0.378 N 
ATOM      6  H2  UNL     1      10.488  10.751  21.671  1.00  0.00     0.160 HD
HETATM    7  C2  UNL     1      11.786   9.322  22.455  1.00  0.00     0.151 C 
HETATM    8  C3  UNL     1      13.267   9.250  22.352  1.00  0.00     0.294 C 
HETATM    9  N3  UNL     1      13.808   9.251  21.051  1.00  0.00     0.114 N 
HETATM   10  C4  UNL     1      13.980  10.500  20.405  1.00  0.00     0.280 C 
HETATM   11  C5  UNL     1      13.399  10.347  19.001  1.00  0.00     0.031 C 
HETATM   12  C6  UNL     1      14.395   9.795  18.026  1.00  0.00     0.027 C 
HETATM   13  C7  UNL     1      14.384   8.259  18.004  1.00  0.00     0.124 C 
HETATM   14  N4  UNL     1      14.270   7.787  19.326  1.00  0.00    -0.363 N 
HETATM   15  C11 UNL     1      13.225   8.311  20.135  1.00  0.00     0.335 C 
HETATM   16  C12 UNL     1      12.374   9.237  19.261  1.00  0.00     0.111 C 
ENDROOT
BRANCH  14  17
HETATM   17  C8  UNL     1      14.829   6.551  19.675  1.00  0.00     0.062 C 
BRANCH  17  18
HETATM   18  C9  UNL     1      16.094   6.588  20.479  1.00  0.00     0.071 C 
BRANCH  18  19
HETATM   19  C10 UNL     1      15.683   6.337  21.938  1.00  0.00     0.234 C 
BRANCH  19  20
HETATM   20  N5  UNL     1      14.444   5.589  21.991  1.00  0.00    -0.079 N 
ATOM     21  H53 UNL     1      14.485   4.835  22.676  1.00  0.00     0.274 HD
ATOM     22  H52 UNL     1      13.690   6.133  22.411  1.00  0.00     0.274 HD
ATOM     23  H51 UNL     1      14.195   5.248  21.063  1.00  0.00     0.274 HD
ENDBRANCH  19  20
ENDBRANCH  18  19
ENDBRANCH  17  18
ENDBRANCH  14  17
TORSDOF 4
ENDMDL
MODEL 4
REMARK VINA RESULT: -5.588824050      1.532      3.536
REMARK  4 active torsions:
REMARK  status: ('A' for Active; 'I' for Inactive)
REMARK    1  A    between atoms: N4_14  and  C8_15 
REMARK    2  A    between atoms: C8_15  and  C9_16 
REMARK    3  A    between atoms: C9_16  and  C10_17 
REMARK    4  A    between atoms: C10_17  and  N5_18 
ROOT
HETATM    1  N1  UNL     1      16.246   9.954  17.687  1.00  0.00    -0.389 N 
ATOM      2  H11 UNL     1      15.965  10.925  17.830  1.00  0.00     0.157 HD
ATOM      3  H12 UNL     1      16.961   9.600  17.053  1.00  0.00     0.157 HD
HETATM    4  C1  UNL     1      15.633   9.040  18.386  1.00  0.00     0.079 C 
HETATM    5  N2  UNL     1      16.021   7.694  18.188  1.00  0.00    -0.378 N 
ATOM      6  H2  UNL     1      16.373   7.466  17.258  1.00  0.00     0.160 HD
HETATM    7  C2  UNL     1      15.984   6.617  19.120  1.00  0.00     0.151 C 
HETATM    8  C3  UNL     1      14.675   6.370  19.778  1.00  0.00     0.294 C 
HETATM    9  N3  UNL     1      13.832   7.488  19.940  1.00  0.00     0.114 N 
HETATM   10  C4  UNL     1      13.029   7.878  18.841  1.00  0.00     0.280 C 
HETATM   11  C5  UNL     1      13.206   9.387  18.687  1.00  0.00     0.031 C 
HETATM   12  C6  UNL     1      12.261  10.166  19.552  1.00  0.00     0.027 C 
HETATM   13  C7  UNL     1      12.843  10.420  20.951  1.00  0.00     0.124 C 
HETATM   14  N4  UNL     1      13.491   9.251  21.392  1.00  0.00    -0.363 N 
HETATM   15  C11 UNL     1      14.444   8.648  20.526  1.00  0.00     0.335 C 
HETATM   16  C12 UNL     1      14.602   9.551  19.300  1.00  0.00     0.111 C 
ENDROOT
BRANCH  14  17
HETATM   17  C8  UNL     1      13.561   8.968  22.762  1.00  0.00     0.062 C 
BRANCH  17  18
HETATM   18  C9  UNL     1      14.607   7.983  23.192  1.00  0.00     0.071 C 
BRANCH  18  19
HETATM   19  C10 UNL     1      13.966   7.133  24.301  1.00  0.00     0.234 C 
BRANCH  19  20
HETATM   20  N5  UNL     1      12.716   6.565  23.841  1.00  0.00    -0.079 N 
ATOM     21  H53 UNL     1      12.076   7.282  23.500  1.00  0.00     0.274 HD
ATOM     22  H52 UNL     1      12.832   6.041  22.974  1.00  0.00     0.274 HD
ATOM     23  H51 UNL     1      12.293   5.997  24.575  1.00  0.00     0.274 HD
ENDBRANCH  19  20
ENDBRANCH  18  19
ENDBRANCH  17  18
ENDBRANCH  14  17
TORSDOF 4
ENDMDL
MODEL 5
REMARK VINA RESULT: -5.424378517      1.679      2.794
REMARK  4 active torsions:
REMARK  status: ('A' for Active; 'I' for Inactive)
REMARK    1  A    between atoms: N4_14  and  C8_15 
REMARK    2  A    between atoms: C8_15  and  C9_16 
REMARK    3  A    between atoms: C9_16  and  C10_17 
REMARK    4  A    between atoms: C10_17  and  N5_18 
ROOT
HETATM    1  N1  UNL     1      10.313  10.308  20.598  1.00  0.00    -0.389 N 
ATOM      2  H11 UNL     1      10.151  10.377  19.593  1.00  0.00     0.157 HD
ATOM      3  H12 UNL     1       9.670  10.554  21.351  1.00  0.00     0.157 HD
HETATM    4  C1  UNL     1      11.470   9.855  20.994  1.00  0.00     0.079 C 
HETATM    5  N2  UNL     1      11.695   9.761  22.387  1.00  0.00    -0.378 N 
ATOM      6  H2  UNL     1      11.194  10.436  22.965  1.00  0.00     0.160 HD
HETATM    7  C2  UNL     1      12.531   8.843  23.087  1.00  0.00     0.151 C 
HETATM    8  C3  UNL     1      13.945   8.773  22.634  1.00  0.00     0.294 C 
HETATM    9  N3  UNL     1      14.185   9.072  21.277  1.00  0.00     0.114 N 
HETATM   10  C4  UNL     1      14.297  10.434  20.908  1.00  0.00     0.280 C 
HETATM   11  C5  UNL     1      13.413  10.625  19.678  1.00  0.00     0.031 C 
HETATM   12  C6  UNL     1      14.129  10.302  18.401  1.00  0.00     0.027 C 
HETATM   13  C7  UNL     1      14.008   8.814  18.037  1.00  0.00     0.124 C 
HETATM   14  N4  UNL     1      14.155   8.047  19.208  1.00  0.00    -0.363 N 
HETATM   15  C11 UNL     1      13.352   8.382  20.332  1.00  0.00     0.335 C 
HETATM   16  C12 UNL     1      12.396   9.501  19.909  1.00  0.00     0.111 C 
ENDROOT
BRANCH  14  17
HETATM   17  C8  UNL     1      14.690   6.754  19.132  1.00  0.00     0.062 C 
BRANCH  17  18
HETATM   18  C9  UNL     1      16.044   6.549  19.744  1.00  0.00     0.071 C 
BRANCH  18  19
HETATM   19  C10 UNL     1      16.955   6.049  18.612  1.00  0.00     0.234 C 
BRANCH  19  20
HETATM   20  N5  UNL     1      17.206   7.110  17.661  1.00  0.00    -0.079 N 
ATOM     21  H53 UNL     1      17.452   7.985  18.123  1.00  0.00     0.274 HD
ATOM     22  H52 UNL     1      18.075   6.962  17.147  1.00  0.00     0.274 HD
ATOM     23  H51 UNL     1      16.409   7.222  17.035  1.00  0.00     0.274 HD
ENDBRANCH  19  20
ENDBRANCH  18  19
ENDBRANCH  17  18
ENDBRANCH  14  17
TORSDOF 4
ENDMDL
