MODEL 1
REMARK VINA RESULT: -3.437187675      0.000      0.000
REMARK  3 active torsions:
REMARK  status: ('A' for Active; 'I' for Inactive)
REMARK       I    between atoms: N1_2  and  C3_4 
REMARK       I    between atoms: C3_4  and  N2_6 
REMARK    1  A    between atoms: N2_6  and  N3_8 
REMARK       I    between atoms: N3_8  and  C4_10 
REMARK    2  A    between atoms: N5_12  and  N6_14 
REMARK    3  A    between atoms: C5_16  and  C6_17 
ROOT
HETATM    1  N3  UNL     1      17.481  13.799  23.248  1.00  0.00    -0.268 N 
ATOM      2  H3  UNL     1      16.800  14.459  23.621  1.00  0.00     0.190 HD
HETATM    3  C4  UNL     1      17.171  12.902  22.161  1.00  0.00     0.222 C 
HETATM    4  N4  UNL     1      17.972  12.949  21.012  1.00  0.00    -0.061 NA
HETATM    5  N5  UNL     1      16.167  12.132  22.357  1.00  0.00    -0.273 N 
ATOM      6  H5  UNL     1      15.640  12.170  23.229  1.00  0.00     0.189 HD
ENDROOT
BRANCH   1   7
HETATM    7  N2  UNL     1      18.776  13.702  23.754  1.00  0.00    -0.249 N 
HETATM    8  C3  UNL     1      19.602  14.854  23.702  1.00  0.00     0.336 C 
HETATM    9  N1  UNL     1      20.923  14.758  24.216  1.00  0.00    -0.342 N 
HETATM   10  O1  UNL     1      19.155  15.925  23.209  1.00  0.00    -0.245 OA
HETATM   11  C1  UNL     1      21.814  15.891  24.195  1.00  0.00     0.154 C 
HETATM   12  C2  UNL     1      21.365  13.498  24.766  1.00  0.00     0.154 C 
ATOM     13  H2  UNL     1      19.121  12.827  24.151  1.00  0.00     0.192 HD
ENDBRANCH   1   7
BRANCH   5  14
HETATM   14  N6  UNL     1      15.815  11.242  21.345  1.00  0.00    -0.309 N 
HETATM   15  C5  UNL     1      14.704  10.613  21.433  1.00  0.00     0.118 C 
ATOM     16  H6  UNL     1      16.432  11.094  20.547  1.00  0.00     0.186 HD
BRANCH  15  17
HETATM   17  C6  UNL     1      14.318   9.683  20.394  1.00  0.00    -0.019 A 
HETATM   18  C7  UNL     1      14.553   8.317  20.556  1.00  0.00     0.013 A 
HETATM   19  C8  UNL     1      14.177   7.448  19.556  1.00  0.00     0.001 A 
HETATM   20  C9  UNL     1      13.572   7.915  18.397  1.00  0.00     0.000 A 
HETATM   21  C10 UNL     1      13.358   9.275  18.276  1.00  0.00     0.001 A 
HETATM   22  C11 UNL     1      13.719  10.168  19.251  1.00  0.00     0.013 A 
ENDBRANCH  15  17
ENDBRANCH   5  14
TORSDOF 3
ENDMDL
MODEL 2
REMARK VINA RESULT: -3.434109108      0.035      1.129
REMARK  3 active torsions:
REMARK  status: ('A' for Active; 'I' for Inactive)
REMARK       I    between atoms: N1_2  and  C3_4 
REMARK       I    between atoms: C3_4  and  N2_6 
REMARK    1  A    between atoms: N2_6  and  N3_8 
REMARK       I    between atoms: N3_8  and  C4_10 
REMARK    2  A    between atoms: N5_12  and  N6_14 
REMARK    3  A    between atoms: C5_16  and  C6_17 
ROOT
HETATM    1  N3  UNL     1      17.460  13.793  23.246  1.00  0.00    -0.268 N 
ATOM      2  H3  UNL     1      16.776  14.451  23.617  1.00  0.00     0.190 HD
HETATM    3  C4  UNL     1      17.153  12.891  22.162  1.00  0.00     0.222 C 
HETATM    4  N4  UNL     1      17.954  12.937  21.013  1.00  0.00    -0.061 NA
HETATM    5  N5  UNL     1      16.154  12.117  22.361  1.00  0.00    -0.273 N 
ATOM      6  H5  UNL     1      15.626  12.155  23.234  1.00  0.00     0.189 HD
ENDROOT
BRANCH   1   7
HETATM    7  N2  UNL     1      18.756  13.704  23.752  1.00  0.00    -0.249 N 
HETATM    8  C3  UNL     1      19.577  14.860  23.694  1.00  0.00     0.336 C 
HETATM    9  N1  UNL     1      20.898  14.772  24.208  1.00  0.00    -0.342 N 
HETATM   10  O1  UNL     1      19.124  15.926  23.197  1.00  0.00    -0.245 OA
HETATM   11  C1  UNL     1      21.784  15.908  24.182  1.00  0.00     0.154 C 
HETATM   12  C2  UNL     1      21.346  13.515  24.763  1.00  0.00     0.154 C 
ATOM     13  H2  UNL     1      19.105  12.832  24.152  1.00  0.00     0.192 HD
ENDBRANCH   1   7
BRANCH   5  14
HETATM   14  N6  UNL     1      15.805  11.221  21.353  1.00  0.00    -0.309 N 
HETATM   15  C5  UNL     1      14.690  10.599  21.436  1.00  0.00     0.118 C 
ATOM     16  H6  UNL     1      16.428  11.064  20.562  1.00  0.00     0.186 HD
BRANCH  15  17
HETATM   17  C6  UNL     1      14.307   9.664  20.401  1.00  0.00    -0.019 A 
HETATM   18  C7  UNL     1      13.706  10.125  19.229  1.00  0.00     0.013 A 
HETATM   19  C8  UNL     1      13.349   9.218  18.255  1.00  0.00     0.001 A 
HETATM   20  C9  UNL     1      13.580   7.861  18.429  1.00  0.00     0.000 A 
HETATM   21  C10 UNL     1      14.176   7.445  19.605  1.00  0.00     0.001 A 
HETATM   22  C11 UNL     1      14.544   8.320  20.594  1.00  0.00     0.013 A 
ENDBRANCH  15  17
ENDBRANCH   5  14
TORSDOF 3
ENDMDL
MODEL 3
REMARK VINA RESULT: -3.228532213      1.865      2.584
REMARK  3 active torsions:
REMARK  status: ('A' for Active; 'I' for Inactive)
REMARK       I    between atoms: N1_2  and  C3_4 
REMARK       I    between atoms: C3_4  and  N2_6 
REMARK    1  A    between atoms: N2_6  and  N3_8 
REMARK       I    between atoms: N3_8  and  C4_10 
REMARK    2  A    between atoms: N5_12  and  N6_14 
REMARK    3  A    between atoms: C5_16  and  C6_17 
ROOT
HETATM    1  N3  UNL     1      17.417  14.234  21.408  1.00  0.00    -0.268 N 
ATOM      2  H3  UNL     1      17.552  14.576  20.457  1.00  0.00     0.190 HD
HETATM    3  C4  UNL     1      17.251  12.831  21.706  1.00  0.00     0.222 C 
HETATM    4  N4  UNL     1      18.140  12.234  22.610  1.00  0.00    -0.061 NA
HETATM    5  N5  UNL     1      16.283  12.255  21.099  1.00  0.00    -0.273 N 
ATOM      6  H5  UNL     1      15.685  12.772  20.454  1.00  0.00     0.189 HD
ENDROOT
BRANCH   1   7
HETATM    7  N2  UNL     1      17.381  15.089  22.508  1.00  0.00    -0.249 N 
HETATM    8  C3  UNL     1      18.613  15.465  23.103  1.00  0.00     0.336 C 
HETATM    9  N1  UNL     1      18.579  16.336  24.224  1.00  0.00    -0.342 N 
HETATM   10  O1  UNL     1      19.697  15.027  22.631  1.00  0.00    -0.245 OA
HETATM   11  C1  UNL     1      19.793  16.759  24.875  1.00  0.00     0.154 C 
HETATM   12  C2  UNL     1      17.298  16.797  24.708  1.00  0.00     0.154 C 
ATOM     13  H2  UNL     1      16.494  15.435  22.875  1.00  0.00     0.192 HD
ENDBRANCH   1   7
BRANCH   5  14
HETATM   14  N6  UNL     1      16.068  10.900  21.343  1.00  0.00    -0.309 N 
HETATM   15  C5  UNL     1      14.875  10.441  21.282  1.00  0.00     0.118 C 
ATOM     16  H6  UNL     1      16.849  10.284  21.567  1.00  0.00     0.186 HD
BRANCH  15  17
HETATM   17  C6  UNL     1      14.628   9.038  21.533  1.00  0.00    -0.019 A 
HETATM   18  C7  UNL     1      14.727   8.114  20.491  1.00  0.00     0.013 A 
HETATM   19  C8  UNL     1      14.488   6.783  20.750  1.00  0.00     0.001 A 
HETATM   20  C9  UNL     1      14.152   6.355  22.028  1.00  0.00     0.000 A 
HETATM   21  C10 UNL     1      14.064   7.303  23.031  1.00  0.00     0.001 A 
HETATM   22  C11 UNL     1      14.295   8.635  22.808  1.00  0.00     0.013 A 
ENDBRANCH  15  17
ENDBRANCH   5  14
TORSDOF 3
ENDMDL
MODEL 4
REMARK VINA RESULT: -3.219014133      1.857      2.492
REMARK  3 active torsions:
REMARK  status: ('A' for Active; 'I' for Inactive)
REMARK       I    between atoms: N1_2  and  C3_4 
REMARK       I    between atoms: C3_4  and  N2_6 
REMARK    1  A    between atoms: N2_6  and  N3_8 
REMARK       I    between atoms: N3_8  and  C4_10 
REMARK    2  A    between atoms: N5_12  and  N6_14 
REMARK    3  A    between atoms: C5_16  and  C6_17 
ROOT
HETATM    1  N3  UNL     1      19.222  13.007  22.407  1.00  0.00    -0.268 N 
ATOM      2  H3  UNL     1      19.912  12.372  22.006  1.00  0.00     0.190 HD
HETATM    3  C4  UNL     1      17.826  12.660  22.515  1.00  0.00     0.222 C 
HETATM    4  N4  UNL     1      17.229  12.697  23.782  1.00  0.00    -0.061 NA
HETATM    5  N5  UNL     1      17.254  12.343  21.415  1.00  0.00    -0.273 N 
ATOM      6  H5  UNL     1      17.772  12.343  20.536  1.00  0.00     0.189 HD
ENDROOT
BRANCH   1   7
HETATM    7  N2  UNL     1      19.566  14.269  22.888  1.00  0.00    -0.249 N 
HETATM    8  C3  UNL     1      20.426  14.344  24.014  1.00  0.00     0.336 C 
HETATM    9  N1  UNL     1      20.777  15.629  24.507  1.00  0.00    -0.342 N 
HETATM   10  O1  UNL     1      20.856  13.285  24.546  1.00  0.00    -0.245 OA
HETATM   11  C1  UNL     1      21.647  15.777  25.646  1.00  0.00     0.154 C 
HETATM   12  C2  UNL     1      20.245  16.797  23.845  1.00  0.00     0.154 C 
ATOM     13  H2  UNL     1      19.209  15.115  22.443  1.00  0.00     0.192 HD
ENDBRANCH   1   7
BRANCH   5  14
HETATM   14  N6  UNL     1      15.905  11.997  21.451  1.00  0.00    -0.309 N 
HETATM   15  C5  UNL     1      15.560  10.814  21.109  1.00  0.00     0.118 C 
ATOM     16  H6  UNL     1      15.204  12.677  21.744  1.00  0.00     0.186 HD
BRANCH  15  17
HETATM   17  C6  UNL     1      14.165  10.433  21.138  1.00  0.00    -0.019 A 
HETATM   18  C7  UNL     1      13.288  10.914  20.164  1.00  0.00     0.013 A 
HETATM   19  C8  UNL     1      11.963  10.539  20.209  1.00  0.00     0.001 A 
HETATM   20  C9  UNL     1      11.496   9.695  21.206  1.00  0.00     0.000 A 
HETATM   21  C10 UNL     1      12.396   9.242  22.153  1.00  0.00     0.001 A 
HETATM   22  C11 UNL     1      13.721   9.594  22.138  1.00  0.00     0.013 A 
ENDBRANCH  15  17
ENDBRANCH   5  14
TORSDOF 3
ENDMDL
MODEL 5
REMARK VINA RESULT: -3.128290241      1.264      1.904
REMARK  3 active torsions:
REMARK  status: ('A' for Active; 'I' for Inactive)
REMARK       I    between atoms: N1_2  and  C3_4 
REMARK       I    between atoms: C3_4  and  N2_6 
REMARK    1  A    between atoms: N2_6  and  N3_8 
REMARK       I    between atoms: N3_8  and  C4_10 
REMARK    2  A    between atoms: N5_12  and  N6_14 
REMARK    3  A    between atoms: C5_16  and  C6_17 
ROOT
HETATM    1  N3  UNL     1      17.371  13.946  23.187  1.00  0.00    -0.268 N 
ATOM      2  H3  UNL     1      16.647  14.483  23.664  1.00  0.00     0.190 HD
HETATM    3  C4  UNL     1      17.068  13.023  22.120  1.00  0.00     0.222 C 
HETATM    4  N4  UNL     1      17.695  13.211  20.881  1.00  0.00    -0.061 NA
HETATM    5  N5  UNL     1      16.235  12.098  22.417  1.00  0.00    -0.273 N 
ATOM      6  H5  UNL     1      15.827  12.040  23.351  1.00  0.00     0.189 HD
ENDROOT
BRANCH   1   7
HETATM    7  N2  UNL     1      18.720  14.056  23.521  1.00  0.00    -0.249 N 
HETATM    8  C3  UNL     1      19.332  12.968  24.195  1.00  0.00     0.336 C 
HETATM    9  N1  UNL     1      20.706  13.077  24.537  1.00  0.00    -0.342 N 
HETATM   10  O1  UNL     1      18.655  11.941  24.472  1.00  0.00    -0.245 OA
HETATM   11  C1  UNL     1      21.390  12.009  25.221  1.00  0.00     0.154 C 
HETATM   12  C2  UNL     1      21.416  14.285  24.187  1.00  0.00     0.154 C 
ATOM     13  H2  UNL     1      19.252  14.895  23.287  1.00  0.00     0.192 HD
ENDBRANCH   1   7
BRANCH   5  14
HETATM   14  N6  UNL     1      15.900  11.173  21.431  1.00  0.00    -0.309 N 
HETATM   15  C5  UNL     1      14.735  10.646  21.447  1.00  0.00     0.118 C 
ATOM     16  H6  UNL     1      16.573  10.920  20.708  1.00  0.00     0.186 HD
BRANCH  15  17
HETATM   17  C6  UNL     1      14.365   9.682  20.434  1.00  0.00    -0.019 A 
HETATM   18  C7  UNL     1      13.795  10.112  19.234  1.00  0.00     0.013 A 
HETATM   19  C8  UNL     1      13.450   9.179  18.282  1.00  0.00     0.001 A 
HETATM   20  C9  UNL     1      13.663   7.825  18.502  1.00  0.00     0.000 A 
HETATM   21  C10 UNL     1      14.230   7.440  19.704  1.00  0.00     0.001 A 
HETATM   22  C11 UNL     1      14.585   8.342  20.673  1.00  0.00     0.013 A 
ENDBRANCH  15  17
ENDBRANCH   5  14
TORSDOF 3
ENDMDL
