MODEL 1
REMARK VINA RESULT: -3.329347164      0.000      0.000
REMARK  6 active torsions:
REMARK  status: ('A' for Active; 'I' for Inactive)
REMARK    1  A    between atoms: C3_3  and  C4_4 
REMARK    2  A    between atoms: C4_4  and  O1_5 
REMARK    3  A    between atoms: O1_5  and  C5_6 
REMARK    4  A    between atoms: C9_10  and  N1_11 
REMARK    5  A    between atoms: C13_15  and  O2_16 
REMARK    6  A    between atoms: C14_18  and  O3_19 
ROOT
HETATM    1  C1  UNL     1      18.611   5.223  21.365  1.00  0.00     0.112 C 
HETATM    2  C2  UNL     1      17.269   5.844  21.440  1.00  0.00    -0.107 C 
HETATM    3  C3  UNL     1      16.183   6.362  21.495  1.00  0.00    -0.061 C 
ENDROOT
BRANCH   3   4
HETATM    4  C4  UNL     1      14.877   6.966  21.545  1.00  0.00     0.172 C 
HETATM    5  C8  UNL     1      14.940   8.475  21.539  1.00  0.00     0.062 C 
HETATM    6  C9  UNL     1      13.990   8.986  20.800  1.00  0.00     0.144 C 
HETATM    7  C13 UNL     1      13.183   7.877  20.249  1.00  0.00     0.208 C 
HETATM    8  C14 UNL     1      14.187   6.755  20.186  1.00  0.00     0.204 C 
BRANCH   4   9
HETATM    9  O1  UNL     1      14.046   6.529  22.517  1.00  0.00    -0.357 OA
BRANCH   9  10
HETATM   10  C5  UNL     1      13.880   7.301  23.618  1.00  0.00     0.116 C 
HETATM   11  C6  UNL     1      12.366   7.404  23.870  1.00  0.00     0.039 C 
HETATM   12  C7  UNL     1      14.473   6.767  24.890  1.00  0.00     0.039 C 
ENDBRANCH   9  10
ENDBRANCH   4   9
BRANCH   6  13
HETATM   13  N1  UNL     1      13.684  10.355  20.516  1.00  0.00    -0.050 N 
HETATM   14  C10 UNL     1      14.783  11.150  21.030  1.00  0.00     0.278 C 
HETATM   15  C11 UNL     1      13.577  10.570  19.092  1.00  0.00     0.278 C 
HETATM   16  C12 UNL     1      12.476  10.804  21.135  1.00  0.00     0.278 C 
ENDBRANCH   6  13
BRANCH   7  17
HETATM   17  O2  UNL     1      12.641   8.175  19.005  1.00  0.00    -0.387 OA
ATOM     18  H2  UNL     1      12.001   7.533  18.720  1.00  0.00     0.210 HD
ENDBRANCH   7  17
BRANCH   8  19
HETATM   19  O3  UNL     1      15.102   6.969  19.174  1.00  0.00    -0.388 OA
ATOM     20  H3  UNL     1      14.646   6.987  18.340  1.00  0.00     0.210 HD
ENDBRANCH   8  19
ENDBRANCH   3   4
TORSDOF 6
ENDMDL
MODEL 2
REMARK VINA RESULT: -2.175304263      1.850      3.780
REMARK  6 active torsions:
REMARK  status: ('A' for Active; 'I' for Inactive)
REMARK    1  A    between atoms: C3_3  and  C4_4 
REMARK    2  A    between atoms: C4_4  and  O1_5 
REMARK    3  A    between atoms: O1_5  and  C5_6 
REMARK    4  A    between atoms: C9_10  and  N1_11 
REMARK    5  A    between atoms: C13_15  and  O2_16 
REMARK    6  A    between atoms: C14_18  and  O3_19 
ROOT
HETATM    1  C1  UNL     1      12.842   6.619  25.518  1.00  0.00     0.112 C 
HETATM    2  C2  UNL     1      13.414   7.158  24.264  1.00  0.00    -0.107 C 
HETATM    3  C3  UNL     1      13.867   7.603  23.240  1.00  0.00    -0.061 C 
ENDROOT
BRANCH   3   4
HETATM    4  C4  UNL     1      14.424   8.147  22.029  1.00  0.00     0.172 C 
HETATM    5  C8  UNL     1      13.500   7.980  20.846  1.00  0.00     0.062 C 
HETATM    6  C9  UNL     1      13.514   9.040  20.081  1.00  0.00     0.144 C 
HETATM    7  C13 UNL     1      14.459  10.019  20.660  1.00  0.00     0.208 C 
HETATM    8  C14 UNL     1      14.403   9.683  22.127  1.00  0.00     0.204 C 
BRANCH   4   9
HETATM    9  O1  UNL     1      15.678   7.758  21.711  1.00  0.00    -0.357 OA
BRANCH   9  10
HETATM   10  C5  UNL     1      15.858   6.516  21.202  1.00  0.00     0.116 C 
HETATM   11  C6  UNL     1      16.001   6.671  19.679  1.00  0.00     0.039 C 
HETATM   12  C7  UNL     1      17.090   5.790  21.659  1.00  0.00     0.039 C 
ENDBRANCH   9  10
ENDBRANCH   4   9
BRANCH   6  13
HETATM   13  N1  UNL     1      12.797   9.308  18.871  1.00  0.00    -0.050 N 
HETATM   14  C10 UNL     1      12.921   8.130  18.035  1.00  0.00     0.278 C 
HETATM   15  C11 UNL     1      11.398   9.541  19.147  1.00  0.00     0.278 C 
HETATM   16  C12 UNL     1      13.310  10.430  18.147  1.00  0.00     0.278 C 
ENDBRANCH   6  13
BRANCH   7  17
HETATM   17  O2  UNL     1      14.092  11.334  20.402  1.00  0.00    -0.387 OA
ATOM     18  H2  UNL     1      14.764  11.816  19.933  1.00  0.00     0.210 HD
ENDBRANCH   7  17
BRANCH   8  19
HETATM   19  O3  UNL     1      13.204  10.087  22.680  1.00  0.00    -0.388 OA
ATOM     20  H3  UNL     1      13.361  10.432  23.551  1.00  0.00     0.210 HD
ENDBRANCH   8  19
ENDBRANCH   3   4
TORSDOF 6
ENDMDL
MODEL 3
REMARK VINA RESULT: -2.046836051      1.666      2.344
REMARK  6 active torsions:
REMARK  status: ('A' for Active; 'I' for Inactive)
REMARK    1  A    between atoms: C3_3  and  C4_4 
REMARK    2  A    between atoms: C4_4  and  O1_5 
REMARK    3  A    between atoms: O1_5  and  C5_6 
REMARK    4  A    between atoms: C9_10  and  N1_11 
REMARK    5  A    between atoms: C13_15  and  O2_16 
REMARK    6  A    between atoms: C14_18  and  O3_19 
ROOT
HETATM    1  C1  UNL     1      17.676   8.625  25.230  1.00  0.00     0.112 C 
HETATM    2  C2  UNL     1      16.616   8.230  24.276  1.00  0.00    -0.107 C 
HETATM    3  C3  UNL     1      15.744   7.905  23.511  1.00  0.00    -0.061 C 
ENDROOT
BRANCH   3   4
HETATM    4  C4  UNL     1      14.701   7.539  22.588  1.00  0.00     0.172 C 
HETATM    5  C8  UNL     1      14.317   8.678  21.673  1.00  0.00     0.062 C 
HETATM    6  C9  UNL     1      14.092   8.253  20.458  1.00  0.00     0.144 C 
HETATM    7  C13 UNL     1      14.284   6.787  20.434  1.00  0.00     0.208 C 
HETATM    8  C14 UNL     1      15.290   6.582  21.537  1.00  0.00     0.204 C 
BRANCH   4   9
HETATM    9  O1  UNL     1      13.599   6.963  23.119  1.00  0.00    -0.357 OA
BRANCH   9  10
HETATM   10  C5  UNL     1      13.060   7.510  24.234  1.00  0.00     0.116 C 
HETATM   11  C6  UNL     1      11.548   7.640  23.985  1.00  0.00     0.039 C 
HETATM   12  C7  UNL     1      13.200   6.705  25.494  1.00  0.00     0.039 C 
ENDBRANCH   9  10
ENDBRANCH   4   9
BRANCH   6  13
HETATM   13  N1  UNL     1      13.710   8.982  19.287  1.00  0.00    -0.050 N 
HETATM   14  C10 UNL     1      13.364  10.323  19.717  1.00  0.00     0.278 C 
HETATM   15  C11 UNL     1      14.808   9.060  18.352  1.00  0.00     0.278 C 
HETATM   16  C12 UNL     1      12.580   8.419  18.614  1.00  0.00     0.278 C 
ENDBRANCH   6  13
BRANCH   7  17
HETATM   17  O2  UNL     1      14.742   6.326  19.206  1.00  0.00    -0.387 OA
ATOM     18  H2  UNL     1      14.962   5.402  19.220  1.00  0.00     0.210 HD
ENDBRANCH   7  17
BRANCH   8  19
HETATM   19  O3  UNL     1      16.537   7.037  21.157  1.00  0.00    -0.388 OA
ATOM     20  H3  UNL     1      16.671   7.912  21.504  1.00  0.00     0.210 HD
ENDBRANCH   8  19
ENDBRANCH   3   4
TORSDOF 6
ENDMDL
MODEL 4
REMARK VINA RESULT: -1.646037513      1.739      3.734
REMARK  6 active torsions:
REMARK  status: ('A' for Active; 'I' for Inactive)
REMARK    1  A    between atoms: C3_3  and  C4_4 
REMARK    2  A    between atoms: C4_4  and  O1_5 
REMARK    3  A    between atoms: O1_5  and  C5_6 
REMARK    4  A    between atoms: C9_10  and  N1_11 
REMARK    5  A    between atoms: C13_15  and  O2_16 
REMARK    6  A    between atoms: C14_18  and  O3_19 
ROOT
HETATM    1  C1  UNL     1      13.330   6.623  25.821  1.00  0.00     0.112 C 
HETATM    2  C2  UNL     1      13.548   7.035  24.417  1.00  0.00    -0.107 C 
HETATM    3  C3  UNL     1      13.722   7.357  23.269  1.00  0.00    -0.061 C 
ENDROOT
BRANCH   3   4
HETATM    4  C4  UNL     1      13.911   7.757  21.898  1.00  0.00     0.172 C 
HETATM    5  C8  UNL     1      12.668   8.377  21.303  1.00  0.00     0.062 C 
HETATM    6  C9  UNL     1      12.967   9.394  20.538  1.00  0.00     0.144 C 
HETATM    7  C13 UNL     1      14.436   9.552  20.526  1.00  0.00     0.208 C 
HETATM    8  C14 UNL     1      14.825   8.994  21.871  1.00  0.00     0.204 C 
BRANCH   4   9
HETATM    9  O1  UNL     1      14.426   6.828  21.063  1.00  0.00    -0.357 OA
BRANCH   9  10
HETATM   10  C5  UNL     1      15.707   6.975  20.648  1.00  0.00     0.116 C 
HETATM   11  C6  UNL     1      16.569   6.045  21.519  1.00  0.00     0.039 C 
HETATM   12  C7  UNL     1      15.985   6.581  19.226  1.00  0.00     0.039 C 
ENDBRANCH   9  10
ENDBRANCH   4   9
BRANCH   6  13
HETATM   13  N1  UNL     1      12.109  10.261  19.788  1.00  0.00    -0.050 N 
HETATM   14  C10 UNL     1      11.340   9.421  18.890  1.00  0.00     0.278 C 
HETATM   15  C11 UNL     1      11.200  10.963  20.664  1.00  0.00     0.278 C 
HETATM   16  C12 UNL     1      12.821  11.223  19.006  1.00  0.00     0.278 C 
ENDBRANCH   6  13
BRANCH   7  17
HETATM   17  O2  UNL     1      14.832  10.874  20.365  1.00  0.00    -0.387 OA
ATOM     18  H2  UNL     1      15.714  10.953  20.020  1.00  0.00     0.210 HD
ENDBRANCH   7  17
BRANCH   8  19
HETATM   19  O3  UNL     1      14.457   9.855  22.886  1.00  0.00    -0.388 OA
ATOM     20  H3  UNL     1      14.955  10.661  22.810  1.00  0.00     0.210 HD
ENDBRANCH   8  19
ENDBRANCH   3   4
TORSDOF 6
ENDMDL
MODEL 5
REMARK VINA RESULT: -1.156800036      1.589      2.017
REMARK  6 active torsions:
REMARK  status: ('A' for Active; 'I' for Inactive)
REMARK    1  A    between atoms: C3_3  and  C4_4 
REMARK    2  A    between atoms: C4_4  and  O1_5 
REMARK    3  A    between atoms: O1_5  and  C5_6 
REMARK    4  A    between atoms: C9_10  and  N1_11 
REMARK    5  A    between atoms: C13_15  and  O2_16 
REMARK    6  A    between atoms: C14_18  and  O3_19 
ROOT
HETATM    1  C1  UNL     1      17.778   6.245  17.546  1.00  0.00     0.112 C 
HETATM    2  C2  UNL     1      16.640   6.692  18.380  1.00  0.00    -0.107 C 
HETATM    3  C3  UNL     1      15.704   7.047  19.050  1.00  0.00    -0.061 C 
ENDROOT
BRANCH   3   4
HETATM    4  C4  UNL     1      14.596   7.462  19.870  1.00  0.00     0.172 C 
HETATM    5  C8  UNL     1      14.685   8.917  20.264  1.00  0.00     0.062 C 
HETATM    6  C9  UNL     1      13.510   9.489  20.230  1.00  0.00     0.144 C 
HETATM    7  C13 UNL     1      12.511   8.477  19.827  1.00  0.00     0.208 C 
HETATM    8  C14 UNL     1      13.335   7.534  18.990  1.00  0.00     0.204 C 
BRANCH   4   9
HETATM    9  O1  UNL     1      14.319   6.693  20.947  1.00  0.00    -0.357 OA
BRANCH   9  10
HETATM   10  C5  UNL     1      14.964   6.957  22.108  1.00  0.00     0.116 C 
HETATM   11  C6  UNL     1      14.017   6.549  23.250  1.00  0.00     0.039 C 
HETATM   12  C7  UNL     1      16.237   6.197  22.340  1.00  0.00     0.039 C 
ENDBRANCH   9  10
ENDBRANCH   4   9
BRANCH   6  13
HETATM   13  N1  UNL     1      13.139  10.841  20.524  1.00  0.00    -0.050 N 
HETATM   14  C10 UNL     1      14.263  11.450  21.208  1.00  0.00     0.278 C 
HETATM   15  C11 UNL     1      12.879  11.575  19.307  1.00  0.00     0.278 C 
HETATM   16  C12 UNL     1      11.990  10.940  21.369  1.00  0.00     0.278 C 
ENDBRANCH   6  13
BRANCH   7  17
HETATM   17  O2  UNL     1      11.448   9.025  19.120  1.00  0.00    -0.387 OA
ATOM     18  H2  UNL     1      10.743   9.319  19.686  1.00  0.00     0.210 HD
ENDBRANCH   7  17
BRANCH   8  19
HETATM   19  O3  UNL     1      13.660   8.109  17.777  1.00  0.00    -0.388 OA
ATOM     20  H3  UNL     1      14.394   8.701  17.897  1.00  0.00     0.210 HD
ENDBRANCH   8  19
ENDBRANCH   3   4
TORSDOF 6
ENDMDL
