MODEL 1
REMARK VINA RESULT: -6.394127174      0.000      0.000
REMARK  3 active torsions:
REMARK  status: ('A' for Active; 'I' for Inactive)
REMARK    1  A    between atoms: N3_4  and  C2_6 
REMARK    2  A    between atoms: C3_7  and  C4_8 
REMARK    3  A    between atoms: C6_15  and  C7_16 
ROOT
HETATM    1  C2  UNL     1      13.743   8.545  20.635  1.00  0.00     0.140 C 
HETATM    2  C3  UNL     1      14.550   8.557  19.322  1.00  0.00     0.168 C 
HETATM    3  N4  UNL     1      14.970   7.187  19.115  1.00  0.00    -0.373 N 
ATOM      4  H4  UNL     1      14.698   6.653  18.289  1.00  0.00     0.161 HD
HETATM    5  C5  UNL     1      15.788   6.634  20.142  1.00  0.00     0.172 C 
HETATM    6  N5  UNL     1      15.622   7.083  21.324  1.00  0.00    -0.376 N 
ATOM      7  H5  UNL     1      16.208   6.690  22.061  1.00  0.00     0.161 HD
HETATM    8  C6  UNL     1      14.674   8.100  21.702  1.00  0.00     0.140 C 
ENDROOT
BRANCH   8   9
HETATM    9  C7  UNL     1      14.058   7.706  22.978  1.00  0.00    -0.034 A 
HETATM   10  C8  UNL     1      14.866   7.205  23.975  1.00  0.00     0.009 A 
HETATM   11  C9  UNL     1      14.347   6.805  25.201  1.00  0.00     0.001 A 
HETATM   12  C10 UNL     1      12.994   6.909  25.424  1.00  0.00     0.000 A 
HETATM   13  C11 UNL     1      12.159   7.405  24.447  1.00  0.00     0.001 A 
HETATM   14  C12 UNL     1      12.715   7.802  23.220  1.00  0.00     0.009 A 
ENDBRANCH   8   9
BRANCH   1  15
HETATM   15  N3  UNL     1      13.332   9.917  20.849  1.00  0.00    -0.358 N 
HETATM   16  C1  UNL     1      12.168  10.399  20.777  1.00  0.00     0.197 C 
HETATM   17  N1  UNL     1      12.028  11.794  21.035  1.00  0.00    -0.067 NA
HETATM   18  N2  UNL     1      10.991   9.630  20.459  1.00  0.00    -0.067 NA
ATOM     19  H3  UNL     1      14.074  10.574  21.087  1.00  0.00     0.162 HD
ENDBRANCH   1  15
BRANCH   2  20
HETATM   20  C4  UNL     1      13.774   9.077  18.188  1.00  0.00     0.258 C 
HETATM   21  O1  UNL     1      12.780   8.479  17.832  1.00  0.00    -0.305 OA
ENDBRANCH   2  20
TORSDOF 3
ENDMDL
MODEL 2
REMARK VINA RESULT: -6.253317166      0.069      1.120
REMARK  3 active torsions:
REMARK  status: ('A' for Active; 'I' for Inactive)
REMARK    1  A    between atoms: N3_4  and  C2_6 
REMARK    2  A    between atoms: C3_7  and  C4_8 
REMARK    3  A    between atoms: C6_15  and  C7_16 
ROOT
HETATM    1  C2  UNL     1      13.773   8.506  20.670  1.00  0.00     0.140 C 
HETATM    2  C3  UNL     1      14.559   8.528  19.345  1.00  0.00     0.168 C 
HETATM    3  N4  UNL     1      14.983   7.160  19.126  1.00  0.00    -0.373 N 
ATOM      4  H4  UNL     1      14.701   6.629  18.302  1.00  0.00     0.161 HD
HETATM    5  C5  UNL     1      15.819   6.608  20.137  1.00  0.00     0.172 C 
HETATM    6  N5  UNL     1      15.670   7.051  21.323  1.00  0.00    -0.376 N 
ATOM      7  H5  UNL     1      16.269   6.658  22.049  1.00  0.00     0.161 HD
HETATM    8  C6  UNL     1      14.723   8.061  21.721  1.00  0.00     0.140 C 
ENDROOT
BRANCH   8   9
HETATM    9  C7  UNL     1      14.128   7.658  23.004  1.00  0.00    -0.034 A 
HETATM   10  C8  UNL     1      12.768   7.794  23.173  1.00  0.00     0.009 A 
HETATM   11  C9  UNL     1      12.143   7.442  24.365  1.00  0.00     0.001 A 
HETATM   12  C10 UNL     1      12.901   6.947  25.399  1.00  0.00     0.000 A 
HETATM   13  C11 UNL     1      14.264   6.799  25.262  1.00  0.00     0.001 A 
HETATM   14  C12 UNL     1      14.864   7.164  24.046  1.00  0.00     0.009 A 
ENDBRANCH   8   9
BRANCH   1  15
HETATM   15  N3  UNL     1      13.357   9.874  20.896  1.00  0.00    -0.358 N 
HETATM   16  C1  UNL     1      12.195  10.359  20.805  1.00  0.00     0.197 C 
HETATM   17  N1  UNL     1      12.051  11.749  21.082  1.00  0.00    -0.067 NA
HETATM   18  N2  UNL     1      11.025   9.596  20.449  1.00  0.00    -0.067 NA
ATOM     19  H3  UNL     1      14.094  10.527  21.162  1.00  0.00     0.162 HD
ENDBRANCH   1  15
BRANCH   2  20
HETATM   20  C4  UNL     1      13.762   9.048  18.226  1.00  0.00     0.258 C 
HETATM   21  O1  UNL     1      12.794   8.420  17.851  1.00  0.00    -0.305 OA
ENDBRANCH   2  20
TORSDOF 3
ENDMDL
MODEL 3
REMARK VINA RESULT: -6.178281013      2.917      4.575
REMARK  3 active torsions:
REMARK  status: ('A' for Active; 'I' for Inactive)
REMARK    1  A    between atoms: N3_4  and  C2_6 
REMARK    2  A    between atoms: C3_7  and  C4_8 
REMARK    3  A    between atoms: C6_15  and  C7_16 
ROOT
HETATM    1  C2  UNL     1      14.885   7.737  19.749  1.00  0.00     0.140 C 
HETATM    2  C3  UNL     1      15.811   7.257  18.615  1.00  0.00     0.168 C 
HETATM    3  N4  UNL     1      16.186   8.455  17.891  1.00  0.00    -0.373 N 
ATOM      4  H4  UNL     1      17.157   8.754  17.801  1.00  0.00     0.161 HD
HETATM    5  C5  UNL     1      15.108   9.185  17.314  1.00  0.00     0.172 C 
HETATM    6  N5  UNL     1      13.978   9.117  17.902  1.00  0.00    -0.376 N 
ATOM      7  H5  UNL     1      13.204   9.638  17.490  1.00  0.00     0.161 HD
HETATM    8  C6  UNL     1      13.707   8.365  19.099  1.00  0.00     0.140 C 
ENDROOT
BRANCH   8   9
HETATM    9  C7  UNL     1      12.842   9.176  19.969  1.00  0.00    -0.034 A 
HETATM   10  C8  UNL     1      11.713   9.750  19.427  1.00  0.00     0.009 A 
HETATM   11  C9  UNL     1      10.858  10.537  20.191  1.00  0.00     0.001 A 
HETATM   12  C10 UNL     1      11.145  10.747  21.518  1.00  0.00     0.000 A 
HETATM   13  C11 UNL     1      12.266  10.187  22.090  1.00  0.00     0.001 A 
HETATM   14  C12 UNL     1      13.109   9.397  21.292  1.00  0.00     0.009 A 
ENDBRANCH   8   9
BRANCH   1  15
HETATM   15  N3  UNL     1      14.501   6.540  20.468  1.00  0.00    -0.358 N 
HETATM   16  C1  UNL     1      14.760   6.235  21.665  1.00  0.00     0.197 C 
HETATM   17  N1  UNL     1      14.261   4.987  22.137  1.00  0.00    -0.067 NA
HETATM   18  N2  UNL     1      15.513   7.069  22.568  1.00  0.00    -0.067 NA
ATOM     19  H3  UNL     1      13.954   5.859  19.942  1.00  0.00     0.162 HD
ENDBRANCH   1  15
BRANCH   2  20
HETATM   20  C4  UNL     1      16.980   6.522  19.116  1.00  0.00     0.258 C 
HETATM   21  O1  UNL     1      17.666   5.902  18.330  1.00  0.00    -0.305 OA
ENDBRANCH   2  20
TORSDOF 3
ENDMDL
MODEL 4
REMARK VINA RESULT: -6.158456579      1.246      3.536
REMARK  3 active torsions:
REMARK  status: ('A' for Active; 'I' for Inactive)
REMARK    1  A    between atoms: N3_4  and  C2_6 
REMARK    2  A    between atoms: C3_7  and  C4_8 
REMARK    3  A    between atoms: C6_15  and  C7_16 
ROOT
HETATM    1  C2  UNL     1      13.820   8.723  20.262  1.00  0.00     0.140 C 
HETATM    2  C3  UNL     1      13.209   9.686  19.225  1.00  0.00     0.168 C 
HETATM    3  N4  UNL     1      13.208  10.987  19.862  1.00  0.00    -0.373 N 
ATOM      4  H4  UNL     1      13.715  11.783  19.475  1.00  0.00     0.161 HD
HETATM    5  C5  UNL     1      12.452  11.081  21.066  1.00  0.00     0.172 C 
HETATM    6  N5  UNL     1      12.341  10.022  21.768  1.00  0.00    -0.376 N 
ATOM      7  H5  UNL     1      11.799  10.086  22.629  1.00  0.00     0.161 HD
HETATM    8  C6  UNL     1      12.921   8.744  21.443  1.00  0.00     0.140 C 
ENDROOT
BRANCH   8   9
HETATM    9  C7  UNL     1      13.459   8.153  22.678  1.00  0.00    -0.034 A 
HETATM   10  C8  UNL     1      12.576   7.659  23.613  1.00  0.00     0.009 A 
HETATM   11  C9  UNL     1      13.017   7.097  24.806  1.00  0.00     0.001 A 
HETATM   12  C10 UNL     1      14.367   7.033  25.059  1.00  0.00     0.000 A 
HETATM   13  C11 UNL     1      15.275   7.518  24.144  1.00  0.00     0.001 A 
HETATM   14  C12 UNL     1      14.798   8.079  22.949  1.00  0.00     0.009 A 
ENDBRANCH   8   9
BRANCH   1  15
HETATM   15  N3  UNL     1      13.812   7.420  19.630  1.00  0.00    -0.358 N 
HETATM   16  C1  UNL     1      14.778   6.620  19.486  1.00  0.00     0.197 C 
HETATM   17  N1  UNL     1      14.504   5.389  18.823  1.00  0.00    -0.067 NA
HETATM   18  N2  UNL     1      16.117   6.876  19.953  1.00  0.00    -0.067 NA
ATOM     19  H3  UNL     1      12.916   7.110  19.256  1.00  0.00     0.162 HD
ENDBRANCH   1  15
BRANCH   2  20
HETATM   20  C4  UNL     1      13.948   9.690  17.956  1.00  0.00     0.258 C 
HETATM   21  O1  UNL     1      15.156   9.579  17.978  1.00  0.00    -0.305 OA
ENDBRANCH   2  20
TORSDOF 3
ENDMDL
MODEL 5
REMARK VINA RESULT: -6.146573219      1.244      3.412
REMARK  3 active torsions:
REMARK  status: ('A' for Active; 'I' for Inactive)
REMARK    1  A    between atoms: N3_4  and  C2_6 
REMARK    2  A    between atoms: C3_7  and  C4_8 
REMARK    3  A    between atoms: C6_15  and  C7_16 
ROOT
HETATM    1  C2  UNL     1      13.806   8.755  20.296  1.00  0.00     0.140 C 
HETATM    2  C3  UNL     1      13.237   9.731  19.247  1.00  0.00     0.168 C 
HETATM    3  N4  UNL     1      13.236  11.029  19.890  1.00  0.00    -0.373 N 
ATOM      4  H4  UNL     1      13.764  11.819  19.520  1.00  0.00     0.161 HD
HETATM    5  C5  UNL     1      12.447  11.127  21.072  1.00  0.00     0.172 C 
HETATM    6  N5  UNL     1      12.303  10.067  21.766  1.00  0.00    -0.376 N 
ATOM      7  H5  UNL     1      11.738  10.134  22.612  1.00  0.00     0.161 HD
HETATM    8  C6  UNL     1      12.875   8.783  21.451  1.00  0.00     0.140 C 
ENDROOT
BRANCH   8   9
HETATM    9  C7  UNL     1      13.371   8.180  22.698  1.00  0.00    -0.034 A 
HETATM   10  C8  UNL     1      14.731   8.130  22.912  1.00  0.00     0.009 A 
HETATM   11  C9  UNL     1      15.266   7.565  24.065  1.00  0.00     0.001 A 
HETATM   12  C10 UNL     1      14.419   7.042  25.013  1.00  0.00     0.000 A 
HETATM   13  C11 UNL     1      13.054   7.076  24.828  1.00  0.00     0.001 A 
HETATM   14  C12 UNL     1      12.545   7.655  23.653  1.00  0.00     0.009 A 
ENDBRANCH   8   9
BRANCH   1  15
HETATM   15  N3  UNL     1      13.799   7.455  19.659  1.00  0.00    -0.358 N 
HETATM   16  C1  UNL     1      14.754   6.636  19.552  1.00  0.00     0.197 C 
HETATM   17  N1  UNL     1      14.484   5.413  18.873  1.00  0.00    -0.067 NA
HETATM   18  N2  UNL     1      16.077   6.862  20.077  1.00  0.00    -0.067 NA
ATOM     19  H3  UNL     1      12.914   7.165  19.245  1.00  0.00     0.162 HD
ENDBRANCH   1  15
BRANCH   2  20
HETATM   20  C4  UNL     1      14.012   9.730  17.999  1.00  0.00     0.258 C 
HETATM   21  O1  UNL     1      15.212   9.556  18.051  1.00  0.00    -0.305 OA
ENDBRANCH   2  20
TORSDOF 3
ENDMDL
