MODEL 1
REMARK VINA RESULT: -7.440951792      0.000      0.000
REMARK  10 active torsions:
REMARK  status: ('A' for Active; 'I' for Inactive)
REMARK       I    between atoms: N1_2  and  C2_4 
REMARK    1  A    between atoms: C2_4  and  C3_6 
REMARK    2  A    between atoms: C4_9  and  N3_10 
REMARK       I    between atoms: N3_10  and  C5_12 
REMARK    3  A    between atoms: C5_12  and  C6_14 
REMARK    4  A    between atoms: C7_15  and  N4_16 
REMARK    5  A    between atoms: N4_16  and  O3_18 
REMARK    6  A    between atoms: C8_21  and  N6_22 
REMARK    7  A    between atoms: N7_25  and  N8_26 
REMARK    8  A    between atoms: C10_32  and  C11_33 
REMARK    9  A    between atoms: C11_33  and  O4_34 
REMARK   10  A    between atoms: C11_33  and  O5_36 
ROOT
HETATM    1  C3  UNL     1      25.507 -18.473  13.186  1.00  0.00     0.131 A 
HETATM    2  N2  UNL     1      25.389 -18.770  11.844  1.00  0.00    -0.184 N 
ATOM      3  H2  UNL     1      25.845 -19.607  11.482  1.00  0.00     0.184 HD
HETATM    4  C4  UNL     1      24.696 -17.994  11.000  1.00  0.00     0.708 A 
HETATM    5  N5  UNL     1      24.090 -16.879  11.478  1.00  0.00     0.043 N 
HETATM    6  C8  UNL     1      23.347 -15.940  10.861  1.00  0.00     0.735 A 
HETATM    7  N7  UNL     1      22.967 -15.017  11.790  1.00  0.00    -0.025 N 
HETATM    8  N9  UNL     1      23.495 -15.430  12.939  1.00  0.00    -0.247 N 
ATOM      9  H9  UNL     1      23.387 -14.944  13.829  1.00  0.00     0.191 HD
HETATM   10  C9  UNL     1      24.175 -16.549  12.777  1.00  0.00     0.177 A 
HETATM   11  C10 UNL     1      24.897 -17.353  13.676  1.00  0.00     0.076 A 
ENDROOT
BRANCH   4  12
HETATM   12  N3  UNL     1      24.572 -18.245   9.761  1.00  0.00    -0.155 N 
HETATM   13  C5  UNL     1      25.598 -18.331   8.814  1.00  0.00     0.260 C 
HETATM   14  O2  UNL     1      26.351 -19.339   8.793  1.00  0.00    -0.268 OA
ATOM     15  H3  UNL     1      23.623 -18.399   9.420  1.00  0.00     0.187 HD
BRANCH  13  16
HETATM   16  C6  UNL     1      25.785 -17.246   7.854  1.00  0.00     0.094 C 
HETATM   17  C7  UNL     1      24.790 -16.774   7.122  1.00  0.00     0.119 C 
BRANCH  17  18
HETATM   18  N4  UNL     1      25.012 -15.718   6.199  1.00  0.00    -0.280 N 
ATOM     19  H4  UNL     1      25.409 -14.843   6.542  1.00  0.00     0.193 HD
BRANCH  18  20
HETATM   20  O3  UNL     1      24.722 -15.827   4.900  1.00  0.00    -0.290 OA
ATOM     21  H3  UNL     1      25.389 -15.956   4.236  1.00  0.00     0.244 HD
ENDBRANCH  18  20
ENDBRANCH  17  18
ENDBRANCH  13  16
ENDBRANCH   4  12
BRANCH   1  22
HETATM   22  C2  UNL     1      26.280 -19.439  13.937  1.00  0.00     0.269 C 
HETATM   23  N1  UNL     1      25.888 -20.722  14.352  1.00  0.00    -0.360 N 
HETATM   24  C1  UNL     1      26.782 -21.610  15.106  1.00  0.00     0.149 C 
ATOM     25  H1  UNL     1      24.949 -21.048  14.122  1.00  0.00     0.162 HD
HETATM   26  O1  UNL     1      27.481 -19.118  14.295  1.00  0.00    -0.266 OA
ENDBRANCH   1  22
BRANCH   6  27
HETATM   27  N6  UNL     1      23.021 -15.874   9.620  1.00  0.00    -0.230 N 
ATOM     28  H62 UNL     1      23.570 -16.295   8.870  1.00  0.00     0.174 HD
ATOM     29  H61 UNL     1      22.209 -15.417   9.205  1.00  0.00     0.174 HD
ENDBRANCH   6  27
BRANCH  11  30
HETATM   30  C11 UNL     1      24.888 -16.987  15.112  1.00  0.00     0.294 C 
BRANCH  30  31
HETATM   31  O4  UNL     1      25.433 -18.111  15.843  1.00  0.00    -0.367 OA
ATOM     32  H4  UNL     1      26.229 -17.812  16.266  1.00  0.00     0.213 HD
ENDBRANCH  30  31
BRANCH  30  33
HETATM   33  O5  UNL     1      23.610 -16.864  15.589  1.00  0.00    -0.367 OA
ATOM     34  H5  UNL     1      23.465 -16.010  15.980  1.00  0.00     0.213 HD
ENDBRANCH  30  33
ENDBRANCH  11  30
BRANCH   7  35
HETATM   35  N8  UNL     1      22.189 -13.876  11.588  1.00  0.00    -0.309 N 
ATOM     36  H82 UNL     1      22.341 -13.147  10.892  1.00  0.00     0.179 HD
ATOM     37  H81 UNL     1      21.353 -13.594  12.100  1.00  0.00     0.179 HD
ENDBRANCH   7  35
TORSDOF 10
ENDMDL
MODEL 2
REMARK VINA RESULT: -6.380183484      2.836      6.361
REMARK  10 active torsions:
REMARK  status: ('A' for Active; 'I' for Inactive)
REMARK       I    between atoms: N1_2  and  C2_4 
REMARK    1  A    between atoms: C2_4  and  C3_6 
REMARK    2  A    between atoms: C4_9  and  N3_10 
REMARK       I    between atoms: N3_10  and  C5_12 
REMARK    3  A    between atoms: C5_12  and  C6_14 
REMARK    4  A    between atoms: C7_15  and  N4_16 
REMARK    5  A    between atoms: N4_16  and  O3_18 
REMARK    6  A    between atoms: C8_21  and  N6_22 
REMARK    7  A    between atoms: N7_25  and  N8_26 
REMARK    8  A    between atoms: C10_32  and  C11_33 
REMARK    9  A    between atoms: C11_33  and  O4_34 
REMARK   10  A    between atoms: C11_33  and  O5_36 
ROOT
HETATM    1  C3  UNL     1      25.211 -16.279   9.439  1.00  0.00     0.131 A 
HETATM    2  N2  UNL     1      24.819 -15.228  10.243  1.00  0.00    -0.184 N 
ATOM      3  H2  UNL     1      24.607 -14.329   9.811  1.00  0.00     0.184 HD
HETATM    4  C4  UNL     1      24.706 -15.351  11.572  1.00  0.00     0.708 A 
HETATM    5  N5  UNL     1      24.987 -16.545  12.149  1.00  0.00     0.043 N 
HETATM    6  C8  UNL     1      24.959 -16.936  13.438  1.00  0.00     0.735 A 
HETATM    7  N7  UNL     1      25.330 -18.246  13.497  1.00  0.00    -0.025 N 
HETATM    8  N9  UNL     1      25.572 -18.603  12.238  1.00  0.00    -0.247 N 
ATOM      9  H9  UNL     1      25.874 -19.535  11.952  1.00  0.00     0.191 HD
HETATM   10  C9  UNL     1      25.372 -17.597  11.408  1.00  0.00     0.177 A 
HETATM   11  C10 UNL     1      25.494 -17.486  10.013  1.00  0.00     0.076 A 
ENDROOT
BRANCH   4  12
HETATM   12  N3  UNL     1      24.346 -14.400  12.334  1.00  0.00    -0.155 N 
HETATM   13  C5  UNL     1      23.120 -13.728  12.318  1.00  0.00     0.260 C 
HETATM   14  O2  UNL     1      22.090 -14.289  12.774  1.00  0.00    -0.268 OA
ATOM     15  H3  UNL     1      25.024 -14.094  13.032  1.00  0.00     0.187 HD
BRANCH  13  16
HETATM   16  C6  UNL     1      23.047 -12.376  11.769  1.00  0.00     0.094 C 
HETATM   17  C7  UNL     1      21.920 -11.685  11.746  1.00  0.00     0.119 C 
BRANCH  17  18
HETATM   18  N4  UNL     1      21.890 -10.373  11.204  1.00  0.00    -0.280 N 
ATOM     19  H4  UNL     1      22.709  -9.777  11.317  1.00  0.00     0.193 HD
BRANCH  18  20
HETATM   20  O3  UNL     1      20.829  -9.890  10.551  1.00  0.00    -0.290 OA
ATOM     21  H3  UNL     1      19.967 -10.285  10.612  1.00  0.00     0.244 HD
ENDBRANCH  18  20
ENDBRANCH  17  18
ENDBRANCH  13  16
ENDBRANCH   4  12
BRANCH   1  22
HETATM   22  C2  UNL     1      25.257 -15.956   8.029  1.00  0.00     0.269 C 
HETATM   23  N1  UNL     1      24.474 -16.494   6.995  1.00  0.00    -0.360 N 
HETATM   24  C1  UNL     1      24.618 -16.067   5.597  1.00  0.00     0.149 C 
ATOM     25  H1  UNL     1      23.781 -17.208   7.223  1.00  0.00     0.162 HD
HETATM   26  O1  UNL     1      26.115 -15.074   7.629  1.00  0.00    -0.266 OA
ENDBRANCH   1  22
BRANCH   6  27
HETATM   27  N6  UNL     1      24.644 -16.240  14.472  1.00  0.00    -0.230 N 
ATOM     28  H62 UNL     1      25.218 -15.478  14.834  1.00  0.00     0.174 HD
ATOM     29  H61 UNL     1      23.819 -16.330  15.064  1.00  0.00     0.174 HD
ENDBRANCH   6  27
BRANCH  11  30
HETATM   30  C11 UNL     1      25.842 -18.700   9.237  1.00  0.00     0.294 C 
BRANCH  30  31
HETATM   31  O4  UNL     1      26.564 -18.263   8.062  1.00  0.00    -0.367 OA
ATOM     32  H4  UNL     1      27.239 -18.910   7.891  1.00  0.00     0.213 HD
ENDBRANCH  30  31
BRANCH  30  33
HETATM   33  O5  UNL     1      24.722 -19.311   8.736  1.00  0.00    -0.367 OA
ATOM     34  H5  UNL     1      24.192 -18.705   8.232  1.00  0.00     0.213 HD
ENDBRANCH  30  33
ENDBRANCH  11  30
BRANCH   7  35
HETATM   35  N8  UNL     1      25.438 -19.051  14.631  1.00  0.00    -0.309 N 
ATOM     36  H82 UNL     1      24.678 -19.357  15.239  1.00  0.00     0.179 HD
ATOM     37  H81 UNL     1      26.285 -19.457  15.029  1.00  0.00     0.179 HD
ENDBRANCH   7  35
TORSDOF 10
ENDMDL
MODEL 3
REMARK VINA RESULT: -6.373527511      2.765      6.226
REMARK  10 active torsions:
REMARK  status: ('A' for Active; 'I' for Inactive)
REMARK       I    between atoms: N1_2  and  C2_4 
REMARK    1  A    between atoms: C2_4  and  C3_6 
REMARK    2  A    between atoms: C4_9  and  N3_10 
REMARK       I    between atoms: N3_10  and  C5_12 
REMARK    3  A    between atoms: C5_12  and  C6_14 
REMARK    4  A    between atoms: C7_15  and  N4_16 
REMARK    5  A    between atoms: N4_16  and  O3_18 
REMARK    6  A    between atoms: C8_21  and  N6_22 
REMARK    7  A    between atoms: N7_25  and  N8_26 
REMARK    8  A    between atoms: C10_32  and  C11_33 
REMARK    9  A    between atoms: C11_33  and  O4_34 
REMARK   10  A    between atoms: C11_33  and  O5_36 
ROOT
HETATM    1  C3  UNL     1      25.521 -17.272  10.726  1.00  0.00     0.131 A 
HETATM    2  N2  UNL     1      26.304 -17.993  11.604  1.00  0.00    -0.184 N 
ATOM      3  H2  UNL     1      27.160 -18.427  11.260  1.00  0.00     0.184 HD
HETATM    4  C4  UNL     1      25.977 -18.142  12.894  1.00  0.00     0.708 A 
HETATM    5  N5  UNL     1      24.838 -17.568  13.355  1.00  0.00     0.043 N 
HETATM    6  C8  UNL     1      24.281 -17.561  14.582  1.00  0.00     0.735 A 
HETATM    7  N7  UNL     1      23.128 -16.835  14.526  1.00  0.00    -0.025 N 
HETATM    8  N9  UNL     1      23.027 -16.427  13.263  1.00  0.00    -0.247 N 
ATOM      9  H9  UNL     1      22.262 -15.858  12.902  1.00  0.00     0.191 HD
HETATM   10  C9  UNL     1      24.044 -16.855  12.539  1.00  0.00     0.177 A 
HETATM   11  C10 UNL     1      24.374 -16.687  11.183  1.00  0.00     0.076 A 
ENDROOT
BRANCH   4  12
HETATM   12  N3  UNL     1      26.680 -18.800  13.723  1.00  0.00    -0.155 N 
HETATM   13  C5  UNL     1      27.726 -18.312  14.512  1.00  0.00     0.260 C 
HETATM   14  O2  UNL     1      27.475 -17.597  15.516  1.00  0.00    -0.268 OA
ATOM     15  H3  UNL     1      26.457 -19.791  13.823  1.00  0.00     0.187 HD
BRANCH  13  16
HETATM   16  C6  UNL     1      29.106 -18.639  14.161  1.00  0.00     0.094 C 
HETATM   17  C7  UNL     1      29.919 -19.257  15.000  1.00  0.00     0.119 C 
BRANCH  17  18
HETATM   18  N4  UNL     1      31.253 -19.557  14.622  1.00  0.00    -0.280 N 
ATOM     19  H4  UNL     1      31.884 -18.787  14.396  1.00  0.00     0.193 HD
BRANCH  18  20
HETATM   20  O3  UNL     1      31.716 -20.808  14.552  1.00  0.00    -0.290 OA
ATOM     21  H3  UNL     1      32.627 -21.026  14.712  1.00  0.00     0.244 HD
ENDBRANCH  18  20
ENDBRANCH  17  18
ENDBRANCH  13  16
ENDBRANCH   4  12
BRANCH   1  22
HETATM   22  C2  UNL     1      26.050 -17.210   9.380  1.00  0.00     0.269 C 
HETATM   23  N1  UNL     1      26.200 -16.078   8.564  1.00  0.00    -0.360 N 
HETATM   24  C1  UNL     1      26.764 -16.156   7.210  1.00  0.00     0.149 C 
ATOM     25  H1  UNL     1      25.905 -15.170   8.923  1.00  0.00     0.162 HD
HETATM   26  O1  UNL     1      26.437 -18.312   8.822  1.00  0.00    -0.266 OA
ENDBRANCH   1  22
BRANCH   6  27
HETATM   27  N6  UNL     1      24.715 -18.122  15.654  1.00  0.00    -0.230 N 
ATOM     28  H62 UNL     1      24.131 -18.306  16.470  1.00  0.00     0.174 HD
ATOM     29  H61 UNL     1      25.659 -18.455  15.852  1.00  0.00     0.174 HD
ENDBRANCH   6  27
BRANCH  11  30
HETATM   30  C11 UNL     1      23.507 -15.823  10.349  1.00  0.00     0.294 C 
BRANCH  30  31
HETATM   31  O4  UNL     1      23.517 -14.505  10.945  1.00  0.00    -0.367 OA
ATOM     32  H4  UNL     1      24.412 -14.188  10.910  1.00  0.00     0.213 HD
ENDBRANCH  30  31
BRANCH  30  33
HETATM   33  O5  UNL     1      22.195 -16.213  10.420  1.00  0.00    -0.367 OA
ATOM     34  H5  UNL     1      21.659 -15.553  10.844  1.00  0.00     0.213 HD
ENDBRANCH  30  33
ENDBRANCH  11  30
BRANCH   7  35
HETATM   35  N8  UNL     1      22.237 -16.570  15.565  1.00  0.00    -0.309 N 
ATOM     36  H82 UNL     1      22.330 -16.857  16.539  1.00  0.00     0.179 HD
ATOM     37  H81 UNL     1      21.359 -16.054  15.516  1.00  0.00     0.179 HD
ENDBRANCH   7  35
TORSDOF 10
ENDMDL
MODEL 4
REMARK VINA RESULT: -5.701501392      2.992      5.126
REMARK  10 active torsions:
REMARK  status: ('A' for Active; 'I' for Inactive)
REMARK       I    between atoms: N1_2  and  C2_4 
REMARK    1  A    between atoms: C2_4  and  C3_6 
REMARK    2  A    between atoms: C4_9  and  N3_10 
REMARK       I    between atoms: N3_10  and  C5_12 
REMARK    3  A    between atoms: C5_12  and  C6_14 
REMARK    4  A    between atoms: C7_15  and  N4_16 
REMARK    5  A    between atoms: N4_16  and  O3_18 
REMARK    6  A    between atoms: C8_21  and  N6_22 
REMARK    7  A    between atoms: N7_25  and  N8_26 
REMARK    8  A    between atoms: C10_32  and  C11_33 
REMARK    9  A    between atoms: C11_33  and  O4_34 
REMARK   10  A    between atoms: C11_33  and  O5_36 
ROOT
HETATM    1  C3  UNL     1      23.863 -17.252  13.802  1.00  0.00     0.131 A 
HETATM    2  N2  UNL     1      23.295 -16.152  13.193  1.00  0.00    -0.184 N 
ATOM      3  H2  UNL     1      22.656 -15.566  13.730  1.00  0.00     0.184 HD
HETATM    4  C4  UNL     1      23.555 -15.828  11.920  1.00  0.00     0.708 A 
HETATM    5  N5  UNL     1      24.403 -16.606  11.203  1.00  0.00     0.043 N 
HETATM    6  C8  UNL     1      24.830 -16.513   9.929  1.00  0.00     0.735 A 
HETATM    7  N7  UNL     1      25.684 -17.547   9.686  1.00  0.00    -0.025 N 
HETATM    8  N9  UNL     1      25.744 -18.233  10.824  1.00  0.00    -0.247 N 
ATOM      9  H9  UNL     1      26.306 -19.073  10.961  1.00  0.00     0.191 HD
HETATM   10  C9  UNL     1      24.982 -17.687  11.753  1.00  0.00     0.177 A 
HETATM   11  C10 UNL     1      24.722 -18.039  13.088  1.00  0.00     0.076 A 
ENDROOT
BRANCH   4  12
HETATM   12  N3  UNL     1      23.045 -14.822  11.336  1.00  0.00    -0.155 N 
HETATM   13  C5  UNL     1      23.393 -13.480  11.518  1.00  0.00     0.260 C 
HETATM   14  O2  UNL     1      24.465 -13.037  11.029  1.00  0.00    -0.268 OA
ATOM     15  H3  UNL     1      22.303 -15.013  10.663  1.00  0.00     0.187 HD
BRANCH  13  16
HETATM   16  C6  UNL     1      22.505 -12.602  12.276  1.00  0.00     0.094 C 
HETATM   17  C7  UNL     1      22.324 -11.333  11.952  1.00  0.00     0.119 C 
BRANCH  17  18
HETATM   18  N4  UNL     1      21.453 -10.511  12.713  1.00  0.00    -0.280 N 
ATOM     19  H4  UNL     1      20.789 -10.956  13.348  1.00  0.00     0.193 HD
BRANCH  18  20
HETATM   20  O3  UNL     1      21.468  -9.178  12.632  1.00  0.00    -0.290 OA
ATOM     21  H3  UNL     1      20.816  -8.632  13.056  1.00  0.00     0.244 HD
ENDBRANCH  18  20
ENDBRANCH  17  18
ENDBRANCH  13  16
ENDBRANCH   4  12
BRANCH   1  22
HETATM   22  C2  UNL     1      23.474 -17.427  15.185  1.00  0.00     0.269 C 
HETATM   23  N1  UNL     1      22.181 -17.376  15.730  1.00  0.00    -0.360 N 
HETATM   24  C1  UNL     1      21.923 -17.582  17.161  1.00  0.00     0.149 C 
ATOM     25  H1  UNL     1      21.393 -17.189  15.109  1.00  0.00     0.162 HD
HETATM   26  O1  UNL     1      24.401 -17.652  16.060  1.00  0.00    -0.266 OA
ENDBRANCH   1  22
BRANCH   6  27
HETATM   27  N6  UNL     1      24.521 -15.626   9.051  1.00  0.00    -0.230 N 
ATOM     28  H62 UNL     1      23.933 -14.817   9.251  1.00  0.00     0.174 HD
ATOM     29  H61 UNL     1      24.796 -15.589   8.070  1.00  0.00     0.174 HD
ENDBRANCH   6  27
BRANCH  11  30
HETATM   30  C11 UNL     1      25.451 -19.191  13.668  1.00  0.00     0.294 C 
BRANCH  30  31
HETATM   31  O4  UNL     1      26.840 -18.803  13.783  1.00  0.00    -0.367 OA
ATOM     32  H4  UNL     1      27.355 -19.602  13.789  1.00  0.00     0.213 HD
ENDBRANCH  30  31
BRANCH  30  33
HETATM   33  O5  UNL     1      25.470 -20.256  12.805  1.00  0.00    -0.367 OA
ATOM     34  H5  UNL     1      25.163 -21.050  13.227  1.00  0.00     0.213 HD
ENDBRANCH  30  33
ENDBRANCH  11  30
BRANCH   7  35
HETATM   35  N8  UNL     1      26.357 -17.836   8.498  1.00  0.00    -0.309 N 
ATOM     36  H82 UNL     1      26.283 -17.331   7.615  1.00  0.00     0.179 HD
ATOM     37  H81 UNL     1      27.023 -18.588   8.327  1.00  0.00     0.179 HD
ENDBRANCH   7  35
TORSDOF 10
ENDMDL
MODEL 5
REMARK VINA RESULT: -5.672872691      2.561      6.335
REMARK  10 active torsions:
REMARK  status: ('A' for Active; 'I' for Inactive)
REMARK       I    between atoms: N1_2  and  C2_4 
REMARK    1  A    between atoms: C2_4  and  C3_6 
REMARK    2  A    between atoms: C4_9  and  N3_10 
REMARK       I    between atoms: N3_10  and  C5_12 
REMARK    3  A    between atoms: C5_12  and  C6_14 
REMARK    4  A    between atoms: C7_15  and  N4_16 
REMARK    5  A    between atoms: N4_16  and  O3_18 
REMARK    6  A    between atoms: C8_21  and  N6_22 
REMARK    7  A    between atoms: N7_25  and  N8_26 
REMARK    8  A    between atoms: C10_32  and  C11_33 
REMARK    9  A    between atoms: C11_33  and  O4_34 
REMARK   10  A    between atoms: C11_33  and  O5_36 
ROOT
HETATM    1  C3  UNL     1      25.440 -17.076  11.203  1.00  0.00     0.131 A 
HETATM    2  N2  UNL     1      26.431 -17.224  12.152  1.00  0.00    -0.184 N 
ATOM      3  H2  UNL     1      27.406 -17.226  11.853  1.00  0.00     0.184 HD
HETATM    4  C4  UNL     1      26.155 -17.365  13.455  1.00  0.00     0.708 A 
HETATM    5  N5  UNL     1      24.860 -17.365  13.857  1.00  0.00     0.043 N 
HETATM    6  C8  UNL     1      24.310 -17.489  15.081  1.00  0.00     0.735 A 
HETATM    7  N7  UNL     1      22.955 -17.423  14.952  1.00  0.00    -0.025 N 
HETATM    8  N9  UNL     1      22.730 -17.261  13.650  1.00  0.00    -0.247 N 
ATOM      9  H9  UNL     1      21.803 -17.178  13.232  1.00  0.00     0.191 HD
HETATM   10  C9  UNL     1      23.861 -17.223  12.970  1.00  0.00     0.177 A 
HETATM   11  C10 UNL     1      24.134 -17.071  11.600  1.00  0.00     0.076 A 
ENDROOT
BRANCH   4  12
HETATM   12  N3  UNL     1      27.047 -17.502  14.349  1.00  0.00    -0.155 N 
HETATM   13  C5  UNL     1      28.175 -18.327  14.291  1.00  0.00     0.260 C 
HETATM   14  O2  UNL     1      29.154 -18.004  13.570  1.00  0.00    -0.268 OA
ATOM     15  H3  UNL     1      26.928 -16.952  15.199  1.00  0.00     0.187 HD
BRANCH  13  16
HETATM   16  C6  UNL     1      28.205 -19.562  15.072  1.00  0.00     0.094 C 
HETATM   17  C7  UNL     1      27.230 -20.453  15.018  1.00  0.00     0.119 C 
BRANCH  17  18
HETATM   18  N4  UNL     1      27.295 -21.640  15.793  1.00  0.00    -0.280 N 
ATOM     19  H4  UNL     1      27.867 -22.415  15.457  1.00  0.00     0.193 HD
BRANCH  18  20
HETATM   20  O3  UNL     1      26.637 -21.782  16.947  1.00  0.00    -0.290 OA
ATOM     21  H3  UNL     1      27.081 -21.856  17.784  1.00  0.00     0.244 HD
ENDBRANCH  18  20
ENDBRANCH  17  18
ENDBRANCH  13  16
ENDBRANCH   4  12
BRANCH   1  22
HETATM   22  C2  UNL     1      25.938 -16.920   9.853  1.00  0.00     0.269 C 
HETATM   23  N1  UNL     1      25.733 -15.841   8.978  1.00  0.00    -0.360 N 
HETATM   24  C1  UNL     1      26.308 -15.806   7.627  1.00  0.00     0.149 C 
ATOM     25  H1  UNL     1      25.164 -15.055   9.291  1.00  0.00     0.162 HD
HETATM   26  O1  UNL     1      26.658 -17.871   9.351  1.00  0.00    -0.266 OA
ENDBRANCH   1  22
BRANCH   6  27
HETATM   27  N6  UNL     1      24.909 -17.644  16.208  1.00  0.00    -0.230 N 
ATOM     28  H62 UNL     1      24.441 -17.964  17.055  1.00  0.00     0.174 HD
ATOM     29  H61 UNL     1      25.893 -17.483  16.426  1.00  0.00     0.174 HD
ENDBRANCH   6  27
BRANCH  11  30
HETATM   30  C11 UNL     1      22.998 -16.835  10.678  1.00  0.00     0.294 C 
BRANCH  30  31
HETATM   31  O4  UNL     1      23.394 -17.332   9.378  1.00  0.00    -0.367 OA
ATOM     32  H4  UNL     1      22.873 -16.870   8.730  1.00  0.00     0.213 HD
ENDBRANCH  30  31
BRANCH  30  33
HETATM   33  O5  UNL     1      22.787 -15.497  10.476  1.00  0.00    -0.367 OA
ATOM     34  H5  UNL     1      22.312 -15.107  11.201  1.00  0.00     0.213 HD
ENDBRANCH  30  33
ENDBRANCH  11  30
BRANCH   7  35
HETATM   35  N8  UNL     1      21.998 -17.506  15.963  1.00  0.00    -0.309 N 
ATOM     36  H82 UNL     1      21.130 -18.042  15.941  1.00  0.00     0.179 HD
ATOM     37  H81 UNL     1      22.014 -17.050  16.875  1.00  0.00     0.179 HD
ENDBRANCH   7  35
TORSDOF 10
ENDMDL
