MODEL 1
REMARK VINA RESULT: -8.027722714      0.000      0.000
REMARK  12 active torsions:
REMARK  status: ('A' for Active; 'I' for Inactive)
REMARK    1  A    between atoms: N1_1  and  C1_4 
REMARK    2  A    between atoms: N3_7  and  C2_8 
REMARK    3  A    between atoms: C2_8  and  O1_9 
REMARK    4  A    between atoms: O1_9  and  C3_10 
REMARK    5  A    between atoms: C3_10  and  O2_11 
REMARK    6  A    between atoms: C3_10  and  O3_13 
REMARK    7  A    between atoms: C3_10  and  C4_15 
REMARK    8  A    between atoms: C4_15  and  O4_16 
REMARK    9  A    between atoms: C4_15  and  C5_18 
REMARK   10  A    between atoms: C5_18  and  O5_19 
REMARK   11  A    between atoms: C8_27  and  N6_28 
REMARK   12  A    between atoms: N6_28  and  C9_29 
ROOT
HETATM    1  C1  UNL     1      26.463 -17.593  12.346  1.00  0.00     0.133 A 
HETATM    2  N2  UNL     1      25.825 -17.019  11.289  1.00  0.00    -0.279 N 
ATOM      3  H2  UNL     1      26.233 -16.896  10.363  1.00  0.00     0.189 HD
HETATM    4  N3  UNL     1      24.613 -16.647  11.627  1.00  0.00    -0.250 N 
HETATM    5  C6  UNL     1      24.432 -16.977  12.939  1.00  0.00     0.144 A 
HETATM    6  N4  UNL     1      23.384 -16.808  13.732  1.00  0.00    -0.336 N 
ATOM      7  H4  UNL     1      22.531 -16.367  13.387  1.00  0.00     0.168 HD
HETATM    8  C7  UNL     1      23.474 -17.232  15.001  1.00  0.00     0.184 A 
HETATM    9  N5  UNL     1      24.565 -17.809  15.486  1.00  0.00    -0.326 N 
ATOM     10  H5  UNL     1      24.570 -18.108  16.461  1.00  0.00     0.169 HD
HETATM   11  C8  UNL     1      25.704 -18.021  14.715  1.00  0.00     0.201 A 
HETATM   12  C12 UNL     1      25.603 -17.579  13.401  1.00  0.00     0.113 A 
ENDROOT
BRANCH   4  13
HETATM   13  C2  UNL     1      23.650 -16.036  10.765  1.00  0.00     0.325 C 
BRANCH  13  14
HETATM   14  O1  UNL     1      23.781 -16.385   9.477  1.00  0.00    -0.309 OA
BRANCH  14  15
HETATM   15  C3  UNL     1      24.657 -15.791   8.650  1.00  0.00     0.309 C 
BRANCH  15  16
HETATM   16  O2  UNL     1      25.667 -15.069   9.285  1.00  0.00    -0.341 OA
ATOM     17  H2  UNL     1      26.008 -14.336   8.786  1.00  0.00     0.215 HD
ENDBRANCH  15  16
BRANCH  15  18
HETATM   18  O3  UNL     1      24.065 -14.987   7.706  1.00  0.00    -0.341 OA
ATOM     19  H3  UNL     1      24.583 -14.223   7.477  1.00  0.00     0.215 HD
ENDBRANCH  15  18
BRANCH  15  20
HETATM   20  C4  UNL     1      25.340 -16.946   7.862  1.00  0.00     0.234 C 
BRANCH  20  21
HETATM   21  O4  UNL     1      24.739 -17.021   6.609  1.00  0.00    -0.385 OA
ATOM     22  H4  UNL     1      25.426 -16.984   5.954  1.00  0.00     0.210 HD
ENDBRANCH  20  21
BRANCH  20  23
HETATM   23  C5  UNL     1      26.807 -16.648   7.696  1.00  0.00     0.204 C 
BRANCH  23  24
HETATM   24  O5  UNL     1      27.049 -15.742   6.685  1.00  0.00    -0.398 OA
ATOM     25  H5  UNL     1      27.870 -15.911   6.237  1.00  0.00     0.209 HD
ENDBRANCH  23  24
ENDBRANCH  20  23
ENDBRANCH  15  20
ENDBRANCH  14  15
ENDBRANCH  13  14
ENDBRANCH   4  13
BRANCH   1  26
HETATM   26  N1  UNL     1      27.656 -18.061  12.344  1.00  0.00    -0.384 N 
ATOM     27  H12 UNL     1      28.363 -17.913  11.624  1.00  0.00     0.157 HD
ATOM     28  H11 UNL     1      28.071 -18.650  13.066  1.00  0.00     0.157 HD
ENDBRANCH   1  26
BRANCH  11  29
HETATM   29  N6  UNL     1      26.671 -18.546  15.183  1.00  0.00    -0.352 NA
BRANCH  29  30
HETATM   30  C9  UNL     1      27.940 -18.923  15.378  1.00  0.00     0.253 C 
HETATM   31  N7  UNL     1      28.421 -20.150  15.535  1.00  0.00    -0.349 N 
HETATM   32  C10 UNL     1      29.834 -20.161  15.718  1.00  0.00     0.143 C 
ATOM     33  H7  UNL     1      27.843 -20.991  15.525  1.00  0.00     0.163 HD
HETATM   34  C11 UNL     1      30.283 -18.790  15.176  1.00  0.00     0.143 C 
HETATM   35  N8  UNL     1      29.089 -18.043  15.486  1.00  0.00    -0.349 N 
ATOM     36  H8  UNL     1      29.056 -17.056  15.740  1.00  0.00     0.163 HD
ENDBRANCH  29  30
ENDBRANCH  11  29
TORSDOF 12
ENDMDL
MODEL 2
REMARK VINA RESULT: -7.171280266      1.641      2.397
REMARK  12 active torsions:
REMARK  status: ('A' for Active; 'I' for Inactive)
REMARK    1  A    between atoms: N1_1  and  C1_4 
REMARK    2  A    between atoms: N3_7  and  C2_8 
REMARK    3  A    between atoms: C2_8  and  O1_9 
REMARK    4  A    between atoms: O1_9  and  C3_10 
REMARK    5  A    between atoms: C3_10  and  O2_11 
REMARK    6  A    between atoms: C3_10  and  O3_13 
REMARK    7  A    between atoms: C3_10  and  C4_15 
REMARK    8  A    between atoms: C4_15  and  O4_16 
REMARK    9  A    between atoms: C4_15  and  C5_18 
REMARK   10  A    between atoms: C5_18  and  O5_19 
REMARK   11  A    between atoms: C8_27  and  N6_28 
REMARK   12  A    between atoms: N6_28  and  C9_29 
ROOT
HETATM    1  C1  UNL     1      24.819 -16.556  13.338  1.00  0.00     0.133 A 
HETATM    2  N2  UNL     1      24.243 -15.580  12.585  1.00  0.00    -0.279 N 
ATOM      3  H2  UNL     1      24.005 -14.649  12.925  1.00  0.00     0.189 HD
HETATM    4  N3  UNL     1      24.038 -16.002  11.359  1.00  0.00    -0.250 N 
HETATM    5  C6  UNL     1      24.486 -17.289  11.287  1.00  0.00     0.144 A 
HETATM    6  N4  UNL     1      24.498 -18.141  10.272  1.00  0.00    -0.336 N 
ATOM      7  H4  UNL     1      24.133 -17.872   9.358  1.00  0.00     0.168 HD
HETATM    8  C7  UNL     1      25.004 -19.366  10.477  1.00  0.00     0.184 A 
HETATM    9  N5  UNL     1      25.487 -19.752  11.650  1.00  0.00    -0.326 N 
ATOM     10  H5  UNL     1      25.857 -20.698  11.742  1.00  0.00     0.169 HD
HETATM   11  C8  UNL     1      25.508 -18.915  12.762  1.00  0.00     0.201 A 
HETATM   12  C12 UNL     1      24.982 -17.647  12.541  1.00  0.00     0.113 A 
ENDROOT
BRANCH   4  13
HETATM   13  C2  UNL     1      23.479 -15.237  10.288  1.00  0.00     0.325 C 
BRANCH  13  14
HETATM   14  O1  UNL     1      23.601 -15.821   9.087  1.00  0.00    -0.309 OA
BRANCH  14  15
HETATM   15  C3  UNL     1      24.632 -15.575   8.263  1.00  0.00     0.309 C 
BRANCH  15  16
HETATM   16  O2  UNL     1      25.830 -15.256   8.900  1.00  0.00    -0.341 OA
ATOM     17  H2  UNL     1      26.517 -15.905   8.807  1.00  0.00     0.215 HD
ENDBRANCH  15  16
BRANCH  15  18
HETATM   18  O3  UNL     1      24.364 -14.614   7.317  1.00  0.00    -0.341 OA
ATOM     19  H3  UNL     1      25.068 -13.986   7.203  1.00  0.00     0.215 HD
ENDBRANCH  15  18
BRANCH  15  20
HETATM   20  C4  UNL     1      24.864 -16.897   7.476  1.00  0.00     0.234 C 
BRANCH  20  21
HETATM   21  O4  UNL     1      24.521 -16.669   6.147  1.00  0.00    -0.385 OA
ATOM     22  H4  UNL     1      23.929 -15.926   6.122  1.00  0.00     0.210 HD
ENDBRANCH  20  21
BRANCH  20  23
HETATM   23  C5  UNL     1      26.317 -17.287   7.558  1.00  0.00     0.204 C 
BRANCH  23  24
HETATM   24  O5  UNL     1      26.494 -18.654   7.591  1.00  0.00    -0.398 OA
ATOM     25  H5  UNL     1      26.857 -18.952   8.417  1.00  0.00     0.209 HD
ENDBRANCH  23  24
ENDBRANCH  20  23
ENDBRANCH  15  20
ENDBRANCH  14  15
ENDBRANCH  13  14
ENDBRANCH   4  13
BRANCH   1  26
HETATM   26  N1  UNL     1      25.145 -16.462  14.574  1.00  0.00    -0.384 N 
ATOM     27  H12 UNL     1      25.503 -15.630  15.044  1.00  0.00     0.157 HD
ATOM     28  H11 UNL     1      25.093 -17.208  15.267  1.00  0.00     0.157 HD
ENDBRANCH   1  26
BRANCH  11  29
HETATM   29  N6  UNL     1      25.954 -19.294  13.805  1.00  0.00    -0.352 NA
BRANCH  29  30
HETATM   30  C9  UNL     1      26.597 -20.034  14.716  1.00  0.00     0.253 C 
HETATM   31  N7  UNL     1      26.238 -21.203  15.231  1.00  0.00    -0.349 N 
HETATM   32  C10 UNL     1      27.182 -21.692  16.179  1.00  0.00     0.143 C 
ATOM     33  H7  UNL     1      25.382 -21.695  14.977  1.00  0.00     0.163 HD
HETATM   34  C11 UNL     1      28.466 -20.900  15.859  1.00  0.00     0.143 C 
HETATM   35  N8  UNL     1      27.847 -19.693  15.369  1.00  0.00    -0.349 N 
ATOM     36  H8  UNL     1      28.226 -18.751  15.467  1.00  0.00     0.163 HD
ENDBRANCH  29  30
ENDBRANCH  11  29
TORSDOF 12
ENDMDL
MODEL 3
REMARK VINA RESULT: -7.101442226      2.588      4.043
REMARK  12 active torsions:
REMARK  status: ('A' for Active; 'I' for Inactive)
REMARK    1  A    between atoms: N1_1  and  C1_4 
REMARK    2  A    between atoms: N3_7  and  C2_8 
REMARK    3  A    between atoms: C2_8  and  O1_9 
REMARK    4  A    between atoms: O1_9  and  C3_10 
REMARK    5  A    between atoms: C3_10  and  O2_11 
REMARK    6  A    between atoms: C3_10  and  O3_13 
REMARK    7  A    between atoms: C3_10  and  C4_15 
REMARK    8  A    between atoms: C4_15  and  O4_16 
REMARK    9  A    between atoms: C4_15  and  C5_18 
REMARK   10  A    between atoms: C5_18  and  O5_19 
REMARK   11  A    between atoms: C8_27  and  N6_28 
REMARK   12  A    between atoms: N6_28  and  C9_29 
ROOT
HETATM    1  C1  UNL     1      25.178 -18.679  12.373  1.00  0.00     0.133 A 
HETATM    2  N2  UNL     1      25.686 -19.025  11.160  1.00  0.00    -0.279 N 
ATOM      3  H2  UNL     1      26.180 -19.896  10.965  1.00  0.00     0.189 HD
HETATM    4  N3  UNL     1      25.454 -18.084  10.275  1.00  0.00    -0.250 N 
HETATM    5  C6  UNL     1      24.774 -17.084  10.908  1.00  0.00     0.144 A 
HETATM    6  N4  UNL     1      24.316 -15.929  10.447  1.00  0.00    -0.336 N 
ATOM      7  H4  UNL     1      24.451 -15.664   9.471  1.00  0.00     0.168 HD
HETATM    8  C7  UNL     1      23.672 -15.117  11.297  1.00  0.00     0.184 A 
HETATM    9  N5  UNL     1      23.478 -15.426  12.572  1.00  0.00    -0.326 N 
ATOM     10  H5  UNL     1      22.981 -14.764  13.168  1.00  0.00     0.169 HD
HETATM   11  C8  UNL     1      23.928 -16.620  13.128  1.00  0.00     0.201 A 
HETATM   12  C12 UNL     1      24.595 -17.456  12.240  1.00  0.00     0.113 A 
ENDROOT
BRANCH   4  13
HETATM   13  C2  UNL     1      25.819 -18.120   8.893  1.00  0.00     0.325 C 
BRANCH  13  14
HETATM   14  O1  UNL     1      26.693 -17.166   8.541  1.00  0.00    -0.309 OA
BRANCH  14  15
HETATM   15  C3  UNL     1      26.359 -16.130   7.754  1.00  0.00     0.309 C 
BRANCH  15  16
HETATM   16  O2  UNL     1      27.148 -15.982   6.614  1.00  0.00    -0.341 OA
ATOM     17  H2  UNL     1      27.217 -15.092   6.290  1.00  0.00     0.215 HD
ENDBRANCH  15  16
BRANCH  15  18
HETATM   18  O3  UNL     1      26.311 -14.927   8.418  1.00  0.00    -0.341 OA
ATOM     19  H3  UNL     1      26.630 -14.195   7.903  1.00  0.00     0.215 HD
ENDBRANCH  15  18
BRANCH  15  20
HETATM   20  C4  UNL     1      24.906 -16.415   7.278  1.00  0.00     0.234 C 
BRANCH  20  21
HETATM   21  O4  UNL     1      24.125 -15.310   7.605  1.00  0.00    -0.385 OA
ATOM     22  H4  UNL     1      23.547 -15.562   8.316  1.00  0.00     0.210 HD
ENDBRANCH  20  21
BRANCH  20  23
HETATM   23  C5  UNL     1      24.892 -16.614   5.785  1.00  0.00     0.204 C 
BRANCH  23  24
HETATM   24  O5  UNL     1      24.528 -15.470   5.105  1.00  0.00    -0.398 OA
ATOM     25  H5  UNL     1      23.978 -15.655   4.354  1.00  0.00     0.209 HD
ENDBRANCH  23  24
ENDBRANCH  20  23
ENDBRANCH  15  20
ENDBRANCH  14  15
ENDBRANCH  13  14
ENDBRANCH   4  13
BRANCH   1  26
HETATM   26  N1  UNL     1      25.239 -19.380  13.445  1.00  0.00    -0.384 N 
ATOM     27  H12 UNL     1      25.439 -19.035  14.383  1.00  0.00     0.157 HD
ATOM     28  H11 UNL     1      25.095 -20.388  13.512  1.00  0.00     0.157 HD
ENDBRANCH   1  26
BRANCH  11  29
HETATM   29  N6  UNL     1      23.735 -16.869  14.282  1.00  0.00    -0.352 NA
BRANCH  29  30
HETATM   30  C9  UNL     1      23.132 -17.257  15.412  1.00  0.00     0.253 C 
HETATM   31  N7  UNL     1      23.686 -17.719  16.526  1.00  0.00    -0.349 N 
HETATM   32  C10 UNL     1      22.720 -18.030  17.525  1.00  0.00     0.143 C 
ATOM     33  H7  UNL     1      24.691 -17.837  16.651  1.00  0.00     0.163 HD
HETATM   34  C11 UNL     1      21.468 -17.248  17.079  1.00  0.00     0.143 C 
HETATM   35  N8  UNL     1      21.702 -17.278  15.656  1.00  0.00    -0.349 N 
ATOM     36  H8  UNL     1      20.979 -17.309  14.938  1.00  0.00     0.163 HD
ENDBRANCH  29  30
ENDBRANCH  11  29
TORSDOF 12
ENDMDL
MODEL 4
REMARK VINA RESULT: -7.051137369      3.987      7.215
REMARK  12 active torsions:
REMARK  status: ('A' for Active; 'I' for Inactive)
REMARK    1  A    between atoms: N1_1  and  C1_4 
REMARK    2  A    between atoms: N3_7  and  C2_8 
REMARK    3  A    between atoms: C2_8  and  O1_9 
REMARK    4  A    between atoms: O1_9  and  C3_10 
REMARK    5  A    between atoms: C3_10  and  O2_11 
REMARK    6  A    between atoms: C3_10  and  O3_13 
REMARK    7  A    between atoms: C3_10  and  C4_15 
REMARK    8  A    between atoms: C4_15  and  O4_16 
REMARK    9  A    between atoms: C4_15  and  C5_18 
REMARK   10  A    between atoms: C5_18  and  O5_19 
REMARK   11  A    between atoms: C8_27  and  N6_28 
REMARK   12  A    between atoms: N6_28  and  C9_29 
ROOT
HETATM    1  C1  UNL     1      23.935 -17.309  14.060  1.00  0.00     0.133 A 
HETATM    2  N2  UNL     1      24.594 -18.327  14.678  1.00  0.00    -0.279 N 
ATOM      3  H2  UNL     1      24.442 -18.614  15.644  1.00  0.00     0.189 HD
HETATM    4  N3  UNL     1      25.452 -18.887  13.858  1.00  0.00    -0.250 N 
HETATM    5  C6  UNL     1      25.367 -18.233  12.664  1.00  0.00     0.144 A 
HETATM    6  N4  UNL     1      26.025 -18.424  11.529  1.00  0.00    -0.336 N 
ATOM      7  H4  UNL     1      26.727 -19.160  11.448  1.00  0.00     0.168 HD
HETATM    8  C7  UNL     1      25.743 -17.625  10.490  1.00  0.00     0.184 A 
HETATM    9  N5  UNL     1      24.838 -16.659  10.557  1.00  0.00    -0.326 N 
ATOM     10  H5  UNL     1      24.670 -16.084   9.731  1.00  0.00     0.169 HD
HETATM   11  C8  UNL     1      24.108 -16.397  11.713  1.00  0.00     0.201 A 
HETATM   12  C12 UNL     1      24.406 -17.230  12.785  1.00  0.00     0.113 A 
ENDROOT
BRANCH   4  13
HETATM   13  C2  UNL     1      26.295 -20.003  14.157  1.00  0.00     0.325 C 
BRANCH  13  14
HETATM   14  O1  UNL     1      27.159 -19.774  15.156  1.00  0.00    -0.309 OA
BRANCH  14  15
HETATM   15  C3  UNL     1      28.089 -18.806  15.105  1.00  0.00     0.309 C 
BRANCH  15  16
HETATM   16  O2  UNL     1      27.760 -17.640  15.796  1.00  0.00    -0.341 OA
ATOM     17  H2  UNL     1      28.155 -17.562  16.657  1.00  0.00     0.215 HD
ENDBRANCH  15  16
BRANCH  15  18
HETATM   18  O3  UNL     1      28.464 -18.470  13.826  1.00  0.00    -0.341 OA
ATOM     19  H3  UNL     1      28.332 -19.168  13.195  1.00  0.00     0.215 HD
ENDBRANCH  15  18
BRANCH  15  20
HETATM   20  C4  UNL     1      29.356 -19.404  15.780  1.00  0.00     0.234 C 
BRANCH  20  21
HETATM   21  O4  UNL     1      29.208 -20.787  15.818  1.00  0.00    -0.385 OA
ATOM     22  H4  UNL     1      29.977 -21.173  15.416  1.00  0.00     0.210 HD
ENDBRANCH  20  21
BRANCH  20  23
HETATM   23  C5  UNL     1      30.576 -19.053  14.968  1.00  0.00     0.204 C 
BRANCH  23  24
HETATM   24  O5  UNL     1      30.806 -17.694  14.926  1.00  0.00    -0.398 OA
ATOM     25  H5  UNL     1      31.172 -17.363  15.738  1.00  0.00     0.209 HD
ENDBRANCH  23  24
ENDBRANCH  20  23
ENDBRANCH  15  20
ENDBRANCH  14  15
ENDBRANCH  13  14
ENDBRANCH   4  13
BRANCH   1  26
HETATM   26  N1  UNL     1      23.036 -16.563  14.587  1.00  0.00    -0.384 N 
ATOM     27  H12 UNL     1      23.181 -15.857  15.308  1.00  0.00     0.157 HD
ATOM     28  H11 UNL     1      22.041 -16.570  14.358  1.00  0.00     0.157 HD
ENDBRANCH   1  26
BRANCH  11  29
HETATM   29  N6  UNL     1      23.297 -15.518  11.740  1.00  0.00    -0.352 NA
BRANCH  29  30
HETATM   30  C9  UNL     1      22.724 -14.327  11.949  1.00  0.00     0.253 C 
HETATM   31  N7  UNL     1      22.215 -13.844  13.075  1.00  0.00    -0.349 N 
HETATM   32  C10 UNL     1      21.689 -12.529  12.914  1.00  0.00     0.143 C 
ATOM     33  H7  UNL     1      22.202 -14.356  13.957  1.00  0.00     0.163 HD
HETATM   34  C11 UNL     1      22.361 -12.023  11.622  1.00  0.00     0.143 C 
HETATM   35  N8  UNL     1      22.510 -13.292  10.955  1.00  0.00    -0.349 N 
ATOM     36  H8  UNL     1      22.470 -13.440   9.946  1.00  0.00     0.163 HD
ENDBRANCH  29  30
ENDBRANCH  11  29
TORSDOF 12
ENDMDL
MODEL 5
REMARK VINA RESULT: -7.050489730      1.369      1.682
REMARK  12 active torsions:
REMARK  status: ('A' for Active; 'I' for Inactive)
REMARK    1  A    between atoms: N1_1  and  C1_4 
REMARK    2  A    between atoms: N3_7  and  C2_8 
REMARK    3  A    between atoms: C2_8  and  O1_9 
REMARK    4  A    between atoms: O1_9  and  C3_10 
REMARK    5  A    between atoms: C3_10  and  O2_11 
REMARK    6  A    between atoms: C3_10  and  O3_13 
REMARK    7  A    between atoms: C3_10  and  C4_15 
REMARK    8  A    between atoms: C4_15  and  O4_16 
REMARK    9  A    between atoms: C4_15  and  C5_18 
REMARK   10  A    between atoms: C5_18  and  O5_19 
REMARK   11  A    between atoms: C8_27  and  N6_28 
REMARK   12  A    between atoms: N6_28  and  C9_29 
ROOT
HETATM    1  C1  UNL     1      25.111 -18.784  11.513  1.00  0.00     0.133 A 
HETATM    2  N2  UNL     1      24.571 -18.022  10.523  1.00  0.00    -0.279 N 
ATOM      3  H2  UNL     1      24.614 -18.247   9.529  1.00  0.00     0.189 HD
HETATM    4  N3  UNL     1      23.987 -16.959  11.024  1.00  0.00    -0.250 N 
HETATM    5  C6  UNL     1      24.138 -17.007  12.379  1.00  0.00     0.144 A 
HETATM    6  N4  UNL     1      23.728 -16.169  13.321  1.00  0.00    -0.336 N 
ATOM      7  H4  UNL     1      23.208 -15.325  13.081  1.00  0.00     0.168 HD
HETATM    8  C7  UNL     1      24.015 -16.460  14.598  1.00  0.00     0.184 A 
HETATM    9  N5  UNL     1      24.690 -17.547  14.948  1.00  0.00    -0.326 N 
ATOM     10  H5  UNL     1      24.877 -17.711  15.937  1.00  0.00     0.169 HD
HETATM   11  C8  UNL     1      25.153 -18.472  14.017  1.00  0.00     0.201 A 
HETATM   12  C12 UNL     1      24.850 -18.163  12.696  1.00  0.00     0.113 A 
ENDROOT
BRANCH   4  13
HETATM   13  C2  UNL     1      23.292 -15.953  10.282  1.00  0.00     0.325 C 
BRANCH  13  14
HETATM   14  O1  UNL     1      23.459 -16.049   8.955  1.00  0.00    -0.309 OA
BRANCH  14  15
HETATM   15  C3  UNL     1      24.588 -15.665   8.336  1.00  0.00     0.309 C 
BRANCH  15  16
HETATM   16  O2  UNL     1      25.604 -15.230   9.186  1.00  0.00    -0.341 OA
ATOM     17  H2  UNL     1      25.326 -15.037  10.074  1.00  0.00     0.215 HD
ENDBRANCH  15  16
BRANCH  15  18
HETATM   18  O3  UNL     1      24.387 -14.715   7.364  1.00  0.00    -0.341 OA
ATOM     19  H3  UNL     1      24.819 -13.888   7.545  1.00  0.00     0.215 HD
ENDBRANCH  15  18
BRANCH  15  20
HETATM   20  C4  UNL     1      25.112 -16.930   7.597  1.00  0.00     0.234 C 
BRANCH  20  21
HETATM   21  O4  UNL     1      24.594 -16.915   6.306  1.00  0.00    -0.385 OA
ATOM     22  H4  UNL     1      25.323 -16.966   5.699  1.00  0.00     0.210 HD
ENDBRANCH  20  21
BRANCH  20  23
HETATM   23  C5  UNL     1      26.617 -16.891   7.534  1.00  0.00     0.204 C 
BRANCH  23  24
HETATM   24  O5  UNL     1      27.085 -15.843   6.770  1.00  0.00    -0.398 OA
ATOM     25  H5  UNL     1      26.575 -15.716   5.979  1.00  0.00     0.209 HD
ENDBRANCH  23  24
ENDBRANCH  20  23
ENDBRANCH  15  20
ENDBRANCH  14  15
ENDBRANCH  13  14
ENDBRANCH   4  13
BRANCH   1  26
HETATM   26  N1  UNL     1      25.749 -19.885  11.355  1.00  0.00    -0.384 N 
ATOM     27  H12 UNL     1      26.573 -20.186  11.875  1.00  0.00     0.157 HD
ATOM     28  H11 UNL     1      25.521 -20.619  10.685  1.00  0.00     0.157 HD
ENDBRANCH   1  26
BRANCH  11  29
HETATM   29  N6  UNL     1      25.756 -19.444  14.367  1.00  0.00    -0.352 NA
BRANCH  29  30
HETATM   30  C9  UNL     1      26.648 -20.230  14.982  1.00  0.00     0.253 C 
HETATM   31  N7  UNL     1      27.906 -19.954  15.303  1.00  0.00    -0.349 N 
HETATM   32  C10 UNL     1      28.552 -21.045  15.955  1.00  0.00     0.143 C 
ATOM     33  H7  UNL     1      28.359 -19.062  15.106  1.00  0.00     0.163 HD
HETATM   34  C11 UNL     1      27.382 -21.918  16.451  1.00  0.00     0.143 C 
HETATM   35  N8  UNL     1      26.430 -21.597  15.416  1.00  0.00    -0.349 N 
ATOM     36  H8  UNL     1      25.719 -22.229  15.049  1.00  0.00     0.163 HD
ENDBRANCH  29  30
ENDBRANCH  11  29
TORSDOF 12
ENDMDL
