MODEL 1
REMARK VINA RESULT: -6.562023350      0.000      0.000
REMARK  8 active torsions:
REMARK  status: ('A' for Active; 'I' for Inactive)
REMARK    1  A    between atoms: C3_6  and  N3_7 
REMARK    2  A    between atoms: C5_9  and  N4_10 
REMARK    3  A    between atoms: C6_14  and  O1_15 
REMARK    4  A    between atoms: C9_20  and  N5_21 
REMARK    5  A    between atoms: N5_21  and  N6_23 
REMARK    6  A    between atoms: N6_23  and  N7_25 
REMARK    7  A    between atoms: C10_30  and  C11_31 
REMARK    8  A    between atoms: C11_31  and  N9_32 
REMARK       I    between atoms: N9_32  and  C12_35 
REMARK       I    between atoms: C12_35  and  N10_36 
REMARK       I    between atoms: C12_35  and  N11_40 
ROOT
HETATM    1  N1  UNL     1      25.754 -15.897   8.972  1.00  0.00    -0.190 NA
HETATM    2  C1  UNL     1      25.468 -16.148  10.087  1.00  0.00     0.119 C 
HETATM    3  C2  UNL     1      25.130 -16.487  11.461  1.00  0.00     0.140 A 
HETATM    4  N2  UNL     1      26.005 -16.978  12.310  1.00  0.00    -0.329 N 
ATOM      5  H2  UNL     1      26.949 -17.195  11.990  1.00  0.00     0.168 HD
HETATM    6  C3  UNL     1      25.674 -17.199  13.599  1.00  0.00     0.157 A 
HETATM    7  C9  UNL     1      24.393 -16.896  14.134  1.00  0.00     0.167 A 
HETATM    8  N8  UNL     1      23.533 -16.419  13.219  1.00  0.00    -0.338 N 
ATOM      9  H8  UNL     1      22.581 -16.195  13.509  1.00  0.00     0.167 HD
HETATM   10  C10 UNL     1      23.868 -16.234  11.977  1.00  0.00     0.074 A 
ENDROOT
BRANCH  10  11
HETATM   11  C11 UNL     1      22.900 -15.991  10.858  1.00  0.00     0.296 C 
BRANCH  11  12
HETATM   12  N9  UNL     1      23.110 -14.579  10.455  1.00  0.00    -0.017 N 
HETATM   13  C12 UNL     1      22.843 -13.797  11.710  1.00  0.00     0.576 C 
HETATM   14  N10 UNL     1      21.502 -13.705  12.121  1.00  0.00    -0.026 N 
HETATM   15  N11 UNL     1      23.629 -12.615  11.823  1.00  0.00    -0.026 N 
ATOM     16 3H10 UNL     1      20.934 -13.334  11.359  1.00  0.00     0.278 HD
ATOM     17 2H10 UNL     1      21.106 -14.642  12.210  1.00  0.00     0.278 HD
ATOM     18 1H10 UNL     1      21.320 -13.174  12.973  1.00  0.00     0.278 HD
ATOM     19 3H11 UNL     1      24.621 -12.833  11.739  1.00  0.00     0.278 HD
ATOM     20 2H11 UNL     1      23.513 -12.025  11.000  1.00  0.00     0.278 HD
ATOM     21 1H11 UNL     1      23.447 -12.084  12.675  1.00  0.00     0.278 HD
ATOM     22  H92 UNL     1      24.021 -14.395  10.033  1.00  0.00     0.282 HD
ATOM     23  H91 UNL     1      22.554 -14.285   9.652  1.00  0.00     0.282 HD
ENDBRANCH  11  12
ENDBRANCH  10  11
BRANCH   6  24
HETATM   24  N3  UNL     1      26.499 -18.135  14.331  1.00  0.00    -0.298 N 
HETATM   25  C4  UNL     1      27.499 -17.585  15.246  1.00  0.00     0.169 C 
HETATM   26  C5  UNL     1      28.741 -18.491  15.078  1.00  0.00     0.230 C 
HETATM   27  C6  UNL     1      28.415 -19.811  15.743  1.00  0.00     0.159 C 
HETATM   28  C7  UNL     1      27.095 -20.317  15.289  1.00  0.00     0.137 C 
HETATM   29  C8  UNL     1      26.546 -19.522  14.142  1.00  0.00     0.228 C 
HETATM   30  O2  UNL     1      26.188 -20.132  13.070  1.00  0.00    -0.273 OA
BRANCH  26  31
HETATM   31  N4  UNL     1      29.008 -18.762  13.660  1.00  0.00    -0.071 N 
ATOM     32  H43 UNL     1      28.227 -19.246  13.216  1.00  0.00     0.274 HD
ATOM     33  H42 UNL     1      28.997 -17.906  13.105  1.00  0.00     0.274 HD
ATOM     34  H41 UNL     1      29.882 -19.274  13.543  1.00  0.00     0.274 HD
ENDBRANCH  26  31
BRANCH  27  35
HETATM   35  O1  UNL     1      29.363 -20.741  15.420  1.00  0.00    -0.393 OA
ATOM     36  H1  UNL     1      28.948 -21.512  15.051  1.00  0.00     0.210 HD
ENDBRANCH  27  35
ENDBRANCH   6  24
BRANCH   7  37
HETATM   37  N5  UNL     1      24.240 -16.962  15.525  1.00  0.00    -0.268 N 
ATOM     38  H5  UNL     1      24.855 -16.375  16.088  1.00  0.00     0.190 HD
BRANCH  37  39
HETATM   39  N6  UNL     1      23.391 -17.699  16.162  1.00  0.00    -0.248 N 
ATOM     40  H6  UNL     1      23.727 -18.516  16.674  1.00  0.00     0.207 HD
BRANCH  39  41
HETATM   41  N7  UNL     1      22.021 -17.405  16.168  1.00  0.00    -0.331 N 
ATOM     42  H72 UNL     1      21.366 -18.163  16.364  1.00  0.00     0.178 HD
ATOM     43  H71 UNL     1      21.675 -16.464  15.981  1.00  0.00     0.178 HD
ENDBRANCH  39  41
ENDBRANCH  37  39
ENDBRANCH   7  37
TORSDOF 8
ENDMDL
MODEL 2
REMARK VINA RESULT: -6.473697929      2.745      6.410
REMARK  8 active torsions:
REMARK  status: ('A' for Active; 'I' for Inactive)
REMARK    1  A    between atoms: C3_6  and  N3_7 
REMARK    2  A    between atoms: C5_9  and  N4_10 
REMARK    3  A    between atoms: C6_14  and  O1_15 
REMARK    4  A    between atoms: C9_20  and  N5_21 
REMARK    5  A    between atoms: N5_21  and  N6_23 
REMARK    6  A    between atoms: N6_23  and  N7_25 
REMARK    7  A    between atoms: C10_30  and  C11_31 
REMARK    8  A    between atoms: C11_31  and  N9_32 
REMARK       I    between atoms: N9_32  and  C12_35 
REMARK       I    between atoms: C12_35  and  N10_36 
REMARK       I    between atoms: C12_35  and  N11_40 
ROOT
HETATM    1  N1  UNL     1      26.304 -21.439  14.146  1.00  0.00    -0.190 NA
HETATM    2  C1  UNL     1      26.007 -20.345  13.830  1.00  0.00     0.119 C 
HETATM    3  C2  UNL     1      25.654 -18.996  13.411  1.00  0.00     0.140 A 
HETATM    4  N2  UNL     1      25.177 -18.722  12.218  1.00  0.00    -0.329 N 
ATOM      5  H2  UNL     1      25.103 -19.465  11.524  1.00  0.00     0.168 HD
HETATM    6  C3  UNL     1      24.782 -17.473  11.898  1.00  0.00     0.157 A 
HETATM    7  C9  UNL     1      24.821 -16.388  12.814  1.00  0.00     0.167 A 
HETATM    8  N8  UNL     1      25.339 -16.718  14.009  1.00  0.00    -0.338 N 
ATOM      9  H8  UNL     1      25.426 -15.996  14.724  1.00  0.00     0.167 HD
HETATM   10  C10 UNL     1      25.732 -17.925  14.289  1.00  0.00     0.074 A 
ENDROOT
BRANCH  10  11
HETATM   11  C11 UNL     1      26.575 -18.295  15.472  1.00  0.00     0.296 C 
BRANCH  11  12
HETATM   12  N9  UNL     1      27.831 -17.522  15.319  1.00  0.00    -0.017 N 
HETATM   13  C12 UNL     1      28.876 -18.569  15.054  1.00  0.00     0.576 C 
HETATM   14  N10 UNL     1      29.250 -19.374  16.144  1.00  0.00    -0.026 N 
HETATM   15  N11 UNL     1      29.922 -18.127  14.195  1.00  0.00    -0.026 N 
ATOM     16 3H10 UNL     1      29.548 -18.783  16.921  1.00  0.00     0.278 HD
ATOM     17 2H10 UNL     1      28.421 -19.811  16.548  1.00  0.00     0.278 HD
ATOM     18 1H10 UNL     1      29.959 -20.085  15.965  1.00  0.00     0.278 HD
ATOM     19 3H11 UNL     1      29.542 -17.767  13.320  1.00  0.00     0.278 HD
ATOM     20 2H11 UNL     1      30.350 -17.275  14.558  1.00  0.00     0.278 HD
ATOM     21 1H11 UNL     1      30.631 -18.838  14.016  1.00  0.00     0.278 HD
ATOM     22  H92 UNL     1      27.787 -16.787  14.613  1.00  0.00     0.282 HD
ATOM     23  H91 UNL     1      28.044 -16.907  16.105  1.00  0.00     0.282 HD
ENDBRANCH  11  12
ENDBRANCH  10  11
BRANCH   6  24
HETATM   24  N3  UNL     1      24.711 -17.154  10.488  1.00  0.00    -0.298 N 
HETATM   25  C4  UNL     1      24.533 -18.262   9.551  1.00  0.00     0.169 C 
HETATM   26  C5  UNL     1      25.434 -17.917   8.343  1.00  0.00     0.230 C 
HETATM   27  C6  UNL     1      24.760 -16.782   7.602  1.00  0.00     0.159 C 
HETATM   28  C7  UNL     1      24.376 -15.697   8.540  1.00  0.00     0.137 C 
HETATM   29  C8  UNL     1      24.950 -15.900   9.910  1.00  0.00     0.228 C 
HETATM   30  O2  UNL     1      25.634 -14.958  10.451  1.00  0.00    -0.273 OA
BRANCH  26  31
HETATM   31  N4  UNL     1      26.750 -17.440   8.785  1.00  0.00    -0.071 N 
ATOM     32  H43 UNL     1      26.688 -16.520   9.223  1.00  0.00     0.274 HD
ATOM     33  H42 UNL     1      27.093 -17.971   9.586  1.00  0.00     0.274 HD
ATOM     34  H41 UNL     1      27.420 -17.445   8.016  1.00  0.00     0.274 HD
ENDBRANCH  26  31
BRANCH  27  35
HETATM   35  O1  UNL     1      25.616 -16.260   6.672  1.00  0.00    -0.393 OA
ATOM     36  H1  UNL     1      25.677 -16.843   5.925  1.00  0.00     0.210 HD
ENDBRANCH  27  35
ENDBRANCH   6  24
BRANCH   7  37
HETATM   37  N5  UNL     1      24.183 -15.198  12.438  1.00  0.00    -0.268 N 
ATOM     38  H5  UNL     1      24.753 -14.497  11.964  1.00  0.00     0.190 HD
BRANCH  37  39
HETATM   39  N6  UNL     1      22.940 -14.906  12.635  1.00  0.00    -0.248 N 
ATOM     40  H6  UNL     1      22.484 -15.223  13.491  1.00  0.00     0.207 HD
BRANCH  39  41
HETATM   41  N7  UNL     1      22.203 -14.164  11.702  1.00  0.00    -0.331 N 
ATOM     42  H72 UNL     1      22.483 -14.207  10.722  1.00  0.00     0.178 HD
ATOM     43  H71 UNL     1      21.406 -13.592  11.983  1.00  0.00     0.178 HD
ENDBRANCH  39  41
ENDBRANCH  37  39
ENDBRANCH   7  37
TORSDOF 8
ENDMDL
MODEL 3
REMARK VINA RESULT: -6.417922826      2.578      5.983
REMARK  8 active torsions:
REMARK  status: ('A' for Active; 'I' for Inactive)
REMARK    1  A    between atoms: C3_6  and  N3_7 
REMARK    2  A    between atoms: C5_9  and  N4_10 
REMARK    3  A    between atoms: C6_14  and  O1_15 
REMARK    4  A    between atoms: C9_20  and  N5_21 
REMARK    5  A    between atoms: N5_21  and  N6_23 
REMARK    6  A    between atoms: N6_23  and  N7_25 
REMARK    7  A    between atoms: C10_30  and  C11_31 
REMARK    8  A    between atoms: C11_31  and  N9_32 
REMARK       I    between atoms: N9_32  and  C12_35 
REMARK       I    between atoms: C12_35  and  N10_36 
REMARK       I    between atoms: C12_35  and  N11_40 
ROOT
HETATM    1  N1  UNL     1      26.643 -20.234  14.913  1.00  0.00    -0.190 NA
HETATM    2  C1  UNL     1      26.042 -19.468  14.250  1.00  0.00     0.119 C 
HETATM    3  C2  UNL     1      25.327 -18.513  13.417  1.00  0.00     0.140 A 
HETATM    4  N2  UNL     1      25.546 -18.388  12.127  1.00  0.00    -0.329 N 
ATOM      5  H2  UNL     1      26.290 -18.932  11.689  1.00  0.00     0.168 HD
HETATM    6  C3  UNL     1      24.804 -17.552  11.374  1.00  0.00     0.157 A 
HETATM    7  C9  UNL     1      23.730 -16.782  11.898  1.00  0.00     0.167 A 
HETATM    8  N8  UNL     1      23.565 -16.931  13.223  1.00  0.00    -0.338 N 
ATOM      9  H8  UNL     1      22.831 -16.399  13.689  1.00  0.00     0.167 HD
HETATM   10  C10 UNL     1      24.308 -17.728  13.932  1.00  0.00     0.074 A 
ENDROOT
BRANCH  10  11
HETATM   11  C11 UNL     1      24.375 -17.723  15.430  1.00  0.00     0.296 C 
BRANCH  11  12
HETATM   12  N9  UNL     1      23.269 -16.838  15.871  1.00  0.00    -0.017 N 
HETATM   13  C12 UNL     1      22.388 -17.736  16.693  1.00  0.00     0.576 C 
HETATM   14  N10 UNL     1      21.633 -18.692  15.991  1.00  0.00    -0.026 N 
HETATM   15  N11 UNL     1      21.735 -17.066  17.767  1.00  0.00    -0.026 N 
ATOM     16 3H10 UNL     1      21.075 -18.228  15.274  1.00  0.00     0.278 HD
ATOM     17 2H10 UNL     1      22.252 -19.257  15.410  1.00  0.00     0.278 HD
ATOM     18 1H10 UNL     1      21.035 -19.301  16.549  1.00  0.00     0.278 HD
ATOM     19 3H11 UNL     1      22.412 -16.587  18.358  1.00  0.00     0.278 HD
ATOM     20 2H11 UNL     1      21.209 -16.263  17.423  1.00  0.00     0.278 HD
ATOM     21 1H11 UNL     1      21.137 -17.676  18.324  1.00  0.00     0.278 HD
ATOM     22  H92 UNL     1      23.575 -15.994  16.356  1.00  0.00     0.282 HD
ATOM     23  H91 UNL     1      22.786 -16.360  15.110  1.00  0.00     0.282 HD
ENDBRANCH  11  12
ENDBRANCH  10  11
BRANCH   6  24
HETATM   24  N3  UNL     1      25.376 -17.128  10.114  1.00  0.00    -0.298 N 
HETATM   25  C4  UNL     1      25.751 -15.721   9.979  1.00  0.00     0.169 C 
HETATM   26  C5  UNL     1      25.348 -15.333   8.538  1.00  0.00     0.230 C 
HETATM   27  C6  UNL     1      26.338 -16.002   7.609  1.00  0.00     0.159 C 
HETATM   28  C7  UNL     1      26.488 -17.440   7.946  1.00  0.00     0.137 C 
HETATM   29  C8  UNL     1      25.469 -17.898   8.947  1.00  0.00     0.228 C 
HETATM   30  O2  UNL     1      24.738 -18.918   8.677  1.00  0.00    -0.273 OA
BRANCH  26  31
HETATM   31  N4  UNL     1      24.013 -15.847   8.207  1.00  0.00    -0.071 N 
ATOM     32  H43 UNL     1      24.066 -16.682   7.623  1.00  0.00     0.274 HD
ATOM     33  H42 UNL     1      23.554 -16.256   9.022  1.00  0.00     0.274 HD
ATOM     34  H41 UNL     1      23.437 -15.123   7.776  1.00  0.00     0.274 HD
ENDBRANCH  26  31
BRANCH  27  35
HETATM   35  O1  UNL     1      25.900 -15.909   6.317  1.00  0.00    -0.393 OA
ATOM     36  H1  UNL     1      24.972 -16.105   6.276  1.00  0.00     0.210 HD
ENDBRANCH  27  35
ENDBRANCH   6  24
BRANCH   7  37
HETATM   37  N5  UNL     1      22.898 -16.123  10.983  1.00  0.00    -0.268 N 
ATOM     38  H5  UNL     1      22.646 -16.633  10.136  1.00  0.00     0.190 HD
BRANCH  37  39
HETATM   39  N6  UNL     1      22.419 -14.930  11.112  1.00  0.00    -0.248 N 
ATOM     40  H6  UNL     1      21.946 -14.496  10.320  1.00  0.00     0.207 HD
BRANCH  39  41
HETATM   41  N7  UNL     1      22.535 -14.218  12.314  1.00  0.00    -0.331 N 
ATOM     42  H72 UNL     1      22.388 -14.722  13.188  1.00  0.00     0.178 HD
ATOM     43  H71 UNL     1      22.759 -13.223  12.327  1.00  0.00     0.178 HD
ENDBRANCH  39  41
ENDBRANCH  37  39
ENDBRANCH   7  37
TORSDOF 8
ENDMDL
MODEL 4
REMARK VINA RESULT: -6.274046043      2.825      6.038
REMARK  8 active torsions:
REMARK  status: ('A' for Active; 'I' for Inactive)
REMARK    1  A    between atoms: C3_6  and  N3_7 
REMARK    2  A    between atoms: C5_9  and  N4_10 
REMARK    3  A    between atoms: C6_14  and  O1_15 
REMARK    4  A    between atoms: C9_20  and  N5_21 
REMARK    5  A    between atoms: N5_21  and  N6_23 
REMARK    6  A    between atoms: N6_23  and  N7_25 
REMARK    7  A    between atoms: C10_30  and  C11_31 
REMARK    8  A    between atoms: C11_31  and  N9_32 
REMARK       I    between atoms: N9_32  and  C12_35 
REMARK       I    between atoms: C12_35  and  N10_36 
REMARK       I    between atoms: C12_35  and  N11_40 
ROOT
HETATM    1  N1  UNL     1      26.376 -20.325  14.318  1.00  0.00    -0.190 NA
HETATM    2  C1  UNL     1      25.752 -19.489  13.770  1.00  0.00     0.119 C 
HETATM    3  C2  UNL     1      25.008 -18.449  13.075  1.00  0.00     0.140 A 
HETATM    4  N2  UNL     1      25.006 -18.328  11.766  1.00  0.00    -0.329 N 
ATOM      5  H2  UNL     1      25.596 -18.942  11.204  1.00  0.00     0.168 HD
HETATM    6  C3  UNL     1      24.236 -17.405  11.155  1.00  0.00     0.157 A 
HETATM    7  C9  UNL     1      23.363 -16.533  11.860  1.00  0.00     0.167 A 
HETATM    8  N8  UNL     1      23.422 -16.684  13.193  1.00  0.00    -0.338 N 
ATOM      9  H8  UNL     1      22.845 -16.083  13.782  1.00  0.00     0.167 HD
HETATM   10  C10 UNL     1      24.189 -17.567  13.762  1.00  0.00     0.074 A 
ENDROOT
BRANCH  10  11
HETATM   11  C11 UNL     1      24.522 -17.593  15.223  1.00  0.00     0.296 C 
BRANCH  11  12
HETATM   12  N9  UNL     1      23.475 -16.774  15.881  1.00  0.00    -0.017 N 
HETATM   13  C12 UNL     1      22.589 -17.784  16.553  1.00  0.00     0.576 C 
HETATM   14  N10 UNL     1      21.765 -18.556  15.716  1.00  0.00    -0.026 N 
HETATM   15  N11 UNL     1      22.009 -17.317  17.767  1.00  0.00    -0.026 N 
ATOM     16 3H10 UNL     1      21.199 -17.941  15.131  1.00  0.00     0.278 HD
ATOM     17 2H10 UNL     1      22.335 -19.018  15.006  1.00  0.00     0.278 HD
ATOM     18 1H10 UNL     1      21.164 -19.243  16.172  1.00  0.00     0.278 HD
ATOM     19 3H11 UNL     1      22.731 -16.987  18.408  1.00  0.00     0.278 HD
ATOM     20 2H11 UNL     1      21.506 -16.443  17.613  1.00  0.00     0.278 HD
ATOM     21 1H11 UNL     1      21.408 -18.003  18.223  1.00  0.00     0.278 HD
ATOM     22  H92 UNL     1      23.837 -16.053  16.505  1.00  0.00     0.282 HD
ATOM     23  H91 UNL     1      22.983 -16.139  15.252  1.00  0.00     0.282 HD
ENDBRANCH  11  12
ENDBRANCH  10  11
BRANCH   6  24
HETATM   24  N3  UNL     1      24.617 -17.026   9.812  1.00  0.00    -0.298 N 
HETATM   25  C4  UNL     1      24.829 -18.098   8.839  1.00  0.00     0.169 C 
HETATM   26  C5  UNL     1      26.056 -17.653   8.011  1.00  0.00     0.230 C 
HETATM   27  C6  UNL     1      25.596 -16.520   7.118  1.00  0.00     0.159 C 
HETATM   28  C7  UNL     1      24.855 -15.500   7.902  1.00  0.00     0.137 C 
HETATM   29  C8  UNL     1      24.954 -15.737   9.379  1.00  0.00     0.228 C 
HETATM   30  O2  UNL     1      25.359 -14.786  10.142  1.00  0.00    -0.273 OA
BRANCH  26  31
HETATM   31  N4  UNL     1      27.118 -17.130   8.879  1.00  0.00    -0.071 N 
ATOM     32  H43 UNL     1      26.953 -16.154   9.129  1.00  0.00     0.274 HD
ATOM     33  H42 UNL     1      27.076 -17.539   9.813  1.00  0.00     0.274 HD
ATOM     34  H41 UNL     1      28.036 -17.257   8.454  1.00  0.00     0.274 HD
ENDBRANCH  26  31
BRANCH  27  35
HETATM   35  O1  UNL     1      26.677 -15.914   6.541  1.00  0.00    -0.393 OA
ATOM     36  H1  UNL     1      26.868 -15.099   6.989  1.00  0.00     0.210 HD
ENDBRANCH  27  35
ENDBRANCH   6  24
BRANCH   7  37
HETATM   37  N5  UNL     1      22.457 -15.775  11.106  1.00  0.00    -0.268 N 
ATOM     38  H5  UNL     1      21.793 -16.288  10.527  1.00  0.00     0.190 HD
BRANCH  37  39
HETATM   39  N6  UNL     1      22.385 -14.485  11.077  1.00  0.00    -0.248 N 
ATOM     40  H6  UNL     1      22.738 -13.986  10.260  1.00  0.00     0.207 HD
BRANCH  39  41
HETATM   41  N7  UNL     1      21.833 -13.755  12.139  1.00  0.00    -0.331 N 
ATOM     42  H72 UNL     1      21.399 -14.272  12.904  1.00  0.00     0.178 HD
ATOM     43  H71 UNL     1      21.858 -12.735  12.157  1.00  0.00     0.178 HD
ENDBRANCH  39  41
ENDBRANCH  37  39
ENDBRANCH   7  37
TORSDOF 8
ENDMDL
MODEL 5
REMARK VINA RESULT: -6.033808672      2.582      6.444
REMARK  8 active torsions:
REMARK  status: ('A' for Active; 'I' for Inactive)
REMARK    1  A    between atoms: C3_6  and  N3_7 
REMARK    2  A    between atoms: C5_9  and  N4_10 
REMARK    3  A    between atoms: C6_14  and  O1_15 
REMARK    4  A    between atoms: C9_20  and  N5_21 
REMARK    5  A    between atoms: N5_21  and  N6_23 
REMARK    6  A    between atoms: N6_23  and  N7_25 
REMARK    7  A    between atoms: C10_30  and  C11_31 
REMARK    8  A    between atoms: C11_31  and  N9_32 
REMARK       I    between atoms: N9_32  and  C12_35 
REMARK       I    between atoms: C12_35  and  N10_36 
REMARK       I    between atoms: C12_35  and  N11_40 
ROOT
HETATM    1  N1  UNL     1      26.566 -21.601  14.206  1.00  0.00    -0.190 NA
HETATM    2  C1  UNL     1      26.258 -20.504  13.907  1.00  0.00     0.119 C 
HETATM    3  C2  UNL     1      25.897 -19.150  13.511  1.00  0.00     0.140 A 
HETATM    4  N2  UNL     1      25.547 -18.836  12.284  1.00  0.00    -0.329 N 
ATOM      5  H2  UNL     1      25.586 -19.546  11.553  1.00  0.00     0.168 HD
HETATM    6  C3  UNL     1      25.137 -17.589  11.976  1.00  0.00     0.157 A 
HETATM    7  C9  UNL     1      25.023 -16.550  12.940  1.00  0.00     0.167 A 
HETATM    8  N8  UNL     1      25.415 -16.919  14.170  1.00  0.00    -0.338 N 
ATOM      9  H8  UNL     1      25.388 -16.230  14.922  1.00  0.00     0.167 HD
HETATM   10  C10 UNL     1      25.827 -18.123  14.439  1.00  0.00     0.074 A 
ENDROOT
BRANCH  10  11
HETATM   11  C11 UNL     1      26.544 -18.518  15.695  1.00  0.00     0.296 C 
BRANCH  11  12
HETATM   12  N9  UNL     1      27.819 -17.760  15.676  1.00  0.00    -0.017 N 
HETATM   13  C12 UNL     1      28.830 -18.755  15.182  1.00  0.00     0.576 C 
HETATM   14  N10 UNL     1      29.200 -19.774  16.077  1.00  0.00    -0.026 N 
HETATM   15  N11 UNL     1      29.875 -18.172  14.409  1.00  0.00    -0.026 N 
ATOM     16 3H10 UNL     1      29.525 -19.361  16.951  1.00  0.00     0.278 HD
ATOM     17 2H10 UNL     1      28.365 -20.265  16.401  1.00  0.00     0.278 HD
ATOM     18 1H10 UNL     1      29.886 -20.450  15.742  1.00  0.00     0.278 HD
ATOM     19 3H11 UNL     1      29.491 -17.633  13.634  1.00  0.00     0.278 HD
ATOM     20 2H11 UNL     1      30.331 -17.422  14.929  1.00  0.00     0.278 HD
ATOM     21 1H11 UNL     1      30.561 -18.848  14.074  1.00  0.00     0.278 HD
ATOM     22  H92 UNL     1      27.784 -16.895  15.135  1.00  0.00     0.282 HD
ATOM     23  H91 UNL     1      28.060 -17.324  16.566  1.00  0.00     0.282 HD
ENDBRANCH  11  12
ENDBRANCH  10  11
BRANCH   6  24
HETATM   24  N3  UNL     1      25.214 -17.203  10.584  1.00  0.00    -0.298 N 
HETATM   25  C4  UNL     1      25.494 -15.799  10.284  1.00  0.00     0.169 C 
HETATM   26  C5  UNL     1      24.595 -15.459   9.073  1.00  0.00     0.230 C 
HETATM   27  C6  UNL     1      25.197 -16.152   7.870  1.00  0.00     0.159 C 
HETATM   28  C7  UNL     1      25.480 -17.579   8.172  1.00  0.00     0.137 C 
HETATM   29  C8  UNL     1      24.895 -18.009   9.483  1.00  0.00     0.228 C 
HETATM   30  O2  UNL     1      24.131 -19.041   9.522  1.00  0.00    -0.273 OA
BRANCH  26  31
HETATM   31  N4  UNL     1      23.238 -15.989   9.257  1.00  0.00    -0.071 N 
ATOM     32  H43 UNL     1      22.550 -15.241   9.341  1.00  0.00     0.274 HD
ATOM     33  H42 UNL     1      22.887 -16.429   8.405  1.00  0.00     0.274 HD
ATOM     34  H41 UNL     1      23.198 -16.627  10.052  1.00  0.00     0.274 HD
ENDBRANCH  26  31
BRANCH  27  35
HETATM   35  O1  UNL     1      24.325 -16.103   6.819  1.00  0.00    -0.393 OA
ATOM     36  H1  UNL     1      24.052 -15.206   6.668  1.00  0.00     0.210 HD
ENDBRANCH  27  35
ENDBRANCH   6  24
BRANCH   7  37
HETATM   37  N5  UNL     1      24.381 -15.369  12.545  1.00  0.00    -0.268 N 
ATOM     38  H5  UNL     1      24.959 -14.650  12.110  1.00  0.00     0.190 HD
BRANCH  37  39
HETATM   39  N6  UNL     1      23.123 -15.105  12.682  1.00  0.00    -0.248 N 
ATOM     40  H6  UNL     1      22.504 -15.817  13.068  1.00  0.00     0.207 HD
BRANCH  39  41
HETATM   41  N7  UNL     1      22.589 -13.862  12.312  1.00  0.00    -0.331 N 
ATOM     42  H72 UNL     1      21.575 -13.752  12.324  1.00  0.00     0.178 HD
ATOM     43  H71 UNL     1      23.187 -13.083  12.035  1.00  0.00     0.178 HD
ENDBRANCH  39  41
ENDBRANCH  37  39
ENDBRANCH   7  37
TORSDOF 8
ENDMDL
