MODEL 1
REMARK VINA RESULT: -8.150867954      0.000      0.000
REMARK  8 active torsions:
REMARK  status: ('A' for Active; 'I' for Inactive)
REMARK    1  A    between atoms: N1_1  and  C1_4 
REMARK    2  A    between atoms: C2_7  and  N3_8 
REMARK    3  A    between atoms: C5_16  and  C6_17 
REMARK    4  A    between atoms: C6_17  and  C7_19 
REMARK    5  A    between atoms: C7_19  and  O2_20 
REMARK    6  A    between atoms: C7_19  and  O3_22 
REMARK    7  A    between atoms: C9_25  and  C10_26 
REMARK    8  A    between atoms: C10_26  and  O4_27 
ROOT
HETATM    1  N3  UNL     1      26.002 -18.194  13.720  1.00  0.00    -0.203 N 
HETATM    2  C3  UNL     1      24.961 -17.488  14.428  1.00  0.00     0.164 C 
HETATM    3  C4  UNL     1      23.829 -16.994  13.654  1.00  0.00     0.171 C 
HETATM    4  N4  UNL     1      24.035 -17.114  12.219  1.00  0.00    -0.276 N 
HETATM    5  N5  UNL     1      23.097 -16.851  11.289  1.00  0.00    -0.240 N 
ATOM      6  H5  UNL     1      22.140 -16.547  11.470  1.00  0.00     0.208 HD
HETATM    7  N6  UNL     1      23.629 -17.054  10.116  1.00  0.00    -0.281 N 
ATOM      8  H6  UNL     1      23.146 -16.931   9.226  1.00  0.00     0.188 HD
HETATM    9  C5  UNL     1      24.902 -17.447  10.250  1.00  0.00     0.127 A 
HETATM   10  C8  UNL     1      25.142 -17.478  11.607  1.00  0.00     0.087 A 
HETATM   11  C9  UNL     1      26.369 -17.840  12.348  1.00  0.00     0.179 C 
ENDROOT
BRANCH   1  12
HETATM   12  C2  UNL     1      26.666 -19.243  14.413  1.00  0.00     0.710 A 
HETATM   13  N2  UNL     1      27.864 -19.027  14.979  1.00  0.00    -0.021 N 
HETATM   14  C1  UNL     1      28.548 -19.976  15.628  1.00  0.00     0.705 A 
ATOM     15  H2  UNL     1      28.273 -18.095  14.910  1.00  0.00     0.203 HD
HETATM   16  N9  UNL     1      28.053 -21.205  15.743  1.00  0.00    -0.022 N 
HETATM   17  C11 UNL     1      26.835 -21.459  15.177  1.00  0.00     0.705 A 
ATOM     18  H9  UNL     1      28.566 -21.935  16.237  1.00  0.00     0.203 HD
HETATM   19  N7  UNL     1      26.164 -20.478  14.524  1.00  0.00    -0.021 N 
HETATM   20  N8  UNL     1      26.373 -22.656  15.283  1.00  0.00    -0.234 N 
ATOM     21  H7  UNL     1      25.256 -20.687  14.109  1.00  0.00     0.203 HD
ATOM     22  H82 UNL     1      25.464 -22.845  14.861  1.00  0.00     0.174 HD
ATOM     23  H81 UNL     1      26.877 -23.394  15.774  1.00  0.00     0.174 HD
BRANCH  14  24
HETATM   24  N1  UNL     1      29.716 -19.719  16.172  1.00  0.00    -0.234 N 
ATOM     25  H12 UNL     1      29.799 -18.906  16.782  1.00  0.00     0.174 HD
ATOM     26  H11 UNL     1      30.524 -20.313  15.989  1.00  0.00     0.174 HD
ENDBRANCH  14  24
ENDBRANCH   1  12
BRANCH  11  27
HETATM   27  C10 UNL     1      27.417 -16.794  12.418  1.00  0.00     0.196 C 
BRANCH  27  28
HETATM   28  O4  UNL     1      28.685 -17.405  12.584  1.00  0.00    -0.398 OA
ATOM     29  H4  UNL     1      29.139 -16.999  13.313  1.00  0.00     0.209 HD
ENDBRANCH  27  28
ENDBRANCH  11  27
BRANCH   9  30
HETATM   30  C6  UNL     1      25.769 -17.740   9.137  1.00  0.00     0.233 C 
HETATM   31  O1  UNL     1      26.354 -18.850   9.090  1.00  0.00    -0.285 OA
BRANCH  30  32
HETATM   32  C7  UNL     1      26.015 -16.786   8.025  1.00  0.00     0.332 C 
BRANCH  32  33
HETATM   33  O2  UNL     1      25.939 -15.480   8.480  1.00  0.00    -0.365 OA
ATOM     34  H2  UNL     1      26.602 -14.943   8.061  1.00  0.00     0.213 HD
ENDBRANCH  32  33
BRANCH  32  35
HETATM   35  O3  UNL     1      25.056 -16.937   7.031  1.00  0.00    -0.365 OA
ATOM     36  H3  UNL     1      24.895 -17.857   6.859  1.00  0.00     0.213 HD
ENDBRANCH  32  35
ENDBRANCH  30  32
ENDBRANCH   9  30
TORSDOF 8
ENDMDL
MODEL 2
REMARK VINA RESULT: -7.833278491      0.459      1.734
REMARK  8 active torsions:
REMARK  status: ('A' for Active; 'I' for Inactive)
REMARK    1  A    between atoms: N1_1  and  C1_4 
REMARK    2  A    between atoms: C2_7  and  N3_8 
REMARK    3  A    between atoms: C5_16  and  C6_17 
REMARK    4  A    between atoms: C6_17  and  C7_19 
REMARK    5  A    between atoms: C7_19  and  O2_20 
REMARK    6  A    between atoms: C7_19  and  O3_22 
REMARK    7  A    between atoms: C9_25  and  C10_26 
REMARK    8  A    between atoms: C10_26  and  O4_27 
ROOT
HETATM    1  N3  UNL     1      26.047 -18.184  13.818  1.00  0.00    -0.203 N 
HETATM    2  C3  UNL     1      25.002 -17.532  14.569  1.00  0.00     0.164 C 
HETATM    3  C4  UNL     1      23.829 -17.070  13.837  1.00  0.00     0.171 C 
HETATM    4  N4  UNL     1      23.997 -17.157  12.395  1.00  0.00    -0.276 N 
HETATM    5  N5  UNL     1      23.021 -16.915  11.497  1.00  0.00    -0.240 N 
ATOM      6  H5  UNL     1      22.059 -16.652  11.712  1.00  0.00     0.208 HD
HETATM    7  N6  UNL     1      23.526 -17.077  10.306  1.00  0.00    -0.281 N 
ATOM      8  H6  UNL     1      23.011 -16.958   9.433  1.00  0.00     0.188 HD
HETATM    9  C5  UNL     1      24.816 -17.422  10.396  1.00  0.00     0.127 A 
HETATM   10  C8  UNL     1      25.097 -17.468  11.744  1.00  0.00     0.087 A 
HETATM   11  C9  UNL     1      26.360 -17.793  12.442  1.00  0.00     0.179 C 
ENDROOT
BRANCH   1  12
HETATM   12  C2  UNL     1      26.772 -19.219  14.471  1.00  0.00     0.710 A 
HETATM   13  N2  UNL     1      26.245 -20.449  14.578  1.00  0.00    -0.021 N 
HETATM   14  C1  UNL     1      26.867 -21.460  15.196  1.00  0.00     0.705 A 
ATOM     15  H2  UNL     1      25.326 -20.622  14.169  1.00  0.00     0.203 HD
HETATM   16  N9  UNL     1      28.066 -21.280  15.743  1.00  0.00    -0.022 N 
HETATM   17  C11 UNL     1      28.631 -20.039  15.652  1.00  0.00     0.705 A 
ATOM     18  H9  UNL     1      28.549 -22.045  16.215  1.00  0.00     0.203 HD
HETATM   19  N7  UNL     1      27.978 -19.033  15.021  1.00  0.00    -0.021 N 
HETATM   20  N8  UNL     1      29.786 -19.875  16.197  1.00  0.00    -0.234 N 
ATOM     21  H7  UNL     1      28.415 -18.113  14.962  1.00  0.00     0.203 HD
ATOM     22  H82 UNL     1      30.207 -18.948  16.129  1.00  0.00     0.174 HD
ATOM     23  H81 UNL     1      30.277 -20.631  16.672  1.00  0.00     0.174 HD
BRANCH  14  24
HETATM   24  N1  UNL     1      26.317 -22.650  15.273  1.00  0.00    -0.234 N 
ATOM     25  H12 UNL     1      25.544 -22.786  15.925  1.00  0.00     0.174 HD
ATOM     26  H11 UNL     1      26.653 -23.424  14.701  1.00  0.00     0.174 HD
ENDBRANCH  14  24
ENDBRANCH   1  12
BRANCH  11  27
HETATM   27  C10 UNL     1      27.368 -16.708  12.500  1.00  0.00     0.196 C 
BRANCH  27  28
HETATM   28  O4  UNL     1      28.664 -17.273  12.608  1.00  0.00    -0.398 OA
ATOM     29  H4  UNL     1      28.950 -17.237  13.513  1.00  0.00     0.209 HD
ENDBRANCH  27  28
ENDBRANCH  11  27
BRANCH   9  30
HETATM   30  C6  UNL     1      25.660 -17.662   9.252  1.00  0.00     0.233 C 
HETATM   31  O1  UNL     1      26.279 -18.752   9.164  1.00  0.00    -0.285 OA
BRANCH  30  32
HETATM   32  C7  UNL     1      25.844 -16.677   8.156  1.00  0.00     0.332 C 
BRANCH  32  33
HETATM   33  O2  UNL     1      27.097 -16.819   7.581  1.00  0.00    -0.365 OA
ATOM     34  H2  UNL     1      27.777 -16.699   8.233  1.00  0.00     0.213 HD
ENDBRANCH  32  33
BRANCH  32  35
HETATM   35  O3  UNL     1      25.756 -15.380   8.646  1.00  0.00    -0.365 OA
ATOM     36  H3  UNL     1      25.173 -14.858   8.106  1.00  0.00     0.213 HD
ENDBRANCH  32  35
ENDBRANCH  30  32
ENDBRANCH   9  30
TORSDOF 8
ENDMDL
MODEL 3
REMARK VINA RESULT: -7.247891334      0.722      1.987
REMARK  8 active torsions:
REMARK  status: ('A' for Active; 'I' for Inactive)
REMARK    1  A    between atoms: N1_1  and  C1_4 
REMARK    2  A    between atoms: C2_7  and  N3_8 
REMARK    3  A    between atoms: C5_16  and  C6_17 
REMARK    4  A    between atoms: C6_17  and  C7_19 
REMARK    5  A    between atoms: C7_19  and  O2_20 
REMARK    6  A    between atoms: C7_19  and  O3_22 
REMARK    7  A    between atoms: C9_25  and  C10_26 
REMARK    8  A    between atoms: C10_26  and  O4_27 
ROOT
HETATM    1  N3  UNL     1      26.032 -18.131  13.968  1.00  0.00    -0.203 N 
HETATM    2  C3  UNL     1      24.986 -17.543  14.771  1.00  0.00     0.164 C 
HETATM    3  C4  UNL     1      23.804 -17.041  14.081  1.00  0.00     0.171 C 
HETATM    4  N4  UNL     1      23.962 -17.024  12.635  1.00  0.00    -0.276 N 
HETATM    5  N5  UNL     1      22.979 -16.727  11.764  1.00  0.00    -0.240 N 
ATOM      6  H5  UNL     1      22.016 -16.489  12.003  1.00  0.00     0.208 HD
HETATM    7  N6  UNL     1      23.476 -16.799  10.561  1.00  0.00    -0.281 N 
ATOM      8  H6  UNL     1      22.954 -16.623   9.702  1.00  0.00     0.188 HD
HETATM    9  C5  UNL     1      24.770 -17.138  10.618  1.00  0.00     0.127 A 
HETATM   10  C8  UNL     1      25.061 -17.277  11.957  1.00  0.00     0.087 A 
HETATM   11  C9  UNL     1      26.331 -17.640  12.622  1.00  0.00     0.179 C 
ENDROOT
BRANCH   1  12
HETATM   12  C2  UNL     1      26.770 -19.203  14.542  1.00  0.00     0.710 A 
HETATM   13  N2  UNL     1      26.227 -20.428  14.626  1.00  0.00    -0.021 N 
HETATM   14  C1  UNL     1      26.861 -21.473  15.170  1.00  0.00     0.705 A 
ATOM     15  H2  UNL     1      25.286 -20.569  14.259  1.00  0.00     0.203 HD
HETATM   16  N9  UNL     1      28.090 -21.335  15.661  1.00  0.00    -0.022 N 
HETATM   17  C11 UNL     1      28.671 -20.100  15.591  1.00  0.00     0.705 A 
ATOM     18  H9  UNL     1      28.582 -22.126  16.077  1.00  0.00     0.203 HD
HETATM   19  N7  UNL     1      28.005 -19.059  15.035  1.00  0.00    -0.021 N 
HETATM   20  N8  UNL     1      29.856 -19.977  16.082  1.00  0.00    -0.234 N 
ATOM     21  H7  UNL     1      28.456 -18.145  14.991  1.00  0.00     0.203 HD
ATOM     22  H82 UNL     1      30.289 -19.055  16.030  1.00  0.00     0.174 HD
ATOM     23  H81 UNL     1      30.357 -20.760  16.500  1.00  0.00     0.174 HD
BRANCH  14  24
HETATM   24  N1  UNL     1      26.294 -22.656  15.228  1.00  0.00    -0.234 N 
ATOM     25  H12 UNL     1      25.322 -22.714  15.531  1.00  0.00     0.174 HD
ATOM     26  H11 UNL     1      26.810 -23.500  14.981  1.00  0.00     0.174 HD
ENDBRANCH  14  24
ENDBRANCH   1  12
BRANCH  11  27
HETATM   27  C10 UNL     1      27.330 -16.553  12.751  1.00  0.00     0.196 C 
BRANCH  27  28
HETATM   28  O4  UNL     1      28.636 -17.100  12.683  1.00  0.00    -0.398 OA
ATOM     29  H4  UNL     1      29.185 -16.544  12.143  1.00  0.00     0.209 HD
ENDBRANCH  27  28
ENDBRANCH  11  27
BRANCH   9  30
HETATM   30  C6  UNL     1      25.608 -17.288   9.455  1.00  0.00     0.233 C 
HETATM   31  O1  UNL     1      26.099 -16.265   8.916  1.00  0.00    -0.285 OA
BRANCH  30  32
HETATM   32  C7  UNL     1      25.926 -18.604   8.845  1.00  0.00     0.332 C 
BRANCH  32  33
HETATM   33  O2  UNL     1      26.326 -18.445   7.528  1.00  0.00    -0.365 OA
ATOM     34  H2  UNL     1      27.210 -18.771   7.407  1.00  0.00     0.213 HD
ENDBRANCH  32  33
BRANCH  32  35
HETATM   35  O3  UNL     1      24.805 -19.425   8.842  1.00  0.00    -0.365 OA
ATOM     36  H3  UNL     1      24.856 -20.061   9.546  1.00  0.00     0.213 HD
ENDBRANCH  32  35
ENDBRANCH  30  32
ENDBRANCH   9  30
TORSDOF 8
ENDMDL
MODEL 4
REMARK VINA RESULT: -6.801499145      3.003      4.196
REMARK  8 active torsions:
REMARK  status: ('A' for Active; 'I' for Inactive)
REMARK    1  A    between atoms: N1_1  and  C1_4 
REMARK    2  A    between atoms: C2_7  and  N3_8 
REMARK    3  A    between atoms: C5_16  and  C6_17 
REMARK    4  A    between atoms: C6_17  and  C7_19 
REMARK    5  A    between atoms: C7_19  and  O2_20 
REMARK    6  A    between atoms: C7_19  and  O3_22 
REMARK    7  A    between atoms: C9_25  and  C10_26 
REMARK    8  A    between atoms: C10_26  and  O4_27 
ROOT
HETATM    1  N3  UNL     1      25.237 -18.159  12.273  1.00  0.00    -0.203 N 
HETATM    2  C3  UNL     1      25.132 -18.940  11.064  1.00  0.00     0.164 C 
HETATM    3  C4  UNL     1      24.728 -18.251   9.845  1.00  0.00     0.171 C 
HETATM    4  N4  UNL     1      24.282 -16.889  10.092  1.00  0.00    -0.276 N 
HETATM    5  N5  UNL     1      23.977 -16.000   9.126  1.00  0.00    -0.240 N 
ATOM      6  H5  UNL     1      24.028 -16.164   8.121  1.00  0.00     0.208 HD
HETATM    7  N6  UNL     1      23.608 -14.892   9.706  1.00  0.00    -0.281 N 
ATOM      8  H6  UNL     1      23.320 -14.044   9.217  1.00  0.00     0.188 HD
HETATM    9  C5  UNL     1      23.661 -15.029  11.037  1.00  0.00     0.127 A 
HETATM   10  C8  UNL     1      24.095 -16.317  11.262  1.00  0.00     0.087 A 
HETATM   11  C9  UNL     1      24.343 -17.029  12.534  1.00  0.00     0.179 C 
ENDROOT
BRANCH   1  12
HETATM   12  C2  UNL     1      26.239 -18.536  13.209  1.00  0.00     0.710 A 
HETATM   13  N2  UNL     1      26.048 -19.595  14.013  1.00  0.00    -0.021 N 
HETATM   14  C1  UNL     1      26.942 -19.991  14.925  1.00  0.00     0.705 A 
ATOM     15  H2  UNL     1      25.179 -20.123  13.924  1.00  0.00     0.203 HD
HETATM   16  N9  UNL     1      28.089 -19.333  15.076  1.00  0.00    -0.022 N 
HETATM   17  C11 UNL     1      28.314 -18.250  14.273  1.00  0.00     0.705 A 
ATOM     18  H9  UNL     1      28.778 -19.628  15.768  1.00  0.00     0.203 HD
HETATM   19  N7  UNL     1      27.390 -17.870  13.357  1.00  0.00    -0.021 N 
HETATM   20  N8  UNL     1      29.422 -17.614  14.438  1.00  0.00    -0.234 N 
ATOM     21  H7  UNL     1      27.576 -17.060  12.767  1.00  0.00     0.203 HD
ATOM     22  H82 UNL     1      29.589 -16.805  13.839  1.00  0.00     0.174 HD
ATOM     23  H81 UNL     1      30.117 -17.899  15.127  1.00  0.00     0.174 HD
BRANCH  14  24
HETATM   24  N1  UNL     1      26.717 -21.036  15.688  1.00  0.00    -0.234 N 
ATOM     25  H12 UNL     1      27.498 -21.431  16.213  1.00  0.00     0.174 HD
ATOM     26  H11 UNL     1      25.788 -21.450  15.754  1.00  0.00     0.174 HD
ENDBRANCH  14  24
ENDBRANCH   1  12
BRANCH  11  27
HETATM   27  C10 UNL     1      23.143 -17.556  13.228  1.00  0.00     0.196 C 
BRANCH  27  28
HETATM   28  O4  UNL     1      23.123 -17.079  14.563  1.00  0.00    -0.398 OA
ATOM     29  H4  UNL     1      23.942 -16.636  14.754  1.00  0.00     0.209 HD
ENDBRANCH  27  28
ENDBRANCH  11  27
BRANCH   9  30
HETATM   30  C6  UNL     1      23.301 -13.985  11.962  1.00  0.00     0.233 C 
HETATM   31  O1  UNL     1      24.181 -13.509  12.723  1.00  0.00    -0.285 OA
BRANCH  30  32
HETATM   32  C7  UNL     1      21.927 -13.432  12.072  1.00  0.00     0.332 C 
BRANCH  32  33
HETATM   33  O2  UNL     1      21.794 -12.302  11.281  1.00  0.00    -0.365 OA
ATOM     34  H2  UNL     1      21.089 -11.753  11.601  1.00  0.00     0.213 HD
ENDBRANCH  32  33
BRANCH  32  35
HETATM   35  O3  UNL     1      21.655 -13.056  13.382  1.00  0.00    -0.365 OA
ATOM     36  H3  UNL     1      21.680 -13.811  13.957  1.00  0.00     0.213 HD
ENDBRANCH  32  35
ENDBRANCH  30  32
ENDBRANCH   9  30
TORSDOF 8
ENDMDL
MODEL 5
REMARK VINA RESULT: -6.601553187      2.987      3.902
REMARK  8 active torsions:
REMARK  status: ('A' for Active; 'I' for Inactive)
REMARK    1  A    between atoms: N1_1  and  C1_4 
REMARK    2  A    between atoms: C2_7  and  N3_8 
REMARK    3  A    between atoms: C5_16  and  C6_17 
REMARK    4  A    between atoms: C6_17  and  C7_19 
REMARK    5  A    between atoms: C7_19  and  O2_20 
REMARK    6  A    between atoms: C7_19  and  O3_22 
REMARK    7  A    between atoms: C9_25  and  C10_26 
REMARK    8  A    between atoms: C10_26  and  O4_27 
ROOT
HETATM    1  N3  UNL     1      25.211 -18.221  12.312  1.00  0.00    -0.203 N 
HETATM    2  C3  UNL     1      25.116 -18.996  11.098  1.00  0.00     0.164 C 
HETATM    3  C4  UNL     1      24.753 -18.294   9.873  1.00  0.00     0.171 C 
HETATM    4  N4  UNL     1      24.331 -16.924  10.115  1.00  0.00    -0.276 N 
HETATM    5  N5  UNL     1      24.067 -16.025   9.147  1.00  0.00    -0.240 N 
ATOM      6  H5  UNL     1      24.136 -16.187   8.142  1.00  0.00     0.208 HD
HETATM    7  N6  UNL     1      23.709 -14.911   9.723  1.00  0.00    -0.281 N 
ATOM      8  H6  UNL     1      23.451 -14.056   9.230  1.00  0.00     0.188 HD
HETATM    9  C5  UNL     1      23.731 -15.054  11.054  1.00  0.00     0.127 A 
HETATM   10  C8  UNL     1      24.132 -16.352  11.284  1.00  0.00     0.087 A 
HETATM   11  C9  UNL     1      24.337 -17.073  12.558  1.00  0.00     0.179 C 
ENDROOT
BRANCH   1  12
HETATM   12  C2  UNL     1      26.184 -18.623  13.268  1.00  0.00     0.710 A 
HETATM   13  N2  UNL     1      27.341 -17.950  13.379  1.00  0.00    -0.021 N 
HETATM   14  C1  UNL     1      28.303 -18.288  14.245  1.00  0.00     0.705 A 
ATOM     15  H2  UNL     1      27.494 -17.143  12.774  1.00  0.00     0.203 HD
HETATM   16  N9  UNL     1      28.147 -19.333  15.053  1.00  0.00    -0.022 N 
HETATM   17  C11 UNL     1      26.981 -20.040  14.965  1.00  0.00     0.705 A 
ATOM     18  H9  UNL     1      28.874 -19.598  15.717  1.00  0.00     0.203 HD
HETATM   19  N7  UNL     1      26.022 -19.676  14.078  1.00  0.00    -0.021 N 
HETATM   20  N8  UNL     1      26.847 -21.057  15.744  1.00  0.00    -0.234 N 
ATOM     21  H7  UNL     1      25.158 -20.215  14.027  1.00  0.00     0.203 HD
ATOM     22  H82 UNL     1      25.976 -21.585  15.678  1.00  0.00     0.174 HD
ATOM     23  H81 UNL     1      27.568 -21.332  16.411  1.00  0.00     0.174 HD
BRANCH  14  24
HETATM   24  N1  UNL     1      29.418 -17.598  14.324  1.00  0.00    -0.234 N 
ATOM     25  H12 UNL     1      29.441 -16.780  14.932  1.00  0.00     0.174 HD
ATOM     26  H11 UNL     1      30.243 -17.867  13.788  1.00  0.00     0.174 HD
ENDBRANCH  14  24
ENDBRANCH   1  12
BRANCH  11  27
HETATM   27  C10 UNL     1      23.111 -17.575  13.224  1.00  0.00     0.196 C 
BRANCH  27  28
HETATM   28  O4  UNL     1      23.095 -17.139  14.573  1.00  0.00    -0.398 OA
ATOM     29  H4  UNL     1      22.701 -17.811  15.118  1.00  0.00     0.209 HD
ENDBRANCH  27  28
ENDBRANCH  11  27
BRANCH   9  30
HETATM   30  C6  UNL     1      23.374 -14.005  11.975  1.00  0.00     0.233 C 
HETATM   31  O1  UNL     1      24.255 -13.530  12.735  1.00  0.00    -0.285 OA
BRANCH  30  32
HETATM   32  C7  UNL     1      22.002 -13.445  12.080  1.00  0.00     0.332 C 
BRANCH  32  33
HETATM   33  O2  UNL     1      21.879 -12.312  11.293  1.00  0.00    -0.365 OA
ATOM     34  H2  UNL     1      20.968 -12.157  11.074  1.00  0.00     0.213 HD
ENDBRANCH  32  33
BRANCH  32  35
HETATM   35  O3  UNL     1      21.726 -13.073  13.390  1.00  0.00    -0.365 OA
ATOM     36  H3  UNL     1      22.503 -13.154  13.931  1.00  0.00     0.213 HD
ENDBRANCH  32  35
ENDBRANCH  30  32
ENDBRANCH   9  30
TORSDOF 8
ENDMDL
