MODEL 1
REMARK VINA RESULT: -9.407791616      0.000      0.000
REMARK  4 active torsions:
REMARK  status: ('A' for Active; 'I' for Inactive)
REMARK    1  A    between atoms: C2_2  and  C3_3 
REMARK    2  A    between atoms: C6_12  and  N3_13 
REMARK    3  A    between atoms: N3_13  and  N4_15 
REMARK    4  A    between atoms: C8_19  and  C9_20 
ROOT
HETATM    1  C3  UNL     1      24.771  29.932  33.788  1.00  0.00     0.091 A 
HETATM    2  O1  UNL     1      24.016  29.160  33.078  1.00  0.00    -0.292 OA
HETATM    3  C4  UNL     1      24.212  27.905  33.333  1.00  0.00     0.167 A 
HETATM    4  N1  UNL     1      23.683  26.767  32.862  1.00  0.00    -0.288 N 
ATOM      5  H1  UNL     1      22.956  26.801  32.147  1.00  0.00     0.172 HD
HETATM    6  C5  UNL     1      24.109  25.584  33.328  1.00  0.00     0.327 A 
HETATM    7  O2  UNL     1      23.625  24.482  32.901  1.00  0.00    -0.247 OA
HETATM    8  N2  UNL     1      25.056  25.490  34.261  1.00  0.00    -0.293 N 
ATOM      9  H2  UNL     1      25.355  24.573  34.591  1.00  0.00     0.172 HD
HETATM   10  C6  UNL     1      25.627  26.614  34.776  1.00  0.00     0.139 A 
HETATM   11  C7  UNL     1      25.215  27.843  34.326  1.00  0.00     0.077 A 
HETATM   12  C8  UNL     1      25.585  29.138  34.630  1.00  0.00     0.052 A 
ENDROOT
BRANCH  12  13
HETATM   13  C9  UNL     1      26.608  29.667  35.512  1.00  0.00     0.118 A 
HETATM   14  C10 UNL     1      27.532  30.653  35.479  1.00  0.00     0.116 A 
HETATM   15  C11 UNL     1      28.267  30.672  36.670  1.00  0.00     0.268 A 
HETATM   16  O3  UNL     1      29.200  31.458  36.974  1.00  0.00    -0.266 OA
HETATM   17  N5  UNL     1      27.733  29.664  37.377  1.00  0.00    -0.225 N 
HETATM   18  O4  UNL     1      26.800  29.104  36.715  1.00  0.00    -0.234 OA
ATOM     19  H5  UNL     1      28.032  29.386  38.311  1.00  0.00     0.198 HD
ENDBRANCH  12  13
BRANCH   1  20
HETATM   20  C2  UNL     1      24.829  31.385  33.777  1.00  0.00     0.028 C 
HETATM   21  C1  UNL     1      24.800  32.007  32.591  1.00  0.00     0.014 C 
ENDBRANCH   1  20
BRANCH  10  22
HETATM   22  N3  UNL     1      26.563  26.510  35.634  1.00  0.00    -0.291 N 
ATOM     23  H3  UNL     1      27.528  26.638  35.328  1.00  0.00     0.188 HD
BRANCH  22  24
HETATM   24  N4  UNL     1      26.313  26.228  36.976  1.00  0.00    -0.344 N 
ATOM     25  H42 UNL     1      25.346  26.059  37.256  1.00  0.00     0.176 HD
ATOM     26  H41 UNL     1      27.058  26.188  37.671  1.00  0.00     0.176 HD
ENDBRANCH  22  24
ENDBRANCH  10  22
TORSDOF 4
ENDMDL
MODEL 2
REMARK VINA RESULT: -8.733452513      2.225      5.084
REMARK  4 active torsions:
REMARK  status: ('A' for Active; 'I' for Inactive)
REMARK    1  A    between atoms: C2_2  and  C3_3 
REMARK    2  A    between atoms: C6_12  and  N3_13 
REMARK    3  A    between atoms: N3_13  and  N4_15 
REMARK    4  A    between atoms: C8_19  and  C9_20 
ROOT
HETATM    1  C3  UNL     1      24.726  28.401  33.866  1.00  0.00     0.091 A 
HETATM    2  O1  UNL     1      25.156  29.560  33.491  1.00  0.00    -0.292 OA
HETATM    3  C4  UNL     1      26.043  30.045  34.302  1.00  0.00     0.167 A 
HETATM    4  N1  UNL     1      26.752  31.181  34.333  1.00  0.00    -0.288 N 
ATOM      5  H1  UNL     1      26.637  31.873  33.592  1.00  0.00     0.172 HD
HETATM    6  C5  UNL     1      27.613  31.410  35.336  1.00  0.00     0.327 A 
HETATM    7  O2  UNL     1      28.304  32.483  35.394  1.00  0.00    -0.247 OA
HETATM    8  N2  UNL     1      27.796  30.536  36.324  1.00  0.00    -0.293 N 
ATOM      9  H2  UNL     1      28.458  30.746  37.071  1.00  0.00     0.172 HD
HETATM   10  C6  UNL     1      27.102  29.365  36.343  1.00  0.00     0.139 A 
HETATM   11  C7  UNL     1      26.216  29.093  35.332  1.00  0.00     0.077 A 
HETATM   12  C8  UNL     1      25.377  28.029  35.066  1.00  0.00     0.052 A 
ENDROOT
BRANCH  12  13
HETATM   13  C9  UNL     1      25.085  26.820  35.813  1.00  0.00     0.118 A 
HETATM   14  C10 UNL     1      24.075  25.926  35.896  1.00  0.00     0.116 A 
HETATM   15  C11 UNL     1      24.376  24.938  36.842  1.00  0.00     0.268 A 
HETATM   16  O3  UNL     1      23.661  23.956  37.167  1.00  0.00    -0.266 OA
HETATM   17  N5  UNL     1      25.585  25.303  37.293  1.00  0.00    -0.225 N 
HETATM   18  O4  UNL     1      25.976  26.365  36.707  1.00  0.00    -0.234 OA
ATOM     19  H5  UNL     1      26.117  24.801  38.004  1.00  0.00     0.198 HD
ENDBRANCH  12  13
BRANCH   1  20
HETATM   20  C2  UNL     1      23.738  27.557  33.211  1.00  0.00     0.028 C 
HETATM   21  C1  UNL     1      24.164  26.708  32.266  1.00  0.00     0.014 C 
ENDBRANCH   1  20
BRANCH  10  22
HETATM   22  N3  UNL     1      27.253  28.558  37.318  1.00  0.00    -0.291 N 
ATOM     23  H3  UNL     1      26.706  27.697  37.334  1.00  0.00     0.188 HD
BRANCH  22  24
HETATM   24  N4  UNL     1      28.140  28.812  38.362  1.00  0.00    -0.344 N 
ATOM     25  H42 UNL     1      28.656  28.024  38.753  1.00  0.00     0.176 HD
ATOM     26  H41 UNL     1      28.283  29.750  38.738  1.00  0.00     0.176 HD
ENDBRANCH  22  24
ENDBRANCH  10  22
TORSDOF 4
ENDMDL
MODEL 3
REMARK VINA RESULT: -8.727499507      1.168      1.313
REMARK  4 active torsions:
REMARK  status: ('A' for Active; 'I' for Inactive)
REMARK    1  A    between atoms: C2_2  and  C3_3 
REMARK    2  A    between atoms: C6_12  and  N3_13 
REMARK    3  A    between atoms: N3_13  and  N4_15 
REMARK    4  A    between atoms: C8_19  and  C9_20 
ROOT
HETATM    1  C3  UNL     1      24.989  28.782  33.904  1.00  0.00     0.091 A 
HETATM    2  O1  UNL     1      24.183  27.930  33.361  1.00  0.00    -0.292 OA
HETATM    3  C4  UNL     1      24.145  26.805  34.003  1.00  0.00     0.167 A 
HETATM    4  N1  UNL     1      23.480  25.656  33.826  1.00  0.00    -0.288 N 
ATOM      5  H1  UNL     1      22.836  25.556  33.041  1.00  0.00     0.172 HD
HETATM    6  C5  UNL     1      23.659  24.636  34.679  1.00  0.00     0.327 A 
HETATM    7  O2  UNL     1      23.040  23.528  34.538  1.00  0.00    -0.247 OA
HETATM    8  N2  UNL     1      24.489  24.721  35.718  1.00  0.00    -0.293 N 
ATOM      9  H2  UNL     1      24.601  23.924  36.345  1.00  0.00     0.172 HD
HETATM   10  C6  UNL     1      25.189  25.866  35.946  1.00  0.00     0.139 A 
HETATM   11  C7  UNL     1      25.029  26.931  35.098  1.00  0.00     0.077 A 
HETATM   12  C8  UNL     1      25.580  28.197  35.049  1.00  0.00     0.052 A 
ENDROOT
BRANCH  12  13
HETATM   13  C9  UNL     1      26.592  28.840  35.864  1.00  0.00     0.118 A 
HETATM   14  C10 UNL     1      27.243  30.025  35.885  1.00  0.00     0.116 A 
HETATM   15  C11 UNL     1      28.153  30.063  36.949  1.00  0.00     0.268 A 
HETATM   16  O3  UNL     1      28.918  31.011  37.260  1.00  0.00    -0.266 OA
HETATM   17  N5  UNL     1      27.999  28.862  37.527  1.00  0.00    -0.225 N 
HETATM   18  O4  UNL     1      27.118  28.181  36.908  1.00  0.00    -0.234 OA
ATOM     19  H5  UNL     1      28.515  28.541  38.345  1.00  0.00     0.198 HD
ENDBRANCH  12  13
BRANCH   1  20
HETATM   20  C2  UNL     1      25.288  30.137  33.468  1.00  0.00     0.028 C 
HETATM   21  C1  UNL     1      24.406  31.101  33.764  1.00  0.00     0.014 C 
ENDBRANCH   1  20
BRANCH  10  22
HETATM   22  N3  UNL     1      26.014  25.918  36.917  1.00  0.00    -0.291 N 
ATOM     23  H3  UNL     1      26.864  26.472  36.812  1.00  0.00     0.188 HD
BRANCH  22  24
HETATM   24  N4  UNL     1      25.792  25.244  38.117  1.00  0.00    -0.344 N 
ATOM     25  H42 UNL     1      24.863  24.856  38.282  1.00  0.00     0.176 HD
ATOM     26  H41 UNL     1      26.523  25.132  38.820  1.00  0.00     0.176 HD
ENDBRANCH  22  24
ENDBRANCH  10  22
TORSDOF 4
ENDMDL
MODEL 4
REMARK VINA RESULT: -8.704523449      1.407      5.027
REMARK  4 active torsions:
REMARK  status: ('A' for Active; 'I' for Inactive)
REMARK    1  A    between atoms: C2_2  and  C3_3 
REMARK    2  A    between atoms: C6_12  and  N3_13 
REMARK    3  A    between atoms: N3_13  and  N4_15 
REMARK    4  A    between atoms: C8_19  and  C9_20 
ROOT
HETATM    1  C3  UNL     1      25.556  30.024  34.100  1.00  0.00     0.091 A 
HETATM    2  O1  UNL     1      26.240  30.805  34.868  1.00  0.00    -0.292 OA
HETATM    3  C4  UNL     1      26.843  30.161  35.818  1.00  0.00     0.167 A 
HETATM    4  N1  UNL     1      27.640  30.529  36.830  1.00  0.00    -0.288 N 
ATOM      5  H1  UNL     1      27.885  31.511  36.954  1.00  0.00     0.172 HD
HETATM    6  C5  UNL     1      28.118  29.608  37.680  1.00  0.00     0.327 A 
HETATM    7  O2  UNL     1      28.880  29.926  38.654  1.00  0.00    -0.247 OA
HETATM    8  N2  UNL     1      27.825  28.313  37.557  1.00  0.00    -0.293 N 
ATOM      9  H2  UNL     1      28.206  27.641  38.224  1.00  0.00     0.172 HD
HETATM   10  C6  UNL     1      27.020  27.884  36.546  1.00  0.00     0.139 A 
HETATM   11  C7  UNL     1      26.516  28.796  35.656  1.00  0.00     0.077 A 
HETATM   12  C8  UNL     1      25.690  28.691  34.554  1.00  0.00     0.052 A 
ENDROOT
BRANCH  12  13
HETATM   13  C9  UNL     1      24.998  27.557  33.972  1.00  0.00     0.118 A 
HETATM   14  C10 UNL     1      24.970  26.916  32.782  1.00  0.00     0.116 A 
HETATM   15  C11 UNL     1      24.058  25.854  32.822  1.00  0.00     0.268 A 
HETATM   16  O3  UNL     1      23.785  25.053  31.892  1.00  0.00    -0.266 OA
HETATM   17  N5  UNL     1      23.569  25.915  34.069  1.00  0.00    -0.225 N 
HETATM   18  O4  UNL     1      24.104  26.878  34.709  1.00  0.00    -0.234 OA
ATOM     19  H5  UNL     1      22.868  25.281  34.452  1.00  0.00     0.198 HD
ENDBRANCH  12  13
BRANCH   1  20
HETATM   20  C2  UNL     1      24.757  30.385  32.938  1.00  0.00     0.028 C 
HETATM   21  C1  UNL     1      24.693  31.679  32.597  1.00  0.00     0.014 C 
ENDBRANCH   1  20
BRANCH  10  22
HETATM   22  N3  UNL     1      26.711  26.650  36.467  1.00  0.00    -0.291 N 
ATOM     23  H3  UNL     1      27.297  26.030  35.908  1.00  0.00     0.188 HD
BRANCH  22  24
HETATM   24  N4  UNL     1      25.598  26.120  37.119  1.00  0.00    -0.344 N 
ATOM     25  H42 UNL     1      25.273  26.587  37.965  1.00  0.00     0.176 HD
ATOM     26  H41 UNL     1      25.111  25.292  36.776  1.00  0.00     0.176 HD
ENDBRANCH  22  24
ENDBRANCH  10  22
TORSDOF 4
ENDMDL
MODEL 5
REMARK VINA RESULT: -8.333619502      1.736      2.247
REMARK  4 active torsions:
REMARK  status: ('A' for Active; 'I' for Inactive)
REMARK    1  A    between atoms: C2_2  and  C3_3 
REMARK    2  A    between atoms: C6_12  and  N3_13 
REMARK    3  A    between atoms: N3_13  and  N4_15 
REMARK    4  A    between atoms: C8_19  and  C9_20 
ROOT
HETATM    1  C3  UNL     1      24.902  30.651  34.215  1.00  0.00     0.091 A 
HETATM    2  O1  UNL     1      24.152  29.600  34.167  1.00  0.00    -0.292 OA
HETATM    3  C4  UNL     1      24.662  28.598  34.812  1.00  0.00     0.167 A 
HETATM    4  N1  UNL     1      24.266  27.338  35.035  1.00  0.00    -0.288 N 
ATOM      5  H1  UNL     1      23.377  27.009  34.656  1.00  0.00     0.172 HD
HETATM    6  C5  UNL     1      25.035  26.509  35.756  1.00  0.00     0.327 A 
HETATM    7  O2  UNL     1      24.685  25.302  35.987  1.00  0.00    -0.247 OA
HETATM    8  N2  UNL     1      26.202  26.894  36.270  1.00  0.00    -0.293 N 
ATOM      9  H2  UNL     1      26.761  26.235  36.812  1.00  0.00     0.172 HD
HETATM   10  C6  UNL     1      26.653  28.164  36.075  1.00  0.00     0.139 A 
HETATM   11  C7  UNL     1      25.892  29.042  35.346  1.00  0.00     0.077 A 
HETATM   12  C8  UNL     1      26.062  30.360  34.972  1.00  0.00     0.052 A 
ENDROOT
BRANCH  12  13
HETATM   13  C9  UNL     1      27.160  31.287  35.172  1.00  0.00     0.118 A 
HETATM   14  C10 UNL     1      27.804  32.231  34.450  1.00  0.00     0.116 A 
HETATM   15  C11 UNL     1      28.831  32.806  35.208  1.00  0.00     0.268 A 
HETATM   16  O3  UNL     1      29.624  33.714  34.848  1.00  0.00    -0.266 OA
HETATM   17  N5  UNL     1      28.750  32.157  36.379  1.00  0.00    -0.225 N 
HETATM   18  O4  UNL     1      27.806  31.302  36.348  1.00  0.00    -0.234 OA
ATOM     19  H5  UNL     1      29.358  32.323  37.180  1.00  0.00     0.198 HD
ENDBRANCH  12  13
BRANCH   1  20
HETATM   20  C2  UNL     1      24.659  31.954  33.614  1.00  0.00     0.028 C 
HETATM   21  C1  UNL     1      24.721  32.052  32.279  1.00  0.00     0.014 C 
ENDBRANCH   1  20
BRANCH  10  22
HETATM   22  N3  UNL     1      27.792  28.506  36.533  1.00  0.00    -0.291 N 
ATOM     23  H3  UNL     1      28.569  28.627  35.883  1.00  0.00     0.188 HD
BRANCH  22  24
HETATM   24  N4  UNL     1      28.011  28.723  37.893  1.00  0.00    -0.344 N 
ATOM     25  H42 UNL     1      28.929  29.063  38.180  1.00  0.00     0.176 HD
ATOM     26  H41 UNL     1      27.289  28.553  38.593  1.00  0.00     0.176 HD
ENDBRANCH  22  24
ENDBRANCH  10  22
TORSDOF 4
ENDMDL
