MODEL 1
REMARK VINA RESULT: -5.356760711      0.000      0.000
REMARK  4 active torsions:
REMARK  status: ('A' for Active; 'I' for Inactive)
REMARK    1  A    between atoms: C2_2  and  O1_3 
REMARK    2  A    between atoms: C2_2  and  C3_5 
REMARK    3  A    between atoms: C10_16  and  C11_17 
REMARK    4  A    between atoms: C11_17  and  N3_18 
ROOT
HETATM    1  C3  UNL     1      25.402  32.947  33.601  1.00  0.00     0.082 C 
HETATM    2  C4  UNL     1      24.396  31.849  33.388  1.00  0.00     0.039 C 
HETATM    3  C5  UNL     1      26.234  33.239  32.386  1.00  0.00     0.074 C 
HETATM    4  C6  UNL     1      25.617  34.493  31.835  1.00  0.00     0.117 C 
HETATM    5  C7  UNL     1      26.412  35.721  32.112  1.00  0.00     0.274 C 
HETATM    6  N1  UNL     1      25.652  36.864  31.660  1.00  0.00    -0.055 N 
ATOM      7  H11 UNL     1      26.075  37.738  31.972  1.00  0.00     0.278 HD
ATOM      8  H12 UNL     1      24.760  36.933  32.150  1.00  0.00     0.278 HD
HETATM    9  C8  UNL     1      25.462  36.856  30.223  1.00  0.00     0.298 C 
HETATM   10  C9  UNL     1      26.713  37.068  29.497  1.00  0.00     0.093 C 
HETATM   11  N2  UNL     1      27.701  37.253  28.911  1.00  0.00    -0.195 NA
HETATM   12  C10 UNL     1      24.788  35.588  29.748  1.00  0.00     0.066 C 
HETATM   13  C12 UNL     1      25.360  34.356  30.355  1.00  0.00    -0.005 C 
HETATM   14  C13 UNL     1      24.424  33.206  30.048  1.00  0.00     0.018 C 
HETATM   15  C14 UNL     1      26.660  34.039  29.649  1.00  0.00     0.018 C 
HETATM   16  O2  UNL     1      24.433  34.579  32.554  1.00  0.00    -0.272 OA
HETATM   17  N4  UNL     1      24.690  34.176  33.801  1.00  0.00    -0.087 NA
ENDROOT
BRANCH  12  18
HETATM   18  C11 UNL     1      23.286  35.650  29.925  1.00  0.00     0.238 C 
BRANCH  18  19
HETATM   19  N3  UNL     1      22.702  36.681  29.095  1.00  0.00    -0.079 N 
ATOM     20  H33 UNL     1      22.876  37.611  29.475  1.00  0.00     0.274 HD
ATOM     21  H32 UNL     1      23.202  36.778  28.211  1.00  0.00     0.274 HD
ATOM     22  H31 UNL     1      21.707  36.516  28.947  1.00  0.00     0.274 HD
ENDBRANCH  18  19
ENDBRANCH  12  18
BRANCH   1  23
HETATM   23  C2  UNL     1      26.279  32.572  34.771  1.00  0.00     0.140 C 
HETATM   24  C1  UNL     1      27.722  32.873  34.353  1.00  0.00     0.041 C 
BRANCH  23  25
HETATM   25  O1  UNL     1      26.200  31.232  35.067  1.00  0.00    -0.394 OA
ATOM     26  H1  UNL     1      25.665  30.819  34.400  1.00  0.00     0.210 HD
ENDBRANCH  23  25
ENDBRANCH   1  23
TORSDOF 4
ENDMDL
MODEL 2
REMARK VINA RESULT: -5.184951586      6.842      9.197
REMARK  4 active torsions:
REMARK  status: ('A' for Active; 'I' for Inactive)
REMARK    1  A    between atoms: C2_2  and  O1_3 
REMARK    2  A    between atoms: C2_2  and  C3_5 
REMARK    3  A    between atoms: C10_16  and  C11_17 
REMARK    4  A    between atoms: C11_17  and  N3_18 
ROOT
HETATM    1  C3  UNL     1      28.843  31.012  40.487  1.00  0.00     0.082 C 
HETATM    2  C4  UNL     1      29.755  30.841  41.671  1.00  0.00     0.039 C 
HETATM    3  C5  UNL     1      28.813  32.415  39.955  1.00  0.00     0.074 C 
HETATM    4  C6  UNL     1      29.685  32.344  38.735  1.00  0.00     0.117 C 
HETATM    5  C7  UNL     1      28.922  32.330  37.456  1.00  0.00     0.274 C 
HETATM    6  N1  UNL     1      29.856  32.119  36.373  1.00  0.00    -0.055 N 
ATOM      7  H11 UNL     1      29.369  31.937  35.495  1.00  0.00     0.278 HD
ATOM      8  H12 UNL     1      30.343  31.229  36.474  1.00  0.00     0.278 HD
HETATM    9  C8  UNL     1      30.790  33.218  36.240  1.00  0.00     0.298 C 
HETATM   10  C9  UNL     1      30.139  34.448  35.791  1.00  0.00     0.093 C 
HETATM   11  N2  UNL     1      29.633  35.426  35.417  1.00  0.00    -0.195 NA
HETATM   12  C10 UNL     1      31.556  33.468  37.520  1.00  0.00     0.066 C 
HETATM   13  C12 UNL     1      30.693  33.466  38.732  1.00  0.00    -0.005 C 
HETATM   14  C13 UNL     1      31.594  33.418  39.947  1.00  0.00     0.018 C 
HETATM   15  C14 UNL     1      29.967  34.791  38.800  1.00  0.00     0.018 C 
HETATM   16  O2  UNL     1      30.296  31.107  38.881  1.00  0.00    -0.272 OA
HETATM   17  N4  UNL     1      29.389  30.268  39.389  1.00  0.00    -0.087 NA
ENDROOT
BRANCH  12  18
HETATM   18  C11 UNL     1      32.727  32.519  37.669  1.00  0.00     0.238 C 
BRANCH  18  19
HETATM   19  N3  UNL     1      33.433  32.358  36.416  1.00  0.00    -0.079 N 
ATOM     20  H33 UNL     1      34.227  32.993  36.349  1.00  0.00     0.274 HD
ATOM     21  H32 UNL     1      33.938  31.472  36.382  1.00  0.00     0.274 HD
ATOM     22  H31 UNL     1      32.802  32.460  35.621  1.00  0.00     0.274 HD
ENDBRANCH  18  19
ENDBRANCH  12  18
BRANCH   1  23
HETATM   23  C2  UNL     1      27.458  30.559  40.881  1.00  0.00     0.140 C 
HETATM   24  C1  UNL     1      26.771  31.764  41.532  1.00  0.00     0.041 C 
BRANCH  23  25
HETATM   25  O1  UNL     1      27.490  29.544  41.807  1.00  0.00    -0.394 OA
ATOM     26  H1  UNL     1      26.660  29.548  42.269  1.00  0.00     0.210 HD
ENDBRANCH  23  25
ENDBRANCH   1  23
TORSDOF 4
ENDMDL
MODEL 3
REMARK VINA RESULT: -5.076995684      9.262     11.217
REMARK  4 active torsions:
REMARK  status: ('A' for Active; 'I' for Inactive)
REMARK    1  A    between atoms: C2_2  and  O1_3 
REMARK    2  A    between atoms: C2_2  and  C3_5 
REMARK    3  A    between atoms: C10_16  and  C11_17 
REMARK    4  A    between atoms: C11_17  and  N3_18 
ROOT
HETATM    1  C3  UNL     1      32.721  32.058  40.408  1.00  0.00     0.082 C 
HETATM    2  C4  UNL     1      33.304  32.152  39.024  1.00  0.00     0.039 C 
HETATM    3  C5  UNL     1      31.459  32.851  40.579  1.00  0.00     0.074 C 
HETATM    4  C6  UNL     1      30.380  31.808  40.514  1.00  0.00     0.117 C 
HETATM    5  C7  UNL     1      29.802  31.463  41.843  1.00  0.00     0.274 C 
HETATM    6  N1  UNL     1      28.885  30.360  41.665  1.00  0.00    -0.055 N 
ATOM      7  H11 UNL     1      28.587  29.979  42.563  1.00  0.00     0.278 HD
ATOM      8  H12 UNL     1      29.362  29.540  41.292  1.00  0.00     0.278 HD
HETATM    9  C8  UNL     1      27.748  30.726  40.845  1.00  0.00     0.298 C 
HETATM   10  C9  UNL     1      26.873  31.692  41.508  1.00  0.00     0.093 C 
HETATM   11  N2  UNL     1      26.162  32.446  42.035  1.00  0.00    -0.195 NA
HETATM   12  C10 UNL     1      28.172  31.246  39.490  1.00  0.00     0.066 C 
HETATM   13  C12 UNL     1      29.289  32.226  39.560  1.00  0.00    -0.005 C 
HETATM   14  C13 UNL     1      29.817  32.434  38.156  1.00  0.00     0.018 C 
HETATM   15  C14 UNL     1      28.725  33.560  39.997  1.00  0.00     0.018 C 
HETATM   16  O2  UNL     1      31.071  30.698  40.048  1.00  0.00    -0.272 OA
HETATM   17  N4  UNL     1      32.279  30.709  40.617  1.00  0.00    -0.087 NA
ENDROOT
BRANCH  12  18
HETATM   18  C11 UNL     1      28.478  30.120  38.526  1.00  0.00     0.238 C 
BRANCH  18  19
HETATM   19  N3  UNL     1      28.056  28.843  39.060  1.00  0.00    -0.079 N 
ATOM     20  H33 UNL     1      27.183  28.531  38.637  1.00  0.00     0.274 HD
ATOM     21  H32 UNL     1      28.662  28.086  38.745  1.00  0.00     0.274 HD
ATOM     22  H31 UNL     1      27.991  28.873  40.078  1.00  0.00     0.274 HD
ENDBRANCH  18  19
ENDBRANCH  12  18
BRANCH   1  23
HETATM   23  C2  UNL     1      33.769  32.499  41.400  1.00  0.00     0.140 C 
HETATM   24  C1  UNL     1      33.695  31.524  42.580  1.00  0.00     0.041 C 
BRANCH  23  25
HETATM   25  O1  UNL     1      33.523  33.761  41.884  1.00  0.00    -0.394 OA
ATOM     26  H1  UNL     1      33.037  33.671  42.695  1.00  0.00     0.210 HD
ENDBRANCH  23  25
ENDBRANCH   1  23
TORSDOF 4
ENDMDL
MODEL 4
REMARK VINA RESULT: -4.966668189      2.528      5.105
REMARK  4 active torsions:
REMARK  status: ('A' for Active; 'I' for Inactive)
REMARK    1  A    between atoms: C2_2  and  O1_3 
REMARK    2  A    between atoms: C2_2  and  C3_5 
REMARK    3  A    between atoms: C10_16  and  C11_17 
REMARK    4  A    between atoms: C11_17  and  N3_18 
ROOT
HETATM    1  C3  UNL     1      28.495  35.344  30.878  1.00  0.00     0.082 C 
HETATM    2  C4  UNL     1      29.284  36.403  31.598  1.00  0.00     0.039 C 
HETATM    3  C5  UNL     1      28.201  34.140  31.724  1.00  0.00     0.074 C 
HETATM    4  C6  UNL     1      26.766  34.336  32.122  1.00  0.00     0.117 C 
HETATM    5  C7  UNL     1      25.815  33.472  31.370  1.00  0.00     0.274 C 
HETATM    6  N1  UNL     1      24.470  33.851  31.740  1.00  0.00    -0.055 N 
ATOM      7  H11 UNL     1      23.780  33.405  31.135  1.00  0.00     0.278 HD
ATOM      8  H12 UNL     1      24.283  34.826  31.506  1.00  0.00     0.278 HD
HETATM    9  C8  UNL     1      24.195  33.584  33.137  1.00  0.00     0.298 C 
HETATM   10  C9  UNL     1      24.155  32.152  33.431  1.00  0.00     0.093 C 
HETATM   11  N2  UNL     1      24.104  31.015  33.671  1.00  0.00    -0.195 NA
HETATM   12  C10 UNL     1      25.179  34.279  34.051  1.00  0.00     0.066 C 
HETATM   13  C12 UNL     1      26.593  34.139  33.608  1.00  0.00    -0.005 C 
HETATM   14  C13 UNL     1      27.432  35.112  34.408  1.00  0.00     0.018 C 
HETATM   15  C14 UNL     1      27.075  32.757  33.990  1.00  0.00     0.018 C 
HETATM   16  O2  UNL     1      26.534  35.652  31.750  1.00  0.00    -0.272 OA
HETATM   17  N4  UNL     1      27.187  35.867  30.605  1.00  0.00    -0.087 NA
ENDROOT
BRANCH  12  18
HETATM   18  C11 UNL     1      24.808  35.730  34.277  1.00  0.00     0.238 C 
BRANCH  18  19
HETATM   19  N3  UNL     1      23.372  35.902  34.323  1.00  0.00    -0.079 N 
ATOM     20  H33 UNL     1      22.884  35.066  34.002  1.00  0.00     0.274 HD
ATOM     21  H32 UNL     1      23.028  35.926  35.283  1.00  0.00     0.274 HD
ATOM     22  H31 UNL     1      23.083  36.729  33.800  1.00  0.00     0.274 HD
ENDBRANCH  18  19
ENDBRANCH  12  18
BRANCH   1  23
HETATM   23  C2  UNL     1      29.249  34.950  29.631  1.00  0.00     0.140 C 
HETATM   24  C1  UNL     1      28.271  34.155  28.759  1.00  0.00     0.041 C 
BRANCH  23  25
HETATM   25  O1  UNL     1      30.319  34.133  29.910  1.00  0.00    -0.394 OA
ATOM     26  H1  UNL     1      30.974  34.657  30.356  1.00  0.00     0.210 HD
ENDBRANCH  23  25
ENDBRANCH   1  23
TORSDOF 4
ENDMDL
MODEL 5
REMARK VINA RESULT: -4.966125053      7.196     10.591
REMARK  4 active torsions:
REMARK  status: ('A' for Active; 'I' for Inactive)
REMARK    1  A    between atoms: C2_2  and  O1_3 
REMARK    2  A    between atoms: C2_2  and  C3_5 
REMARK    3  A    between atoms: C10_16  and  C11_17 
REMARK    4  A    between atoms: C11_17  and  N3_18 
ROOT
HETATM    1  C3  UNL     1      29.898  32.664  37.139  1.00  0.00     0.082 C 
HETATM    2  C4  UNL     1      28.658  33.339  36.618  1.00  0.00     0.039 C 
HETATM    3  C5  UNL     1      30.413  33.263  38.414  1.00  0.00     0.074 C 
HETATM    4  C6  UNL     1      29.957  32.291  39.465  1.00  0.00     0.117 C 
HETATM    5  C7  UNL     1      31.044  31.410  39.975  1.00  0.00     0.274 C 
HETATM    6  N1  UNL     1      30.456  30.436  40.867  1.00  0.00    -0.055 N 
ATOM      7  H11 UNL     1      31.128  29.709  41.116  1.00  0.00     0.278 HD
ATOM      8  H12 UNL     1      29.768  29.861  40.384  1.00  0.00     0.278 HD
HETATM    9  C8  UNL     1      29.889  31.054  42.049  1.00  0.00     0.298 C 
HETATM   10  C9  UNL     1      30.912  31.627  42.922  1.00  0.00     0.093 C 
HETATM   11  N2  UNL     1      31.721  32.070  43.630  1.00  0.00    -0.195 NA
HETATM   12  C10 UNL     1      28.853  32.100  41.698  1.00  0.00     0.066 C 
HETATM   13  C12 UNL     1      29.287  33.014  40.607  1.00  0.00    -0.005 C 
HETATM   14  C13 UNL     1      28.077  33.798  40.147  1.00  0.00     0.018 C 
HETATM   15  C14 UNL     1      30.247  34.027  41.190  1.00  0.00     0.018 C 
HETATM   16  O2  UNL     1      29.059  31.499  38.764  1.00  0.00    -0.272 OA
HETATM   17  N4  UNL     1      29.549  31.329  37.533  1.00  0.00    -0.087 NA
ENDROOT
BRANCH  12  18
HETATM   18  C11 UNL     1      27.505  31.479  41.401  1.00  0.00     0.238 C 
BRANCH  18  19
HETATM   19  N3  UNL     1      27.587  30.034  41.380  1.00  0.00    -0.079 N 
ATOM     20  H33 UNL     1      28.555  29.714  41.359  1.00  0.00     0.274 HD
ATOM     21  H32 UNL     1      27.308  29.630  42.274  1.00  0.00     0.274 HD
ATOM     22  H31 UNL     1      27.047  29.645  40.607  1.00  0.00     0.274 HD
ENDBRANCH  18  19
ENDBRANCH  12  18
BRANCH   1  23
HETATM   23  C2  UNL     1      30.955  32.708  36.062  1.00  0.00     0.140 C 
HETATM   24  C1  UNL     1      30.542  33.815  35.087  1.00  0.00     0.041 C 
BRANCH  23  25
HETATM   25  O1  UNL     1      31.022  31.531  35.356  1.00  0.00    -0.394 OA
ATOM     26  H1  UNL     1      30.744  31.711  34.466  1.00  0.00     0.210 HD
ENDBRANCH  23  25
ENDBRANCH   1  23
TORSDOF 4
ENDMDL
