MODEL 1
REMARK VINA RESULT: -7.368574005      0.000      0.000
REMARK  7 active torsions:
REMARK  status: ('A' for Active; 'I' for Inactive)
REMARK    1  A    between atoms: C2_2  and  C3_3 
REMARK    2  A    between atoms: C6_9  and  O1_10 
REMARK    3  A    between atoms: C6_9  and  C7_12 
REMARK    4  A    between atoms: C7_12  and  N2_13 
REMARK       I    between atoms: N2_13  and  C8_15 
REMARK    5  A    between atoms: C8_15  and  C9_17 
REMARK    6  A    between atoms: C9_17  and  C10_19 
REMARK    7  A    between atoms: C11_25  and  N5_26 
ROOT
HETATM    1  N2  UNL     1      24.355  29.444  34.306  1.00  0.00    -0.351 N 
ATOM      2  H2  UNL     1      23.944  29.272  33.388  1.00  0.00     0.162 HD
HETATM    3  C8  UNL     1      24.506  28.359  35.210  1.00  0.00     0.294 C 
HETATM    4  O2  UNL     1      25.012  28.589  36.330  1.00  0.00    -0.264 OA
ENDROOT
BRANCH   1   5
HETATM    5  C7  UNL     1      24.763  30.774  34.652  1.00  0.00     0.160 C 
BRANCH   5   6
HETATM    6  C6  UNL     1      24.151  31.768  33.692  1.00  0.00     0.074 C 
HETATM    7  C5  UNL     1      24.451  33.176  34.102  1.00  0.00     0.040 C 
HETATM    8  C4  UNL     1      23.989  34.202  33.129  1.00  0.00     0.017 C 
HETATM    9  C2  UNL     1      24.353  33.881  31.700  1.00  0.00    -0.012 C 
HETATM   10  C1  UNL     1      23.800  34.898  30.733  1.00  0.00     0.021 C 
HETATM   11  C13 UNL     1      23.849  32.487  31.394  1.00  0.00     0.017 C 
HETATM   12  C12 UNL     1      24.647  31.547  32.274  1.00  0.00     0.040 C 
BRANCH   9  13
HETATM   13  C3  UNL     1      25.835  33.856  31.546  1.00  0.00     0.062 C 
HETATM   14  N1  UNL     1      26.312  34.140  30.395  1.00  0.00    -0.410 N 
ATOM     15  H12 UNL     1      25.688  34.372  29.621  1.00  0.00     0.155 HD
ATOM     16  H11 UNL     1      27.327  34.123  30.289  1.00  0.00     0.155 HD
ENDBRANCH   9  13
BRANCH   6  17
HETATM   17  O1  UNL     1      22.769  31.544  33.665  1.00  0.00    -0.388 OA
ATOM     18  H1  UNL     1      22.580  30.633  33.472  1.00  0.00     0.210 HD
ENDBRANCH   6  17
ENDBRANCH   5   6
ENDBRANCH   1   5
BRANCH   3  19
HETATM   19  C9  UNL     1      24.087  26.998  34.852  1.00  0.00     0.271 C 
HETATM   20  O3  UNL     1      23.799  26.762  33.670  1.00  0.00    -0.280 OA
BRANCH  19  21
HETATM   21  C10 UNL     1      24.019  25.978  35.864  1.00  0.00     0.157 A 
HETATM   22  N3  UNL     1      24.659  25.891  37.052  1.00  0.00    -0.234 N 
HETATM   23  O4  UNL     1      24.306  24.793  37.667  1.00  0.00    -0.155 OA
ATOM     24  H3  UNL     1      25.318  26.580  37.414  1.00  0.00     0.197 HD
HETATM   25  N4  UNL     1      23.451  24.125  36.942  1.00  0.00    -0.224 N 
HETATM   26  C11 UNL     1      23.245  24.839  35.800  1.00  0.00     0.154 A 
ATOM     27  H4  UNL     1      23.017  23.234  37.185  1.00  0.00     0.198 HD
BRANCH  26  28
HETATM   28  N5  UNL     1      22.468  24.519  34.827  1.00  0.00    -0.382 N 
ATOM     29  H52 UNL     1      21.941  25.161  34.233  1.00  0.00     0.157 HD
ATOM     30  H51 UNL     1      22.272  23.568  34.514  1.00  0.00     0.157 HD
ENDBRANCH  26  28
ENDBRANCH  19  21
ENDBRANCH   3  19
TORSDOF 7
ENDMDL
MODEL 2
REMARK VINA RESULT: -7.298974319      1.351      1.628
REMARK  7 active torsions:
REMARK  status: ('A' for Active; 'I' for Inactive)
REMARK    1  A    between atoms: C2_2  and  C3_3 
REMARK    2  A    between atoms: C6_9  and  O1_10 
REMARK    3  A    between atoms: C6_9  and  C7_12 
REMARK    4  A    between atoms: C7_12  and  N2_13 
REMARK       I    between atoms: N2_13  and  C8_15 
REMARK    5  A    between atoms: C8_15  and  C9_17 
REMARK    6  A    between atoms: C9_17  and  C10_19 
REMARK    7  A    between atoms: C11_25  and  N5_26 
ROOT
HETATM    1  N2  UNL     1      25.153  29.680  34.559  1.00  0.00    -0.351 N 
ATOM      2  H2  UNL     1      24.369  29.878  33.937  1.00  0.00     0.162 HD
HETATM    3  C8  UNL     1      25.301  28.373  35.091  1.00  0.00     0.294 C 
HETATM    4  O2  UNL     1      26.269  28.150  35.851  1.00  0.00    -0.264 OA
ENDROOT
BRANCH   1   5
HETATM    5  C7  UNL     1      26.078  30.730  34.872  1.00  0.00     0.160 C 
BRANCH   5   6
HETATM    6  C6  UNL     1      25.586  32.040  34.302  1.00  0.00     0.074 C 
HETATM    7  C5  UNL     1      26.344  32.415  33.066  1.00  0.00     0.040 C 
HETATM    8  C4  UNL     1      25.823  33.628  32.381  1.00  0.00     0.017 C 
HETATM    9  C2  UNL     1      24.323  33.624  32.212  1.00  0.00    -0.012 C 
HETATM   10  C1  UNL     1      23.820  34.901  31.588  1.00  0.00     0.021 C 
HETATM   11  C13 UNL     1      23.702  33.385  33.571  1.00  0.00     0.017 C 
HETATM   12  C12 UNL     1      24.104  31.982  33.978  1.00  0.00     0.040 C 
BRANCH   9  13
HETATM   13  C3  UNL     1      23.912  32.490  31.337  1.00  0.00     0.062 C 
HETATM   14  N1  UNL     1      23.400  32.778  30.201  1.00  0.00    -0.410 N 
ATOM     15  H12 UNL     1      23.284  33.753  29.920  1.00  0.00     0.155 HD
ATOM     16  H11 UNL     1      23.119  32.002  29.601  1.00  0.00     0.155 HD
ENDBRANCH   9  13
BRANCH   6  17
HETATM   17  O1  UNL     1      25.733  33.021  35.290  1.00  0.00    -0.388 OA
ATOM     18  H1  UNL     1      26.652  33.194  35.458  1.00  0.00     0.210 HD
ENDBRANCH   6  17
ENDBRANCH   5   6
ENDBRANCH   1   5
BRANCH   3  19
HETATM   19  C9  UNL     1      24.352  27.300  34.768  1.00  0.00     0.271 C 
HETATM   20  O3  UNL     1      23.737  27.362  33.694  1.00  0.00    -0.280 OA
BRANCH  19  21
HETATM   21  C10 UNL     1      24.155  26.213  35.689  1.00  0.00     0.157 A 
HETATM   22  N3  UNL     1      24.656  26.027  36.930  1.00  0.00    -0.234 N 
HETATM   23  O4  UNL     1      24.220  24.896  37.420  1.00  0.00    -0.155 OA
ATOM     24  H3  UNL     1      25.282  26.672  37.412  1.00  0.00     0.197 HD
HETATM   25  N4  UNL     1      23.440  24.302  36.559  1.00  0.00    -0.224 N 
HETATM   26  C11 UNL     1      23.374  25.100  35.457  1.00  0.00     0.154 A 
ATOM     27  H4  UNL     1      22.968  23.407  36.687  1.00  0.00     0.198 HD
BRANCH  26  28
HETATM   28  N5  UNL     1      22.706  24.869  34.383  1.00  0.00    -0.382 N 
ATOM     29  H52 UNL     1      22.033  25.495  33.939  1.00  0.00     0.157 HD
ATOM     30  H51 UNL     1      22.760  24.017  33.824  1.00  0.00     0.157 HD
ENDBRANCH  26  28
ENDBRANCH  19  21
ENDBRANCH   3  19
TORSDOF 7
ENDMDL
MODEL 3
REMARK VINA RESULT: -7.283181703      1.425      2.217
REMARK  7 active torsions:
REMARK  status: ('A' for Active; 'I' for Inactive)
REMARK    1  A    between atoms: C2_2  and  C3_3 
REMARK    2  A    between atoms: C6_9  and  O1_10 
REMARK    3  A    between atoms: C6_9  and  C7_12 
REMARK    4  A    between atoms: C7_12  and  N2_13 
REMARK       I    between atoms: N2_13  and  C8_15 
REMARK    5  A    between atoms: C8_15  and  C9_17 
REMARK    6  A    between atoms: C9_17  and  C10_19 
REMARK    7  A    between atoms: C11_25  and  N5_26 
ROOT
HETATM    1  N2  UNL     1      24.395  28.994  34.046  1.00  0.00    -0.351 N 
ATOM      2  H2  UNL     1      24.965  29.390  34.794  1.00  0.00     0.162 HD
HETATM    3  C8  UNL     1      23.983  27.638  34.134  1.00  0.00     0.294 C 
HETATM    4  O2  UNL     1      23.284  27.171  33.207  1.00  0.00    -0.264 OA
ENDROOT
BRANCH   1   5
HETATM    5  C7  UNL     1      24.030  29.821  32.933  1.00  0.00     0.160 C 
BRANCH   5   6
HETATM    6  C6  UNL     1      24.103  31.278  33.327  1.00  0.00     0.074 C 
HETATM    7  C5  UNL     1      25.145  31.506  34.377  1.00  0.00     0.040 C 
HETATM    8  C4  UNL     1      25.359  32.939  34.717  1.00  0.00     0.017 C 
HETATM    9  C2  UNL     1      25.494  33.828  33.506  1.00  0.00    -0.012 C 
HETATM   10  C1  UNL     1      25.630  35.282  33.884  1.00  0.00     0.021 C 
HETATM   11  C13 UNL     1      24.292  33.592  32.617  1.00  0.00     0.017 C 
HETATM   12  C12 UNL     1      24.403  32.162  32.129  1.00  0.00     0.040 C 
BRANCH   9  13
HETATM   13  C3  UNL     1      26.701  33.442  32.722  1.00  0.00     0.062 C 
HETATM   14  N1  UNL     1      27.841  33.605  33.278  1.00  0.00    -0.410 N 
ATOM     15  H12 UNL     1      27.905  33.987  34.222  1.00  0.00     0.155 HD
ATOM     16  H11 UNL     1      28.668  33.340  32.741  1.00  0.00     0.155 HD
ENDBRANCH   9  13
BRANCH   6  17
HETATM   17  O1  UNL     1      22.839  31.662  33.791  1.00  0.00    -0.388 OA
ATOM     18  H1  UNL     1      22.332  30.902  34.052  1.00  0.00     0.210 HD
ENDBRANCH   6  17
ENDBRANCH   5   6
ENDBRANCH   1   5
BRANCH   3  19
HETATM   19  C9  UNL     1      24.358  26.794  35.275  1.00  0.00     0.271 C 
HETATM   20  O3  UNL     1      25.345  27.121  35.950  1.00  0.00    -0.280 OA
BRANCH  19  21
HETATM   21  C10 UNL     1      23.588  25.619  35.584  1.00  0.00     0.157 A 
HETATM   22  N3  UNL     1      22.619  25.005  34.869  1.00  0.00    -0.234 N 
HETATM   23  O4  UNL     1      22.179  23.962  35.522  1.00  0.00    -0.155 OA
ATOM     24  H3  UNL     1      22.282  25.310  33.956  1.00  0.00     0.197 HD
HETATM   25  N4  UNL     1      22.810  23.842  36.658  1.00  0.00    -0.224 N 
HETATM   26  C11 UNL     1      23.705  24.866  36.734  1.00  0.00     0.154 A 
ATOM     27  H4  UNL     1      22.661  23.116  37.360  1.00  0.00     0.198 HD
BRANCH  26  28
HETATM   28  N5  UNL     1      24.521  25.101  37.699  1.00  0.00    -0.382 N 
ATOM     29  H52 UNL     1      24.361  25.723  38.492  1.00  0.00     0.157 HD
ATOM     30  H51 UNL     1      25.450  24.692  37.801  1.00  0.00     0.157 HD
ENDBRANCH  26  28
ENDBRANCH  19  21
ENDBRANCH   3  19
TORSDOF 7
ENDMDL
MODEL 4
REMARK VINA RESULT: -7.276850764      3.747      5.931
REMARK  7 active torsions:
REMARK  status: ('A' for Active; 'I' for Inactive)
REMARK    1  A    between atoms: C2_2  and  C3_3 
REMARK    2  A    between atoms: C6_9  and  O1_10 
REMARK    3  A    between atoms: C6_9  and  C7_12 
REMARK    4  A    between atoms: C7_12  and  N2_13 
REMARK       I    between atoms: N2_13  and  C8_15 
REMARK    5  A    between atoms: C8_15  and  C9_17 
REMARK    6  A    between atoms: C9_17  and  C10_19 
REMARK    7  A    between atoms: C11_25  and  N5_26 
ROOT
HETATM    1  N2  UNL     1      26.135  28.725  35.459  1.00  0.00    -0.351 N 
ATOM      2  H2  UNL     1      26.863  28.010  35.486  1.00  0.00     0.162 HD
HETATM    3  C8  UNL     1      24.807  28.347  35.129  1.00  0.00     0.294 C 
HETATM    4  O2  UNL     1      23.929  29.237  35.101  1.00  0.00    -0.264 OA
ENDROOT
BRANCH   1   5
HETATM    5  C7  UNL     1      26.480  30.085  35.755  1.00  0.00     0.160 C 
BRANCH   5   6
HETATM    6  C6  UNL     1      27.553  30.126  36.817  1.00  0.00     0.074 C 
HETATM    7  C5  UNL     1      27.539  31.429  37.554  1.00  0.00     0.040 C 
HETATM    8  C4  UNL     1      28.486  31.487  38.701  1.00  0.00     0.017 C 
HETATM    9  C2  UNL     1      28.424  30.270  39.591  1.00  0.00    -0.012 C 
HETATM   10  C1  UNL     1      29.450  30.324  40.695  1.00  0.00     0.021 C 
HETATM   11  C13 UNL     1      28.605  29.046  38.719  1.00  0.00     0.017 C 
HETATM   12  C12 UNL     1      27.393  28.991  37.813  1.00  0.00     0.040 C 
BRANCH   9  13
HETATM   13  C3  UNL     1      27.077  30.166  40.219  1.00  0.00     0.062 C 
HETATM   14  N1  UNL     1      26.970  29.447  41.271  1.00  0.00    -0.410 N 
ATOM     15  H12 UNL     1      27.787  28.969  41.653  1.00  0.00     0.155 HD
ATOM     16  H11 UNL     1      26.048  29.376  41.701  1.00  0.00     0.155 HD
ENDBRANCH   9  13
BRANCH   6  17
HETATM   17  O1  UNL     1      28.788  29.926  36.188  1.00  0.00    -0.388 OA
ATOM     18  H1  UNL     1      28.785  29.116  35.692  1.00  0.00     0.210 HD
ENDBRANCH   6  17
ENDBRANCH   5   6
ENDBRANCH   1   5
BRANCH   3  19
HETATM   19  C9  UNL     1      24.458  26.953  34.827  1.00  0.00     0.271 C 
HETATM   20  O3  UNL     1      24.329  26.623  33.639  1.00  0.00    -0.280 OA
BRANCH  19  21
HETATM   21  C10 UNL     1      24.273  26.010  35.897  1.00  0.00     0.157 A 
HETATM   22  N3  UNL     1      24.916  25.906  37.081  1.00  0.00    -0.234 N 
HETATM   23  O4  UNL     1      24.432  24.902  37.763  1.00  0.00    -0.155 OA
ATOM     24  H3  UNL     1      25.667  26.521  37.396  1.00  0.00     0.197 HD
HETATM   25  N4  UNL     1      23.483  24.314  37.087  1.00  0.00    -0.224 N 
HETATM   26  C11 UNL     1      23.353  24.983  35.908  1.00  0.00     0.154 A 
ATOM     27  H4  UNL     1      22.939  23.504  37.386  1.00  0.00     0.198 HD
BRANCH  26  28
HETATM   28  N5  UNL     1      22.523  24.716  34.963  1.00  0.00    -0.382 N 
ATOM     29  H52 UNL     1      22.136  25.377  34.288  1.00  0.00     0.157 HD
ATOM     30  H51 UNL     1      22.136  23.794  34.758  1.00  0.00     0.157 HD
ENDBRANCH  26  28
ENDBRANCH  19  21
ENDBRANCH   3  19
TORSDOF 7
ENDMDL
MODEL 5
REMARK VINA RESULT: -7.242987022      4.106      5.527
REMARK  7 active torsions:
REMARK  status: ('A' for Active; 'I' for Inactive)
REMARK    1  A    between atoms: C2_2  and  C3_3 
REMARK    2  A    between atoms: C6_9  and  O1_10 
REMARK    3  A    between atoms: C6_9  and  C7_12 
REMARK    4  A    between atoms: C7_12  and  N2_13 
REMARK       I    between atoms: N2_13  and  C8_15 
REMARK    5  A    between atoms: C8_15  and  C9_17 
REMARK    6  A    between atoms: C9_17  and  C10_19 
REMARK    7  A    between atoms: C11_25  and  N5_26 
ROOT
HETATM    1  N2  UNL     1      25.877  28.197  35.807  1.00  0.00    -0.351 N 
ATOM      2  H2  UNL     1      26.687  27.578  35.768  1.00  0.00     0.162 HD
HETATM    3  C8  UNL     1      24.604  27.695  35.431  1.00  0.00     0.294 C 
HETATM    4  O2  UNL     1      23.623  28.469  35.487  1.00  0.00    -0.264 OA
ENDROOT
BRANCH   1   5
HETATM    5  C7  UNL     1      26.054  29.552  36.241  1.00  0.00     0.160 C 
BRANCH   5   6
HETATM    6  C6  UNL     1      27.438  29.733  36.821  1.00  0.00     0.074 C 
HETATM    7  C5  UNL     1      28.112  30.943  36.252  1.00  0.00     0.040 C 
HETATM    8  C4  UNL     1      29.427  31.252  36.875  1.00  0.00     0.017 C 
HETATM    9  C2  UNL     1      29.401  31.207  38.384  1.00  0.00    -0.012 C 
HETATM   10  C1  UNL     1      30.765  31.446  38.980  1.00  0.00     0.021 C 
HETATM   11  C13 UNL     1      28.836  29.866  38.800  1.00  0.00     0.017 C 
HETATM   12  C12 UNL     1      27.395  29.852  38.334  1.00  0.00     0.040 C 
BRANCH   9  13
HETATM   13  C3  UNL     1      28.479  32.253  38.909  1.00  0.00     0.062 C 
HETATM   14  N1  UNL     1      28.710  32.709  40.081  1.00  0.00    -0.410 N 
ATOM     15  H12 UNL     1      29.500  32.358  40.623  1.00  0.00     0.155 HD
ATOM     16  H11 UNL     1      28.079  33.425  40.440  1.00  0.00     0.155 HD
ENDBRANCH   9  13
BRANCH   6  17
HETATM   17  O1  UNL     1      28.176  28.576  36.539  1.00  0.00    -0.388 OA
ATOM     18  H1  UNL     1      29.107  28.756  36.570  1.00  0.00     0.210 HD
ENDBRANCH   6  17
ENDBRANCH   5   6
ENDBRANCH   1   5
BRANCH   3  19
HETATM   19  C9  UNL     1      24.427  26.306  34.988  1.00  0.00     0.271 C 
HETATM   20  O3  UNL     1      24.726  26.018  33.820  1.00  0.00    -0.280 OA
BRANCH  19  21
HETATM   21  C10 UNL     1      23.916  25.319  35.901  1.00  0.00     0.157 A 
HETATM   22  N3  UNL     1      24.165  25.147  37.218  1.00  0.00    -0.234 N 
HETATM   23  O4  UNL     1      23.488  24.123  37.667  1.00  0.00    -0.155 OA
ATOM     24  H3  UNL     1      24.788  25.729  37.778  1.00  0.00     0.197 HD
HETATM   25  N4  UNL     1      22.787  23.588  36.705  1.00  0.00    -0.224 N 
HETATM   26  C11 UNL     1      23.029  24.313  35.578  1.00  0.00     0.154 A 
ATOM     27  H4  UNL     1      22.172  22.778  36.782  1.00  0.00     0.198 HD
BRANCH  26  28
HETATM   28  N5  UNL     1      22.527  24.109  34.413  1.00  0.00    -0.382 N 
ATOM     29  H52 UNL     1      22.844  24.518  33.533  1.00  0.00     0.157 HD
ATOM     30  H51 UNL     1      21.733  23.501  34.209  1.00  0.00     0.157 HD
ENDBRANCH  26  28
ENDBRANCH  19  21
ENDBRANCH   3  19
TORSDOF 7
ENDMDL
