MODEL 1
REMARK VINA RESULT: -6.617891436      0.000      0.000
REMARK  8 active torsions:
REMARK  status: ('A' for Active; 'I' for Inactive)
REMARK    1  A    between atoms: N1_2  and  C2_4 
REMARK    2  A    between atoms: C4_8  and  N3_9 
REMARK    3  A    between atoms: C5_12  and  N4_13 
REMARK    4  A    between atoms: N4_13  and  C7_15 
REMARK    5  A    between atoms: C8_17  and  C9_18 
REMARK    6  A    between atoms: C9_18  and  C10_19 
REMARK    7  A    between atoms: C10_19  and  O2_20 
REMARK    8  A    between atoms: N5_22  and  O3_24 
ROOT
HETATM    1  C2  UNL     1      25.444  27.121  36.275  1.00  0.00     0.146 A 
HETATM    2  N2  UNL     1      26.284  28.118  36.527  1.00  0.00    -0.333 N 
ATOM      3  H2  UNL     1      26.995  28.027  37.253  1.00  0.00     0.168 HD
HETATM    4  C3  UNL     1      26.183  29.219  35.827  1.00  0.00     0.097 A 
HETATM    5  C4  UNL     1      26.949  30.373  35.925  1.00  0.00     0.085 A 
HETATM    6  C5  UNL     1      26.706  31.480  35.089  1.00  0.00     0.088 A 
HETATM    7  C8  UNL     1      25.734  31.489  34.163  1.00  0.00     0.047 A 
HETATM    8  N6  UNL     1      24.984  30.343  34.075  1.00  0.00    -0.350 N 
ATOM      9  H6  UNL     1      24.231  30.292  33.389  1.00  0.00     0.166 HD
HETATM   10  C11 UNL     1      25.215  29.290  34.869  1.00  0.00     0.107 A 
HETATM   11  S1  UNL     1      24.472  27.734  35.015  1.00  0.00    -0.034 SA
ENDROOT
BRANCH   7  12
HETATM   12  C9  UNL     1      25.320  32.565  33.247  1.00  0.00     0.145 C 
BRANCH  12  13
HETATM   13  C10 UNL     1      23.978  32.357  32.675  1.00  0.00     0.141 C 
HETATM   14  N5  UNL     1      23.784  32.549  31.374  1.00  0.00    -0.251 N 
ATOM     15  H5  UNL     1      22.862  32.409  30.960  1.00  0.00     0.196 HD
BRANCH  13  16
HETATM   16  O2  UNL     1      22.925  31.970  33.451  1.00  0.00    -0.348 OA
ATOM     17  H2  UNL     1      22.747  31.053  33.624  1.00  0.00     0.219 HD
ENDBRANCH  13  16
BRANCH  14  18
HETATM   18  O3  UNL     1      24.856  32.943  30.591  1.00  0.00    -0.288 OA
ATOM     19  H3  UNL     1      24.748  33.685  30.007  1.00  0.00     0.244 HD
ENDBRANCH  14  18
ENDBRANCH  12  13
ENDBRANCH   7  12
BRANCH   6  20
HETATM   20  N4  UNL     1      27.571  32.610  35.243  1.00  0.00    -0.326 N 
HETATM   21  C6  UNL     1      27.277  33.681  36.153  1.00  0.00     0.159 C 
BRANCH  20  22
HETATM   22  C7  UNL     1      28.730  32.683  34.438  1.00  0.00     0.355 C 
HETATM   23  O1  UNL     1      29.744  31.965  34.692  1.00  0.00    -0.283 OA
ENDBRANCH  20  22
ENDBRANCH   6  20
BRANCH   5  24
HETATM   24  N3  UNL     1      27.922  30.479  36.785  1.00  0.00    -0.395 N 
ATOM     25  H32 UNL     1      27.682  30.390  37.773  1.00  0.00     0.156 HD
ATOM     26  H31 UNL     1      28.883  30.648  36.490  1.00  0.00     0.156 HD
ENDBRANCH   5  24
BRANCH   1  27
HETATM   27  N1  UNL     1      25.340  25.950  36.815  1.00  0.00    -0.375 N 
HETATM   28  C1  UNL     1      24.067  25.250  36.870  1.00  0.00     0.148 C 
ATOM     29  H1  UNL     1      26.169  25.508  37.210  1.00  0.00     0.161 HD
ENDBRANCH   1  27
TORSDOF 8
ENDMDL
MODEL 2
REMARK VINA RESULT: -6.582974370      1.008      1.208
REMARK  8 active torsions:
REMARK  status: ('A' for Active; 'I' for Inactive)
REMARK    1  A    between atoms: N1_2  and  C2_4 
REMARK    2  A    between atoms: C4_8  and  N3_9 
REMARK    3  A    between atoms: C5_12  and  N4_13 
REMARK    4  A    between atoms: N4_13  and  C7_15 
REMARK    5  A    between atoms: C8_17  and  C9_18 
REMARK    6  A    between atoms: C9_18  and  C10_19 
REMARK    7  A    between atoms: C10_19  and  O2_20 
REMARK    8  A    between atoms: N5_22  and  O3_24 
ROOT
HETATM    1  C2  UNL     1      25.304  27.055  36.399  1.00  0.00     0.146 A 
HETATM    2  N2  UNL     1      26.198  27.984  36.719  1.00  0.00    -0.333 N 
ATOM      3  H2  UNL     1      26.853  27.831  37.486  1.00  0.00     0.168 HD
HETATM    4  C3  UNL     1      26.222  29.098  36.033  1.00  0.00     0.097 A 
HETATM    5  C4  UNL     1      27.063  30.190  36.196  1.00  0.00     0.085 A 
HETATM    6  C5  UNL     1      26.954  31.323  35.366  1.00  0.00     0.088 A 
HETATM    7  C8  UNL     1      26.045  31.414  34.382  1.00  0.00     0.047 A 
HETATM    8  N6  UNL     1      25.220  30.328  34.229  1.00  0.00    -0.350 N 
ATOM      9  H6  UNL     1      24.509  30.342  33.497  1.00  0.00     0.166 HD
HETATM   10  C11 UNL     1      25.323  29.251  35.018  1.00  0.00     0.107 A 
HETATM   11  S1  UNL     1      24.460  27.754  35.093  1.00  0.00    -0.034 SA
ENDROOT
BRANCH   7  12
HETATM   12  C9  UNL     1      25.769  32.529  33.460  1.00  0.00     0.145 C 
BRANCH  12  13
HETATM   13  C10 UNL     1      24.649  33.381  33.897  1.00  0.00     0.141 C 
HETATM   14  N5  UNL     1      23.408  33.068  33.537  1.00  0.00    -0.251 N 
ATOM     15  H5  UNL     1      22.620  33.645  33.831  1.00  0.00     0.196 HD
BRANCH  13  16
HETATM   16  O2  UNL     1      24.855  34.489  34.666  1.00  0.00    -0.348 OA
ATOM     17  H2  UNL     1      24.212  34.777  35.304  1.00  0.00     0.219 HD
ENDBRANCH  13  16
BRANCH  14  18
HETATM   18  O3  UNL     1      23.206  31.943  32.755  1.00  0.00    -0.288 OA
ATOM     19  H3  UNL     1      22.323  31.603  32.662  1.00  0.00     0.244 HD
ENDBRANCH  14  18
ENDBRANCH  12  13
ENDBRANCH   7  12
BRANCH   6  20
HETATM   20  N4  UNL     1      27.889  32.383  35.591  1.00  0.00    -0.326 N 
HETATM   21  C6  UNL     1      27.638  33.436  36.534  1.00  0.00     0.159 C 
BRANCH  20  22
HETATM   22  C7  UNL     1      29.075  32.406  34.824  1.00  0.00     0.355 C 
HETATM   23  O1  UNL     1      30.003  31.568  35.037  1.00  0.00    -0.283 OA
ENDBRANCH  20  22
ENDBRANCH   6  20
BRANCH   5  24
HETATM   24  N3  UNL     1      27.986  30.213  37.116  1.00  0.00    -0.395 N 
ATOM     25  H32 UNL     1      27.678  30.139  38.086  1.00  0.00     0.156 HD
ATOM     26  H31 UNL     1      28.974  30.305  36.882  1.00  0.00     0.156 HD
ENDBRANCH   5  24
BRANCH   1  27
HETATM   27  N1  UNL     1      25.080  25.889  36.912  1.00  0.00    -0.375 N 
HETATM   28  C1  UNL     1      23.814  25.204  36.718  1.00  0.00     0.148 C 
ATOM     29  H1  UNL     1      25.810  25.440  37.465  1.00  0.00     0.161 HD
ENDBRANCH   1  27
TORSDOF 8
ENDMDL
MODEL 3
REMARK VINA RESULT: -6.580616462      2.678      4.927
REMARK  8 active torsions:
REMARK  status: ('A' for Active; 'I' for Inactive)
REMARK    1  A    between atoms: N1_2  and  C2_4 
REMARK    2  A    between atoms: C4_8  and  N3_9 
REMARK    3  A    between atoms: C5_12  and  N4_13 
REMARK    4  A    between atoms: N4_13  and  C7_15 
REMARK    5  A    between atoms: C8_17  and  C9_18 
REMARK    6  A    between atoms: C9_18  and  C10_19 
REMARK    7  A    between atoms: C10_19  and  O2_20 
REMARK    8  A    between atoms: N5_22  and  O3_24 
ROOT
HETATM    1  C2  UNL     1      23.676  26.137  34.855  1.00  0.00     0.146 A 
HETATM    2  N2  UNL     1      23.973  27.349  34.401  1.00  0.00    -0.333 N 
ATOM      3  H2  UNL     1      23.521  27.714  33.562  1.00  0.00     0.168 HD
HETATM    4  C3  UNL     1      24.855  28.066  35.049  1.00  0.00     0.097 A 
HETATM    5  C4  UNL     1      25.310  29.343  34.752  1.00  0.00     0.085 A 
HETATM    6  C5  UNL     1      26.274  29.978  35.559  1.00  0.00     0.088 A 
HETATM    7  C8  UNL     1      26.805  29.395  36.646  1.00  0.00     0.047 A 
HETATM    8  N6  UNL     1      26.348  28.133  36.930  1.00  0.00    -0.350 N 
ATOM      9  H6  UNL     1      26.716  27.642  37.745  1.00  0.00     0.166 HD
HETATM   10  C11 UNL     1      25.430  27.530  36.163  1.00  0.00     0.107 A 
HETATM   11  S1  UNL     1      24.662  25.981  36.237  1.00  0.00    -0.034 SA
ENDROOT
BRANCH   7  12
HETATM   12  C9  UNL     1      27.843  29.893  37.566  1.00  0.00     0.145 C 
BRANCH  12  13
HETATM   13  C10 UNL     1      28.078  29.001  38.715  1.00  0.00     0.141 C 
HETATM   14  N5  UNL     1      29.181  28.259  38.753  1.00  0.00    -0.251 N 
ATOM     15  H5  UNL     1      29.360  27.636  39.540  1.00  0.00     0.196 HD
BRANCH  13  16
HETATM   16  O2  UNL     1      27.188  28.917  39.745  1.00  0.00    -0.348 OA
ATOM     17  H2  UNL     1      26.395  28.397  39.675  1.00  0.00     0.219 HD
ENDBRANCH  13  16
BRANCH  14  18
HETATM   18  O3  UNL     1      30.080  28.348  37.703  1.00  0.00    -0.288 OA
ATOM     19  H3  UNL     1      30.845  27.785  37.708  1.00  0.00     0.244 HD
ENDBRANCH  14  18
ENDBRANCH  12  13
ENDBRANCH   7  12
BRANCH   6  20
HETATM   20  N4  UNL     1      26.654  31.307  35.190  1.00  0.00    -0.326 N 
HETATM   21  C6  UNL     1      28.027  31.698  35.040  1.00  0.00     0.159 C 
BRANCH  20  22
HETATM   22  C7  UNL     1      25.636  32.271  35.011  1.00  0.00     0.355 C 
HETATM   23  O1  UNL     1      25.575  32.963  33.949  1.00  0.00    -0.283 OA
ENDBRANCH  20  22
ENDBRANCH   6  20
BRANCH   5  24
HETATM   24  N3  UNL     1      24.864  30.008  33.724  1.00  0.00    -0.395 N 
ATOM     25  H32 UNL     1      25.536  30.234  32.989  1.00  0.00     0.156 HD
ATOM     26  H31 UNL     1      23.889  30.295  33.652  1.00  0.00     0.156 HD
ENDBRANCH   5  24
BRANCH   1  27
HETATM   27  N1  UNL     1      22.852  25.247  34.405  1.00  0.00    -0.375 N 
HETATM   28  C1  UNL     1      23.315  24.093  33.654  1.00  0.00     0.148 C 
ATOM     29  H1  UNL     1      21.853  25.358  34.583  1.00  0.00     0.161 HD
ENDBRANCH   1  27
TORSDOF 8
ENDMDL
MODEL 4
REMARK VINA RESULT: -6.566079411      2.782      4.362
REMARK  8 active torsions:
REMARK  status: ('A' for Active; 'I' for Inactive)
REMARK    1  A    between atoms: N1_2  and  C2_4 
REMARK    2  A    between atoms: C4_8  and  N3_9 
REMARK    3  A    between atoms: C5_12  and  N4_13 
REMARK    4  A    between atoms: N4_13  and  C7_15 
REMARK    5  A    between atoms: C8_17  and  C9_18 
REMARK    6  A    between atoms: C9_18  and  C10_19 
REMARK    7  A    between atoms: C10_19  and  O2_20 
REMARK    8  A    between atoms: N5_22  and  O3_24 
ROOT
HETATM    1  C2  UNL     1      23.846  28.174  33.857  1.00  0.00     0.146 A 
HETATM    2  N2  UNL     1      24.647  27.883  34.875  1.00  0.00    -0.333 N 
ATOM      3  H2  UNL     1      24.634  26.955  35.297  1.00  0.00     0.168 HD
HETATM    4  C3  UNL     1      25.454  28.809  35.327  1.00  0.00     0.097 A 
HETATM    5  C4  UNL     1      26.364  28.721  36.371  1.00  0.00     0.085 A 
HETATM    6  C5  UNL     1      27.163  29.823  36.735  1.00  0.00     0.088 A 
HETATM    7  C8  UNL     1      27.093  31.007  36.105  1.00  0.00     0.047 A 
HETATM    8  N6  UNL     1      26.190  31.082  35.074  1.00  0.00    -0.350 N 
ATOM      9  H6  UNL     1      26.095  31.957  34.559  1.00  0.00     0.166 HD
HETATM   10  C11 UNL     1      25.432  30.034  34.728  1.00  0.00     0.107 A 
HETATM   11  S1  UNL     1      24.225  29.800  33.510  1.00  0.00    -0.034 SA
ENDROOT
BRANCH   7  12
HETATM   12  C9  UNL     1      27.815  32.261  36.381  1.00  0.00     0.145 C 
BRANCH  12  13
HETATM   13  C10 UNL     1      29.055  32.402  35.598  1.00  0.00     0.141 C 
HETATM   14  N5  UNL     1      30.206  32.617  36.228  1.00  0.00    -0.251 N 
ATOM     15  H5  UNL     1      31.075  32.716  35.702  1.00  0.00     0.196 HD
BRANCH  13  16
HETATM   16  O2  UNL     1      29.052  32.316  34.237  1.00  0.00    -0.348 OA
ATOM     17  H2  UNL     1      29.723  31.834  33.768  1.00  0.00     0.219 HD
ENDBRANCH  13  16
BRANCH  14  18
HETATM   18  O3  UNL     1      30.203  32.704  37.610  1.00  0.00    -0.288 OA
ATOM     19  H3  UNL     1      30.970  32.410  38.088  1.00  0.00     0.244 HD
ENDBRANCH  14  18
ENDBRANCH  12  13
ENDBRANCH   7  12
BRANCH   6  20
HETATM   20  N4  UNL     1      28.094  29.623  37.803  1.00  0.00    -0.326 N 
HETATM   21  C6  UNL     1      27.757  29.889  39.173  1.00  0.00     0.159 C 
BRANCH  20  22
HETATM   22  C7  UNL     1      29.400  29.190  37.481  1.00  0.00     0.355 C 
HETATM   23  O1  UNL     1      30.413  29.886  37.798  1.00  0.00    -0.283 OA
ENDBRANCH  20  22
ENDBRANCH   6  20
BRANCH   5  24
HETATM   24  N3  UNL     1      26.521  27.622  37.053  1.00  0.00    -0.395 N 
ATOM     25  H32 UNL     1      26.696  26.767  36.525  1.00  0.00     0.156 HD
ATOM     26  H31 UNL     1      26.470  27.611  38.071  1.00  0.00     0.156 HD
ENDBRANCH   5  24
BRANCH   1  27
HETATM   27  N1  UNL     1      22.975  27.448  33.236  1.00  0.00    -0.375 N 
HETATM   28  C1  UNL     1      23.361  26.246  32.516  1.00  0.00     0.148 C 
ATOM     29  H1  UNL     1      21.993  27.725  33.252  1.00  0.00     0.161 HD
ENDBRANCH   1  27
TORSDOF 8
ENDMDL
MODEL 5
REMARK VINA RESULT: -6.532956046      3.006      5.108
REMARK  8 active torsions:
REMARK  status: ('A' for Active; 'I' for Inactive)
REMARK    1  A    between atoms: N1_2  and  C2_4 
REMARK    2  A    between atoms: C4_8  and  N3_9 
REMARK    3  A    between atoms: C5_12  and  N4_13 
REMARK    4  A    between atoms: N4_13  and  C7_15 
REMARK    5  A    between atoms: C8_17  and  C9_18 
REMARK    6  A    between atoms: C9_18  and  C10_19 
REMARK    7  A    between atoms: C10_19  and  O2_20 
REMARK    8  A    between atoms: N5_22  and  O3_24 
ROOT
HETATM    1  C2  UNL     1      24.144  28.195  34.340  1.00  0.00     0.146 A 
HETATM    2  N2  UNL     1      24.905  29.283  34.368  1.00  0.00    -0.333 N 
ATOM      3  H2  UNL     1      24.779  30.022  33.676  1.00  0.00     0.168 HD
HETATM    4  C3  UNL     1      25.818  29.390  35.299  1.00  0.00     0.097 A 
HETATM    5  C4  UNL     1      26.713  30.429  35.510  1.00  0.00     0.085 A 
HETATM    6  C5  UNL     1      27.643  30.386  36.567  1.00  0.00     0.088 A 
HETATM    7  C8  UNL     1      27.720  29.353  37.421  1.00  0.00     0.047 A 
HETATM    8  N6  UNL     1      26.830  28.331  37.203  1.00  0.00    -0.350 N 
ATOM      9  H6  UNL     1      26.843  27.520  37.822  1.00  0.00     0.166 HD
HETATM   10  C11 UNL     1      25.946  28.373  36.198  1.00  0.00     0.107 A 
HETATM   11  S1  UNL     1      24.719  27.278  35.658  1.00  0.00    -0.034 SA
ENDROOT
BRANCH   7  12
HETATM   12  C9  UNL     1      28.650  29.128  38.542  1.00  0.00     0.145 C 
BRANCH  12  13
HETATM   13  C10 UNL     1      28.160  29.670  39.821  1.00  0.00     0.141 C 
HETATM   14  N5  UNL     1      28.892  30.567  40.475  1.00  0.00    -0.251 N 
ATOM     15  H5  UNL     1      28.568  30.954  41.362  1.00  0.00     0.196 HD
BRANCH  13  16
HETATM   16  O2  UNL     1      26.968  29.273  40.353  1.00  0.00    -0.348 OA
ATOM     17  H2  UNL     1      26.836  29.225  41.293  1.00  0.00     0.219 HD
ENDBRANCH  13  16
BRANCH  14  18
HETATM   18  O3  UNL     1      30.101  30.965  39.930  1.00  0.00    -0.288 OA
ATOM     19  H3  UNL     1      30.650  31.563  40.424  1.00  0.00     0.244 HD
ENDBRANCH  14  18
ENDBRANCH  12  13
ENDBRANCH   7  12
BRANCH   6  20
HETATM   20  N4  UNL     1      28.500  31.521  36.723  1.00  0.00    -0.326 N 
HETATM   21  C6  UNL     1      28.122  32.666  37.502  1.00  0.00     0.159 C 
BRANCH  20  22
HETATM   22  C7  UNL     1      29.742  31.522  36.048  1.00  0.00     0.355 C 
HETATM   23  O1  UNL     1      29.820  31.868  34.830  1.00  0.00    -0.283 OA
ENDBRANCH  20  22
ENDBRANCH   6  20
BRANCH   5  24
HETATM   24  N3  UNL     1      26.730  31.486  34.747  1.00  0.00    -0.395 N 
ATOM     25  H32 UNL     1      25.920  31.638  34.146  1.00  0.00     0.156 HD
ATOM     26  H31 UNL     1      27.517  32.134  34.745  1.00  0.00     0.156 HD
ENDBRANCH   5  24
BRANCH   1  27
HETATM   27  N1  UNL     1      23.188  27.856  33.538  1.00  0.00    -0.375 N 
HETATM   28  C1  UNL     1      23.303  26.701  32.663  1.00  0.00     0.148 C 
ATOM     29  H1  UNL     1      22.333  28.412  33.520  1.00  0.00     0.161 HD
ENDBRANCH   1  27
TORSDOF 8
ENDMDL
