MODEL 1
REMARK VINA RESULT: -7.006251628      0.000      0.000
REMARK  6 active torsions:
REMARK  status: ('A' for Active; 'I' for Inactive)
REMARK    1  A    between atoms: O1_2  and  C2_3 
REMARK    2  A    between atoms: C2_3  and  C3_5 
REMARK    3  A    between atoms: N2_8  and  C4_9 
REMARK    4  A    between atoms: C5_12  and  N4_13 
REMARK    5  A    between atoms: C7_20  and  N6_21 
REMARK    6  A    between atoms: N6_21  and  C8_23 
ROOT
HETATM    1  C4  UNL     1      26.223  28.160  36.399  1.00  0.00     0.170 A 
HETATM    2  N3  UNL     1      25.805  26.954  36.884  1.00  0.00    -0.173 N 
ATOM      3  H3  UNL     1      26.274  26.572  37.706  1.00  0.00     0.186 HD
HETATM    4  C5  UNL     1      24.809  26.248  36.334  1.00  0.00     0.680 A 
HETATM    5  N5  UNL     1      24.198  26.761  35.251  1.00  0.00    -0.154 N 
ATOM      6  H5  UNL     1      23.439  26.227  34.827  1.00  0.00     0.187 HD
HETATM    7  C6  UNL     1      24.532  27.934  34.697  1.00  0.00     0.290 A 
HETATM    8  O3  UNL     1      23.947  28.400  33.679  1.00  0.00    -0.265 OA
HETATM    9  C7  UNL     1      25.584  28.647  35.305  1.00  0.00     0.144 A 
ENDROOT
BRANCH   1  10
HETATM   10  N2  UNL     1      27.257  28.871  37.053  1.00  0.00    -0.274 N 
HETATM   11  N1  UNL     1      28.513  29.115  36.550  1.00  0.00    -0.295 N 
HETATM   12  C3  UNL     1      29.512  29.357  37.329  1.00  0.00     0.101 C 
ATOM     13  H1  UNL     1      28.658  29.104  35.540  1.00  0.00     0.187 HD
HETATM   14  C13 UNL     1      29.325  29.394  38.809  1.00  0.00     0.066 C 
HETATM   15  C12 UNL     1      27.980  29.984  39.156  1.00  0.00     0.028 C 
HETATM   16  C11 UNL     1      26.913  29.338  38.378  1.00  0.00     0.151 C 
BRANCH  12  17
HETATM   17  C2  UNL     1      30.820  29.610  36.788  1.00  0.00     0.306 C 
HETATM   18  O2  UNL     1      31.594  28.640  36.582  1.00  0.00    -0.258 OA
BRANCH  17  19
HETATM   19  O1  UNL     1      31.283  30.869  36.478  1.00  0.00    -0.322 OA
HETATM   20  C1  UNL     1      30.796  31.614  35.374  1.00  0.00     0.213 C 
ENDBRANCH  17  19
ENDBRANCH  12  17
ENDBRANCH   1  10
BRANCH   9  21
HETATM   21  N6  UNL     1      25.954  29.856  34.680  1.00  0.00    -0.379 N 
ATOM     22  H6  UNL     1      26.594  29.815  33.887  1.00  0.00     0.160 HD
BRANCH  21  23
HETATM   23  C8  UNL     1      25.473  31.150  35.108  1.00  0.00     0.074 C 
HETATM   24  C9  UNL     1      26.665  32.066  35.419  1.00  0.00     0.031 C 
HETATM   25  C10 UNL     1      24.561  31.867  34.197  1.00  0.00     0.031 C 
ENDBRANCH  21  23
ENDBRANCH   9  21
BRANCH   4  26
HETATM   26  N4  UNL     1      24.484  25.120  36.866  1.00  0.00    -0.234 N 
ATOM     27  H42 UNL     1      24.762  24.840  37.807  1.00  0.00     0.174 HD
ATOM     28  H41 UNL     1      23.921  24.466  36.322  1.00  0.00     0.174 HD
ENDBRANCH   4  26
TORSDOF 6
ENDMDL
MODEL 2
REMARK VINA RESULT: -6.825649600      0.900      1.059
REMARK  6 active torsions:
REMARK  status: ('A' for Active; 'I' for Inactive)
REMARK    1  A    between atoms: O1_2  and  C2_3 
REMARK    2  A    between atoms: C2_3  and  C3_5 
REMARK    3  A    between atoms: N2_8  and  C4_9 
REMARK    4  A    between atoms: C5_12  and  N4_13 
REMARK    5  A    between atoms: C7_20  and  N6_21 
REMARK    6  A    between atoms: N6_21  and  C8_23 
ROOT
HETATM    1  C4  UNL     1      26.453  28.699  36.401  1.00  0.00     0.170 A 
HETATM    2  N3  UNL     1      26.091  27.488  36.918  1.00  0.00    -0.173 N 
ATOM      3  H3  UNL     1      26.595  27.138  37.733  1.00  0.00     0.186 HD
HETATM    4  C5  UNL     1      25.107  26.738  36.407  1.00  0.00     0.680 A 
HETATM    5  N5  UNL     1      24.450  27.210  35.331  1.00  0.00    -0.154 N 
ATOM      6  H5  UNL     1      23.700  26.642  34.938  1.00  0.00     0.187 HD
HETATM    7  C6  UNL     1      24.728  28.383  34.749  1.00  0.00     0.290 A 
HETATM    8  O3  UNL     1      24.101  28.810  33.739  1.00  0.00    -0.265 OA
HETATM    9  C7  UNL     1      25.770  29.144  35.316  1.00  0.00     0.144 A 
ENDROOT
BRANCH   1  10
HETATM   10  N2  UNL     1      27.478  29.457  37.015  1.00  0.00    -0.274 N 
HETATM   11  N1  UNL     1      28.601  29.952  36.393  1.00  0.00    -0.295 N 
HETATM   12  C3  UNL     1      29.670  30.229  37.060  1.00  0.00     0.101 C 
ATOM     13  H1  UNL     1      28.587  30.104  35.384  1.00  0.00     0.187 HD
HETATM   14  C13 UNL     1      29.711  30.032  38.539  1.00  0.00     0.066 C 
HETATM   15  C12 UNL     1      28.373  30.362  39.152  1.00  0.00     0.028 C 
HETATM   16  C11 UNL     1      27.288  29.680  38.432  1.00  0.00     0.151 C 
BRANCH  12  17
HETATM   17  C2  UNL     1      30.835  30.745  36.395  1.00  0.00     0.306 C 
HETATM   18  O2  UNL     1      30.736  31.134  35.203  1.00  0.00    -0.258 OA
BRANCH  17  19
HETATM   19  O1  UNL     1      32.072  30.841  36.994  1.00  0.00    -0.322 OA
HETATM   20  C1  UNL     1      32.842  32.031  36.975  1.00  0.00     0.213 C 
ENDBRANCH  17  19
ENDBRANCH  12  17
ENDBRANCH   1  10
BRANCH   9  21
HETATM   21  N6  UNL     1      26.081  30.353  34.661  1.00  0.00    -0.379 N 
ATOM     22  H6  UNL     1      26.748  30.328  33.890  1.00  0.00     0.160 HD
BRANCH  21  23
HETATM   23  C8  UNL     1      25.502  31.626  35.028  1.00  0.00     0.074 C 
HETATM   24  C9  UNL     1      26.621  32.637  35.317  1.00  0.00     0.031 C 
HETATM   25  C10 UNL     1      24.556  32.238  34.075  1.00  0.00     0.031 C 
ENDBRANCH  21  23
ENDBRANCH   9  21
BRANCH   4  26
HETATM   26  N4  UNL     1      24.836  25.609  36.967  1.00  0.00    -0.234 N 
ATOM     27  H42 UNL     1      25.308  25.269  37.806  1.00  0.00     0.174 HD
ATOM     28  H41 UNL     1      24.114  25.018  36.554  1.00  0.00     0.174 HD
ENDBRANCH   4  26
TORSDOF 6
ENDMDL
MODEL 3
REMARK VINA RESULT: -6.776222497      2.376      5.995
REMARK  6 active torsions:
REMARK  status: ('A' for Active; 'I' for Inactive)
REMARK    1  A    between atoms: O1_2  and  C2_3 
REMARK    2  A    between atoms: C2_3  and  C3_5 
REMARK    3  A    between atoms: N2_8  and  C4_9 
REMARK    4  A    between atoms: C5_12  and  N4_13 
REMARK    5  A    between atoms: C7_20  and  N6_21 
REMARK    6  A    between atoms: N6_21  and  C8_23 
ROOT
HETATM    1  C4  UNL     1      26.240  28.639  36.333  1.00  0.00     0.170 A 
HETATM    2  N3  UNL     1      26.941  28.242  37.435  1.00  0.00    -0.173 N 
ATOM      3  H3  UNL     1      26.680  27.364  37.886  1.00  0.00     0.186 HD
HETATM    4  C5  UNL     1      27.954  28.947  37.954  1.00  0.00     0.680 A 
HETATM    5  N5  UNL     1      28.289  30.102  37.351  1.00  0.00    -0.154 N 
ATOM      6  H5  UNL     1      29.060  30.644  37.743  1.00  0.00     0.187 HD
HETATM    7  C6  UNL     1      27.666  30.581  36.267  1.00  0.00     0.290 A 
HETATM    8  O3  UNL     1      27.994  31.668  35.714  1.00  0.00    -0.265 OA
HETATM    9  C7  UNL     1      26.605  29.810  35.751  1.00  0.00     0.144 A 
ENDROOT
BRANCH   1  10
HETATM   10  N2  UNL     1      25.205  27.825  35.816  1.00  0.00    -0.274 N 
HETATM   11  N1  UNL     1      24.522  26.851  36.506  1.00  0.00    -0.295 N 
HETATM   12  C3  UNL     1      23.936  25.880  35.891  1.00  0.00     0.101 C 
ATOM     13  H1  UNL     1      24.477  26.897  37.524  1.00  0.00     0.187 HD
HETATM   14  C13 UNL     1      23.972  25.797  34.402  1.00  0.00     0.066 C 
HETATM   15  C12 UNL     1      23.909  27.176  33.795  1.00  0.00     0.028 C 
HETATM   16  C11 UNL     1      24.896  28.067  34.424  1.00  0.00     0.151 C 
BRANCH  12  17
HETATM   17  C2  UNL     1      23.226  24.869  36.626  1.00  0.00     0.306 C 
HETATM   18  O2  UNL     1      23.527  24.665  37.831  1.00  0.00    -0.258 OA
BRANCH  17  19
HETATM   19  O1  UNL     1      22.222  24.098  36.083  1.00  0.00    -0.322 OA
HETATM   20  C1  UNL     1      22.479  22.923  35.333  1.00  0.00     0.213 C 
ENDBRANCH  17  19
ENDBRANCH  12  17
ENDBRANCH   1  10
BRANCH   9  21
HETATM   21  N6  UNL     1      25.929  30.352  34.639  1.00  0.00    -0.379 N 
ATOM     22  H6  UNL     1      26.206  30.044  33.707  1.00  0.00     0.160 HD
BRANCH  21  23
HETATM   23  C8  UNL     1      24.864  31.323  34.753  1.00  0.00     0.074 C 
HETATM   24  C9  UNL     1      25.395  32.716  34.388  1.00  0.00     0.031 C 
HETATM   25  C10 UNL     1      23.636  31.074  33.974  1.00  0.00     0.031 C 
ENDBRANCH  21  23
ENDBRANCH   9  21
BRANCH   4  26
HETATM   26  N4  UNL     1      28.557  28.487  38.996  1.00  0.00    -0.234 N 
ATOM     27  H42 UNL     1      28.421  28.861  39.936  1.00  0.00     0.174 HD
ATOM     28  H41 UNL     1      29.207  27.709  38.882  1.00  0.00     0.174 HD
ENDBRANCH   4  26
TORSDOF 6
ENDMDL
MODEL 4
REMARK VINA RESULT: -6.728925093      2.638      3.533
REMARK  6 active torsions:
REMARK  status: ('A' for Active; 'I' for Inactive)
REMARK    1  A    between atoms: O1_2  and  C2_3 
REMARK    2  A    between atoms: C2_3  and  C3_5 
REMARK    3  A    between atoms: N2_8  and  C4_9 
REMARK    4  A    between atoms: C5_12  and  N4_13 
REMARK    5  A    between atoms: C7_20  and  N6_21 
REMARK    6  A    between atoms: N6_21  and  C8_23 
ROOT
HETATM    1  C4  UNL     1      26.557  28.822  36.742  1.00  0.00     0.170 A 
HETATM    2  N3  UNL     1      26.152  27.530  36.575  1.00  0.00    -0.173 N 
ATOM      3  H3  UNL     1      26.486  26.827  37.236  1.00  0.00     0.186 HD
HETATM    4  C5  UNL     1      25.337  27.138  35.587  1.00  0.00     0.680 A 
HETATM    5  N5  UNL     1      24.905  28.073  34.722  1.00  0.00    -0.154 N 
ATOM      6  H5  UNL     1      24.285  27.780  33.966  1.00  0.00     0.187 HD
HETATM    7  C6  UNL     1      25.244  29.366  34.797  1.00  0.00     0.290 A 
HETATM    8  O3  UNL     1      24.827  30.231  33.975  1.00  0.00    -0.265 OA
HETATM    9  C7  UNL     1      26.102  29.739  35.851  1.00  0.00     0.144 A 
ENDROOT
BRANCH   1  10
HETATM   10  N2  UNL     1      27.389  29.173  37.832  1.00  0.00    -0.274 N 
HETATM   11  N1  UNL     1      26.966  29.489  39.102  1.00  0.00    -0.295 N 
HETATM   12  C3  UNL     1      27.692  30.206  39.891  1.00  0.00     0.101 C 
ATOM     13  H1  UNL     1      26.060  29.150  39.427  1.00  0.00     0.187 HD
HETATM   14  C13 UNL     1      29.028  30.702  39.448  1.00  0.00     0.066 C 
HETATM   15  C12 UNL     1      29.708  29.676  38.576  1.00  0.00     0.028 C 
HETATM   16  C11 UNL     1      28.800  29.209  37.518  1.00  0.00     0.151 C 
BRANCH  12  17
HETATM   17  C2  UNL     1      27.236  30.529  41.216  1.00  0.00     0.306 C 
HETATM   18  O2  UNL     1      26.710  29.627  41.917  1.00  0.00    -0.258 OA
BRANCH  17  19
HETATM   19  O1  UNL     1      27.343  31.785  41.771  1.00  0.00    -0.322 OA
HETATM   20  C1  UNL     1      26.214  32.598  42.047  1.00  0.00     0.213 C 
ENDBRANCH  17  19
ENDBRANCH  12  17
ENDBRANCH   1  10
BRANCH   9  21
HETATM   21  N6  UNL     1      26.487  31.095  35.886  1.00  0.00    -0.379 N 
ATOM     22  H6  UNL     1      25.966  31.731  36.490  1.00  0.00     0.160 HD
BRANCH  21  23
HETATM   23  C8  UNL     1      27.583  31.629  35.109  1.00  0.00     0.074 C 
HETATM   24  C9  UNL     1      27.047  32.656  34.101  1.00  0.00     0.031 C 
HETATM   25  C10 UNL     1      28.701  32.244  35.850  1.00  0.00     0.031 C 
ENDBRANCH  21  23
ENDBRANCH   9  21
BRANCH   4  26
HETATM   26  N4  UNL     1      25.008  25.894  35.514  1.00  0.00    -0.234 N 
ATOM     27  H42 UNL     1      24.059  25.553  35.666  1.00  0.00     0.174 HD
ATOM     28  H41 UNL     1      25.731  25.209  35.294  1.00  0.00     0.174 HD
ENDBRANCH   4  26
TORSDOF 6
ENDMDL
MODEL 5
REMARK VINA RESULT: -6.632241665      2.193      3.000
REMARK  6 active torsions:
REMARK  status: ('A' for Active; 'I' for Inactive)
REMARK    1  A    between atoms: O1_2  and  C2_3 
REMARK    2  A    between atoms: C2_3  and  C3_5 
REMARK    3  A    between atoms: N2_8  and  C4_9 
REMARK    4  A    between atoms: C5_12  and  N4_13 
REMARK    5  A    between atoms: C7_20  and  N6_21 
REMARK    6  A    between atoms: N6_21  and  C8_23 
ROOT
HETATM    1  C4  UNL     1      26.475  28.515  36.612  1.00  0.00     0.170 A 
HETATM    2  N3  UNL     1      25.866  27.328  36.899  1.00  0.00    -0.173 N 
ATOM      3  H3  UNL     1      26.184  26.804  37.714  1.00  0.00     0.186 HD
HETATM    4  C5  UNL     1      24.871  26.817  36.162  1.00  0.00     0.680 A 
HETATM    5  N5  UNL     1      24.461  27.517  35.088  1.00  0.00    -0.154 N 
ATOM      6  H5  UNL     1      23.704  27.132  34.523  1.00  0.00     0.187 HD
HETATM    7  C6  UNL     1      24.993  28.690  34.721  1.00  0.00     0.290 A 
HETATM    8  O3  UNL     1      24.594  29.333  33.709  1.00  0.00    -0.265 OA
HETATM    9  C7  UNL     1      26.037  29.194  35.522  1.00  0.00     0.144 A 
ENDROOT
BRANCH   1  10
HETATM   10  N2  UNL     1      27.495  29.014  37.456  1.00  0.00    -0.274 N 
HETATM   11  N1  UNL     1      27.363  29.317  38.792  1.00  0.00    -0.295 N 
HETATM   12  C3  UNL     1      28.155  30.154  39.371  1.00  0.00     0.101 C 
ATOM     13  H1  UNL     1      26.624  28.870  39.335  1.00  0.00     0.187 HD
HETATM   14  C13 UNL     1      29.255  30.809  38.604  1.00  0.00     0.066 C 
HETATM   15  C12 UNL     1      29.833  29.853  37.590  1.00  0.00     0.028 C 
HETATM   16  C11 UNL     1      28.764  29.229  36.796  1.00  0.00     0.151 C 
BRANCH  12  17
HETATM   17  C2  UNL     1      28.004  30.460  40.767  1.00  0.00     0.306 C 
HETATM   18  O2  UNL     1      29.012  30.401  41.518  1.00  0.00    -0.258 OA
BRANCH  17  19
HETATM   19  O1  UNL     1      26.805  30.818  41.341  1.00  0.00    -0.322 OA
HETATM   20  C1  UNL     1      26.562  32.115  41.861  1.00  0.00     0.213 C 
ENDBRANCH  17  19
ENDBRANCH  12  17
ENDBRANCH   1  10
BRANCH   9  21
HETATM   21  N6  UNL     1      26.616  30.406  35.092  1.00  0.00    -0.379 N 
ATOM     22  H6  UNL     1      27.411  30.363  34.455  1.00  0.00     0.160 HD
BRANCH  21  23
HETATM   23  C8  UNL     1      26.140  31.705  35.509  1.00  0.00     0.074 C 
HETATM   24  C9  UNL     1      27.330  32.584  35.917  1.00  0.00     0.031 C 
HETATM   25  C10 UNL     1      25.311  32.461  34.551  1.00  0.00     0.031 C 
ENDBRANCH  21  23
ENDBRANCH   9  21
BRANCH   4  26
HETATM   26  N4  UNL     1      24.357  25.689  36.515  1.00  0.00    -0.234 N 
ATOM     27  H42 UNL     1      23.972  25.511  37.443  1.00  0.00     0.174 HD
ATOM     28  H41 UNL     1      24.333  24.928  35.836  1.00  0.00     0.174 HD
ENDBRANCH   4  26
TORSDOF 6
ENDMDL
