MODEL 1
REMARK VINA RESULT: -6.978140154      0.000      0.000
REMARK  9 active torsions:
REMARK  status: ('A' for Active; 'I' for Inactive)
REMARK    1  A    between atoms: O1_2  and  N1_3 
REMARK    2  A    between atoms: N1_3  and  C2_5 
REMARK    3  A    between atoms: C3_8  and  N3_9 
REMARK    4  A    between atoms: C6_17  and  C7_18 
REMARK    5  A    between atoms: C7_18  and  C8_19 
REMARK    6  A    between atoms: N6_20  and  C9_22 
REMARK    7  A    between atoms: C9_22  and  O2_23 
REMARK    8  A    between atoms: C9_22  and  O3_25 
REMARK    9  A    between atoms: O3_25  and  C10_26 
ROOT
HETATM    1  C2  UNL     1      24.778  26.521  35.222  1.00  0.00     0.150 A 
HETATM    2  N2  UNL     1      24.363  25.656  34.272  1.00  0.00    -0.175 N 
ATOM      3  H2  UNL     1      24.551  24.658  34.365  1.00  0.00     0.186 HD
HETATM    4  C3  UNL     1      23.698  26.126  33.204  1.00  0.00     0.678 A 
HETATM    5  N4  UNL     1      23.469  27.446  33.116  1.00  0.00    -0.181 N 
ATOM      6  H4  UNL     1      22.963  27.789  32.300  1.00  0.00     0.185 HD
HETATM    7  C4  UNL     1      23.863  28.344  34.037  1.00  0.00     0.140 A 
HETATM    8  C5  UNL     1      23.575  29.758  33.869  1.00  0.00     0.119 C 
HETATM    9  N5  UNL     1      23.345  30.883  33.719  1.00  0.00    -0.190 NA
HETATM   10  C6  UNL     1      24.545  27.876  35.137  1.00  0.00     0.031 A 
ENDROOT
BRANCH  10  11
HETATM   11  C7  UNL     1      25.005  28.796  36.182  1.00  0.00     0.090 C 
BRANCH  11  12
HETATM   12  C8  UNL     1      26.359  29.347  35.933  1.00  0.00     0.065 C 
HETATM   13  N6  UNL     1      26.835  30.395  36.482  1.00  0.00    -0.355 N 
ATOM     14  H6  UNL     1      26.257  30.911  37.146  1.00  0.00     0.163 HD
BRANCH  13  15
HETATM   15  C9  UNL     1      28.156  30.871  36.195  1.00  0.00     0.368 C 
BRANCH  15  16
HETATM   16  O2  UNL     1      28.191  31.640  35.014  1.00  0.00    -0.355 OA
ATOM     17  H2  UNL     1      27.899  32.531  35.164  1.00  0.00     0.214 HD
ENDBRANCH  15  16
BRANCH  15  18
HETATM   18  O3  UNL     1      29.096  29.879  36.067  1.00  0.00    -0.334 OA
BRANCH  18  19
HETATM   19  C10 UNL     1      29.944  29.769  37.155  1.00  0.00     0.055 C 
HETATM   20  C11 UNL     1      30.355  31.089  37.739  1.00  0.00     0.045 C 
HETATM   21  C12 UNL     1      31.228  29.105  36.642  1.00  0.00     0.045 C 
HETATM   22  C13 UNL     1      29.411  28.890  38.245  1.00  0.00     0.045 C 
ENDBRANCH  18  19
ENDBRANCH  15  18
ENDBRANCH  13  15
ENDBRANCH  11  12
ENDBRANCH  10  11
BRANCH   4  23
HETATM   23  N3  UNL     1      23.268  25.368  32.255  1.00  0.00    -0.234 N 
ATOM     24  H32 UNL     1      22.859  24.468  32.505  1.00  0.00     0.174 HD
ATOM     25  H31 UNL     1      23.319  25.627  31.270  1.00  0.00     0.174 HD
ENDBRANCH   4  23
BRANCH   1  26
HETATM   26  N1  UNL     1      25.415  26.056  36.244  1.00  0.00    -0.250 N 
ATOM     27  H1  UNL     1      26.431  26.142  36.244  1.00  0.00     0.196 HD
BRANCH  26  28
HETATM   28  O1  UNL     1      24.836  25.462  37.314  1.00  0.00    -0.284 OA
HETATM   29  C1  UNL     1      23.650  24.706  37.277  1.00  0.00     0.237 C 
ENDBRANCH  26  28
ENDBRANCH   1  26
TORSDOF 9
ENDMDL
MODEL 2
REMARK VINA RESULT: -6.888859688      1.180      1.789
REMARK  9 active torsions:
REMARK  status: ('A' for Active; 'I' for Inactive)
REMARK    1  A    between atoms: O1_2  and  N1_3 
REMARK    2  A    between atoms: N1_3  and  C2_5 
REMARK    3  A    between atoms: C3_8  and  N3_9 
REMARK    4  A    between atoms: C6_17  and  C7_18 
REMARK    5  A    between atoms: C7_18  and  C8_19 
REMARK    6  A    between atoms: N6_20  and  C9_22 
REMARK    7  A    between atoms: C9_22  and  O2_23 
REMARK    8  A    between atoms: C9_22  and  O3_25 
REMARK    9  A    between atoms: O3_25  and  C10_26 
ROOT
HETATM    1  C2  UNL     1      24.364  26.219  35.532  1.00  0.00     0.150 A 
HETATM    2  N2  UNL     1      23.998  25.262  34.653  1.00  0.00    -0.175 N 
ATOM      3  H2  UNL     1      24.003  24.279  34.927  1.00  0.00     0.186 HD
HETATM    4  C3  UNL     1      23.629  25.620  33.412  1.00  0.00     0.678 A 
HETATM    5  N4  UNL     1      23.635  26.922  33.087  1.00  0.00    -0.181 N 
ATOM      6  H4  UNL     1      23.352  27.180  32.142  1.00  0.00     0.185 HD
HETATM    7  C4  UNL     1      23.991  27.909  33.929  1.00  0.00     0.140 A 
HETATM    8  C5  UNL     1      23.972  29.297  33.501  1.00  0.00     0.119 C 
HETATM    9  N5  UNL     1      23.958  30.398  33.144  1.00  0.00    -0.190 NA
HETATM   10  C6  UNL     1      24.373  27.557  35.204  1.00  0.00     0.031 A 
ENDROOT
BRANCH  10  11
HETATM   11  C7  UNL     1      24.773  28.579  36.177  1.00  0.00     0.090 C 
BRANCH  11  12
HETATM   12  C8  UNL     1      26.221  28.562  36.492  1.00  0.00     0.065 C 
HETATM   13  N6  UNL     1      26.745  29.052  37.548  1.00  0.00    -0.355 N 
ATOM     14  H6  UNL     1      26.141  29.494  38.240  1.00  0.00     0.163 HD
BRANCH  13  15
HETATM   15  C9  UNL     1      28.157  28.999  37.790  1.00  0.00     0.368 C 
BRANCH  15  16
HETATM   16  O2  UNL     1      28.471  28.157  38.876  1.00  0.00    -0.355 OA
ATOM     17  H2  UNL     1      28.976  27.401  38.602  1.00  0.00     0.214 HD
ENDBRANCH  15  16
BRANCH  15  18
HETATM   18  O3  UNL     1      28.732  30.221  38.038  1.00  0.00    -0.334 OA
BRANCH  18  19
HETATM   19  C10 UNL     1      29.792  30.520  37.200  1.00  0.00     0.055 C 
HETATM   20  C11 UNL     1      30.577  29.318  36.765  1.00  0.00     0.045 C 
HETATM   21  C12 UNL     1      30.755  31.395  38.013  1.00  0.00     0.045 C 
HETATM   22  C13 UNL     1      29.398  31.318  35.995  1.00  0.00     0.045 C 
ENDBRANCH  18  19
ENDBRANCH  15  18
ENDBRANCH  13  15
ENDBRANCH  11  12
ENDBRANCH  10  11
BRANCH   4  23
HETATM   23  N3  UNL     1      23.266  24.770  32.515  1.00  0.00    -0.234 N 
ATOM     24  H32 UNL     1      23.291  25.059  31.538  1.00  0.00     0.174 HD
ATOM     25  H31 UNL     1      22.956  23.824  32.739  1.00  0.00     0.174 HD
ENDBRANCH   4  23
BRANCH   1  26
HETATM   26  N1  UNL     1      24.716  25.861  36.721  1.00  0.00    -0.250 N 
ATOM     27  H1  UNL     1      25.588  26.243  37.089  1.00  0.00     0.196 HD
BRANCH  26  28
HETATM   28  O1  UNL     1      24.017  25.018  37.517  1.00  0.00    -0.284 OA
HETATM   29  C1  UNL     1      23.216  23.955  37.063  1.00  0.00     0.237 C 
ENDBRANCH  26  28
ENDBRANCH   1  26
TORSDOF 9
ENDMDL
MODEL 3
REMARK VINA RESULT: -6.805410573      3.403      5.228
REMARK  9 active torsions:
REMARK  status: ('A' for Active; 'I' for Inactive)
REMARK    1  A    between atoms: O1_2  and  N1_3 
REMARK    2  A    between atoms: N1_3  and  C2_5 
REMARK    3  A    between atoms: C3_8  and  N3_9 
REMARK    4  A    between atoms: C6_17  and  C7_18 
REMARK    5  A    between atoms: C7_18  and  C8_19 
REMARK    6  A    between atoms: N6_20  and  C9_22 
REMARK    7  A    between atoms: C9_22  and  O2_23 
REMARK    8  A    between atoms: C9_22  and  O3_25 
REMARK    9  A    between atoms: O3_25  and  C10_26 
ROOT
HETATM    1  C2  UNL     1      26.487  28.953  36.455  1.00  0.00     0.150 A 
HETATM    2  N2  UNL     1      25.611  29.450  35.556  1.00  0.00    -0.175 N 
ATOM      3  H2  UNL     1      24.787  28.912  35.287  1.00  0.00     0.186 HD
HETATM    4  C3  UNL     1      25.836  30.662  35.023  1.00  0.00     0.678 A 
HETATM    5  N4  UNL     1      26.931  31.341  35.402  1.00  0.00    -0.181 N 
ATOM      6  H4  UNL     1      27.090  32.259  34.989  1.00  0.00     0.185 HD
HETATM    7  C4  UNL     1      27.831  30.886  36.293  1.00  0.00     0.140 A 
HETATM    8  C5  UNL     1      28.991  31.682  36.651  1.00  0.00     0.119 C 
HETATM    9  N5  UNL     1      29.915  32.324  36.923  1.00  0.00    -0.190 NA
HETATM   10  C6  UNL     1      27.612  29.645  36.847  1.00  0.00     0.031 A 
ENDROOT
BRANCH  10  11
HETATM   11  C7  UNL     1      28.550  29.085  37.825  1.00  0.00     0.090 C 
BRANCH  11  12
HETATM   12  C8  UNL     1      28.396  29.652  39.186  1.00  0.00     0.065 C 
HETATM   13  N6  UNL     1      27.397  29.449  39.954  1.00  0.00    -0.355 N 
ATOM     14  H6  UNL     1      26.635  28.856  39.628  1.00  0.00     0.163 HD
BRANCH  13  15
HETATM   15  C9  UNL     1      27.314  30.031  41.263  1.00  0.00     0.368 C 
BRANCH  15  16
HETATM   16  O2  UNL     1      26.709  29.155  42.187  1.00  0.00    -0.355 OA
ATOM     17  H2  UNL     1      26.222  29.626  42.852  1.00  0.00     0.214 HD
ENDBRANCH  15  16
BRANCH  15  18
HETATM   18  O3  UNL     1      26.625  31.217  41.308  1.00  0.00    -0.334 OA
BRANCH  18  19
HETATM   19  C10 UNL     1      27.421  32.315  41.583  1.00  0.00     0.055 C 
HETATM   20  C11 UNL     1      28.663  31.984  42.358  1.00  0.00     0.045 C 
HETATM   21  C12 UNL     1      26.588  33.243  42.476  1.00  0.00     0.045 C 
HETATM   22  C13 UNL     1      27.791  33.107  40.367  1.00  0.00     0.045 C 
ENDBRANCH  18  19
ENDBRANCH  15  18
ENDBRANCH  13  15
ENDBRANCH  11  12
ENDBRANCH  10  11
BRANCH   4  23
HETATM   23  N3  UNL     1      25.049  31.207  34.161  1.00  0.00    -0.234 N 
ATOM     24  H32 UNL     1      25.002  32.225  34.127  1.00  0.00     0.174 HD
ATOM     25  H31 UNL     1      24.473  30.668  33.516  1.00  0.00     0.174 HD
ENDBRANCH   4  23
BRANCH   1  26
HETATM   26  N1  UNL     1      26.258  27.788  36.960  1.00  0.00    -0.250 N 
ATOM     27  H1  UNL     1      26.391  27.675  37.965  1.00  0.00     0.196 HD
BRANCH  26  28
HETATM   28  O1  UNL     1      25.856  26.703  36.257  1.00  0.00    -0.284 OA
HETATM   29  C1  UNL     1      24.554  26.170  36.265  1.00  0.00     0.237 C 
ENDBRANCH  26  28
ENDBRANCH   1  26
TORSDOF 9
ENDMDL
MODEL 4
REMARK VINA RESULT: -6.704251189      1.937      3.670
REMARK  9 active torsions:
REMARK  status: ('A' for Active; 'I' for Inactive)
REMARK    1  A    between atoms: O1_2  and  N1_3 
REMARK    2  A    between atoms: N1_3  and  C2_5 
REMARK    3  A    between atoms: C3_8  and  N3_9 
REMARK    4  A    between atoms: C6_17  and  C7_18 
REMARK    5  A    between atoms: C7_18  and  C8_19 
REMARK    6  A    between atoms: N6_20  and  C9_22 
REMARK    7  A    between atoms: C9_22  and  O2_23 
REMARK    8  A    between atoms: C9_22  and  O3_25 
REMARK    9  A    between atoms: O3_25  and  C10_26 
ROOT
HETATM    1  C2  UNL     1      23.871  27.474  33.801  1.00  0.00     0.150 A 
HETATM    2  N2  UNL     1      23.538  26.661  32.776  1.00  0.00    -0.175 N 
ATOM      3  H2  UNL     1      23.491  27.024  31.823  1.00  0.00     0.186 HD
HETATM    4  C3  UNL     1      23.268  25.369  33.025  1.00  0.00     0.678 A 
HETATM    5  N4  UNL     1      23.340  24.928  34.291  1.00  0.00    -0.181 N 
ATOM      6  H4  UNL     1      23.133  23.944  34.466  1.00  0.00     0.185 HD
HETATM    7  C4  UNL     1      23.668  25.699  35.343  1.00  0.00     0.140 A 
HETATM    8  C5  UNL     1      23.723  25.145  36.684  1.00  0.00     0.119 C 
HETATM    9  N5  UNL     1      23.757  24.692  37.749  1.00  0.00    -0.190 NA
HETATM   10  C6  UNL     1      23.946  27.026  35.102  1.00  0.00     0.031 A 
ENDROOT
BRANCH  10  11
HETATM   11  C7  UNL     1      24.311  27.927  36.200  1.00  0.00     0.090 C 
BRANCH  11  12
HETATM   12  C8  UNL     1      25.702  28.432  36.114  1.00  0.00     0.065 C 
HETATM   13  N6  UNL     1      26.365  28.918  37.090  1.00  0.00    -0.355 N 
ATOM     14  H6  UNL     1      25.924  28.974  38.008  1.00  0.00     0.163 HD
BRANCH  13  15
HETATM   15  C9  UNL     1      27.711  29.389  36.935  1.00  0.00     0.368 C 
BRANCH  15  16
HETATM   16  O2  UNL     1      28.645  28.497  37.498  1.00  0.00    -0.355 OA
ATOM     17  H2  UNL     1      29.518  28.871  37.526  1.00  0.00     0.214 HD
ENDBRANCH  15  16
BRANCH  15  18
HETATM   18  O3  UNL     1      27.941  30.626  37.485  1.00  0.00    -0.334 OA
BRANCH  18  19
HETATM   19  C10 UNL     1      28.276  31.596  36.558  1.00  0.00     0.055 C 
HETATM   20  C11 UNL     1      29.663  31.451  36.004  1.00  0.00     0.045 C 
HETATM   21  C12 UNL     1      28.245  32.938  37.301  1.00  0.00     0.045 C 
HETATM   22  C13 UNL     1      27.299  31.708  35.427  1.00  0.00     0.045 C 
ENDBRANCH  18  19
ENDBRANCH  15  18
ENDBRANCH  13  15
ENDBRANCH  11  12
ENDBRANCH  10  11
BRANCH   4  23
HETATM   23  N3  UNL     1      22.944  24.530  32.104  1.00  0.00    -0.234 N 
ATOM     24  H32 UNL     1      22.801  23.556  32.368  1.00  0.00     0.174 HD
ATOM     25  H31 UNL     1      22.825  24.796  31.126  1.00  0.00     0.174 HD
ENDBRANCH   4  23
BRANCH   1  26
HETATM   26  N1  UNL     1      24.128  28.713  33.548  1.00  0.00    -0.250 N 
ATOM     27  H1  UNL     1      25.086  28.953  33.294  1.00  0.00     0.196 HD
BRANCH  26  28
HETATM   28  O1  UNL     1      23.222  29.718  33.594  1.00  0.00    -0.284 OA
HETATM   29  C1  UNL     1      23.521  31.066  33.861  1.00  0.00     0.237 C 
ENDBRANCH  26  28
ENDBRANCH   1  26
TORSDOF 9
ENDMDL
MODEL 5
REMARK VINA RESULT: -6.703886816      3.339      4.736
REMARK  9 active torsions:
REMARK  status: ('A' for Active; 'I' for Inactive)
REMARK    1  A    between atoms: O1_2  and  N1_3 
REMARK    2  A    between atoms: N1_3  and  C2_5 
REMARK    3  A    between atoms: C3_8  and  N3_9 
REMARK    4  A    between atoms: C6_17  and  C7_18 
REMARK    5  A    between atoms: C7_18  and  C8_19 
REMARK    6  A    between atoms: N6_20  and  C9_22 
REMARK    7  A    between atoms: C9_22  and  O2_23 
REMARK    8  A    between atoms: C9_22  and  O3_25 
REMARK    9  A    between atoms: O3_25  and  C10_26 
ROOT
HETATM    1  C2  UNL     1      25.968  28.709  36.325  1.00  0.00     0.150 A 
HETATM    2  N2  UNL     1      24.952  29.003  35.486  1.00  0.00    -0.175 N 
ATOM      3  H2  UNL     1      24.207  28.326  35.320  1.00  0.00     0.186 HD
HETATM    4  C3  UNL     1      24.934  30.197  34.872  1.00  0.00     0.678 A 
HETATM    5  N4  UNL     1      25.932  31.063  35.114  1.00  0.00    -0.181 N 
ATOM      6  H4  UNL     1      25.906  31.966  34.642  1.00  0.00     0.185 HD
HETATM    7  C4  UNL     1      26.963  30.814  35.942  1.00  0.00     0.140 A 
HETATM    8  C5  UNL     1      28.005  31.804  36.152  1.00  0.00     0.119 C 
HETATM    9  N5  UNL     1      28.832  32.599  36.305  1.00  0.00    -0.190 NA
HETATM   10  C6  UNL     1      26.994  29.593  36.578  1.00  0.00     0.031 A 
ENDROOT
BRANCH  10  11
HETATM   11  C7  UNL     1      28.086  29.252  37.494  1.00  0.00     0.090 C 
BRANCH  11  12
HETATM   12  C8  UNL     1      27.957  29.881  38.830  1.00  0.00     0.065 C 
HETATM   13  N6  UNL     1      27.448  29.318  39.857  1.00  0.00    -0.355 N 
ATOM     14  H6  UNL     1      27.097  28.364  39.775  1.00  0.00     0.163 HD
BRANCH  13  15
HETATM   15  C9  UNL     1      27.355  29.987  41.122  1.00  0.00     0.368 C 
BRANCH  15  16
HETATM   16  O2  UNL     1      26.693  29.197  42.084  1.00  0.00    -0.355 OA
ATOM     17  H2  UNL     1      27.160  28.390  42.260  1.00  0.00     0.214 HD
ENDBRANCH  15  16
BRANCH  15  18
HETATM   18  O3  UNL     1      26.713  31.199  41.072  1.00  0.00    -0.334 OA
BRANCH  18  19
HETATM   19  C10 UNL     1      27.450  32.245  41.598  1.00  0.00     0.055 C 
HETATM   20  C11 UNL     1      26.674  33.122  42.536  1.00  0.00     0.045 C 
HETATM   21  C12 UNL     1      27.857  33.130  40.414  1.00  0.00     0.045 C 
HETATM   22  C13 UNL     1      28.719  31.808  42.264  1.00  0.00     0.045 C 
ENDBRANCH  18  19
ENDBRANCH  15  18
ENDBRANCH  13  15
ENDBRANCH  11  12
ENDBRANCH  10  11
BRANCH   4  23
HETATM   23  N3  UNL     1      24.002  30.555  34.058  1.00  0.00    -0.234 N 
ATOM     24  H32 UNL     1      24.079  31.465  33.606  1.00  0.00     0.174 HD
ATOM     25  H31 UNL     1      23.193  29.970  33.848  1.00  0.00     0.174 HD
ENDBRANCH   4  23
BRANCH   1  26
HETATM   26  N1  UNL     1      25.972  27.558  36.909  1.00  0.00    -0.250 N 
ATOM     27  H1  UNL     1      26.287  27.522  37.878  1.00  0.00     0.196 HD
BRANCH  26  28
HETATM   28  O1  UNL     1      25.591  26.394  36.331  1.00  0.00    -0.284 OA
HETATM   29  C1  UNL     1      24.387  25.716  36.594  1.00  0.00     0.237 C 
ENDBRANCH  26  28
ENDBRANCH   1  26
TORSDOF 9
ENDMDL
