MODEL 1
REMARK VINA RESULT: -5.209040969      0.000      0.000
REMARK  3 active torsions:
REMARK  status: ('A' for Active; 'I' for Inactive)
REMARK    1  A    between atoms: N1_1  and  C1_4 
REMARK    2  A    between atoms: N3_11  and  N4_12 
REMARK    3  A    between atoms: N6_17  and  O1_18 
ROOT
HETATM    1  C1  UNL     1       9.316  31.950   6.878  1.00  0.00     0.132 A 
HETATM    2  N2  UNL     1       8.179  32.548   7.362  1.00  0.00    -0.351 N 
ATOM      3  H2  UNL     1       7.414  32.739   6.715  1.00  0.00     0.166 HD
HETATM    4  C2  UNL     1       8.030  32.891   8.640  1.00  0.00     0.092 A 
HETATM    5  C3  UNL     1       9.001  32.676   9.587  1.00  0.00     0.053 A 
HETATM    6  C4  UNL     1      10.161  32.076   9.141  1.00  0.00     0.118 A 
HETATM    7  C5  UNL     1      10.325  31.713   7.798  1.00  0.00     0.150 A 
HETATM    8  N3  UNL     1      11.537  31.162   7.684  1.00  0.00    -0.181 N 
HETATM    9  N5  UNL     1      12.121  31.173   8.892  1.00  0.00    -0.194 N 
ATOM     10  H5  UNL     1      13.052  30.813   9.098  1.00  0.00     0.213 HD
HETATM   11  N6  UNL     1      11.308  31.716   9.768  1.00  0.00    -0.145 N 
ENDROOT
BRANCH   1  12
HETATM   12  N1  UNL     1       9.392  31.648   5.644  1.00  0.00    -0.383 N 
ATOM     13  H12 UNL     1       9.594  30.711   5.298  1.00  0.00     0.157 HD
ATOM     14  H11 UNL     1       9.247  32.370   4.939  1.00  0.00     0.157 HD
ENDBRANCH   1  12
BRANCH   8  15
HETATM   15  N4  UNL     1      12.135  30.658   6.558  1.00  0.00    -0.322 N 
ATOM     16  H42 UNL     1      11.697  30.663   5.637  1.00  0.00     0.179 HD
ATOM     17  H41 UNL     1      13.055  30.225   6.474  1.00  0.00     0.179 HD
ENDBRANCH   8  15
BRANCH  11  18
HETATM   18  O1  UNL     1      11.528  31.917  11.129  1.00  0.00    -0.266 OA
ATOM     19  H1  UNL     1      11.325  31.265  11.789  1.00  0.00     0.247 HD
ENDBRANCH  11  18
TORSDOF 3
ENDMDL
MODEL 2
REMARK VINA RESULT: -5.196412710      1.886      2.708
REMARK  3 active torsions:
REMARK  status: ('A' for Active; 'I' for Inactive)
REMARK    1  A    between atoms: N1_1  and  C1_4 
REMARK    2  A    between atoms: N3_11  and  N4_12 
REMARK    3  A    between atoms: N6_17  and  O1_18 
ROOT
HETATM    1  C1  UNL     1      10.632  31.594   6.315  1.00  0.00     0.132 A 
HETATM    2  N2  UNL     1      10.155  32.354   5.276  1.00  0.00    -0.351 N 
ATOM      3  H2  UNL     1      10.551  32.213   4.346  1.00  0.00     0.166 HD
HETATM    4  C2  UNL     1       9.198  33.268   5.427  1.00  0.00     0.092 A 
HETATM    5  C3  UNL     1       8.604  33.531   6.637  1.00  0.00     0.053 A 
HETATM    6  C4  UNL     1       9.056  32.789   7.709  1.00  0.00     0.118 A 
HETATM    7  C5  UNL     1      10.062  31.825   7.558  1.00  0.00     0.150 A 
HETATM    8  N3  UNL     1      10.275  31.286   8.761  1.00  0.00    -0.181 N 
HETATM    9  N5  UNL     1       9.448  31.872   9.639  1.00  0.00    -0.194 N 
ATOM     10  H5  UNL     1       9.395  31.654  10.634  1.00  0.00     0.213 HD
HETATM   11  N6  UNL     1       8.717  32.771   9.022  1.00  0.00    -0.145 N 
ENDROOT
BRANCH   1  12
HETATM   12  N1  UNL     1      11.548  30.738   6.101  1.00  0.00    -0.383 N 
ATOM     13  H12 UNL     1      11.688  30.263   5.209  1.00  0.00     0.157 HD
ATOM     14  H11 UNL     1      12.196  30.494   6.849  1.00  0.00     0.157 HD
ENDBRANCH   1  12
BRANCH   8  15
HETATM   15  N4  UNL     1      11.167  30.302   9.101  1.00  0.00    -0.322 N 
ATOM     16  H42 UNL     1      12.120  30.489   9.413  1.00  0.00     0.179 HD
ATOM     17  H41 UNL     1      11.024  29.292   9.094  1.00  0.00     0.179 HD
ENDBRANCH   8  15
BRANCH  11  18
HETATM   18  O1  UNL     1       7.738  33.599   9.567  1.00  0.00    -0.266 OA
ATOM     19  H1  UNL     1       7.290  33.406  10.382  1.00  0.00     0.247 HD
ENDBRANCH  11  18
TORSDOF 3
ENDMDL
MODEL 3
REMARK VINA RESULT: -5.127919126      1.306      1.550
REMARK  3 active torsions:
REMARK  status: ('A' for Active; 'I' for Inactive)
REMARK    1  A    between atoms: N1_1  and  C1_4 
REMARK    2  A    between atoms: N3_11  and  N4_12 
REMARK    3  A    between atoms: N6_17  and  O1_18 
ROOT
HETATM    1  C1  UNL     1      10.194  31.630   5.445  1.00  0.00     0.132 A 
HETATM    2  N2  UNL     1       9.084  32.428   5.316  1.00  0.00    -0.351 N 
ATOM      3  H2  UNL     1       8.637  32.499   4.402  1.00  0.00     0.166 HD
HETATM    4  C2  UNL     1       8.566  33.115   6.332  1.00  0.00     0.092 A 
HETATM    5  C3  UNL     1       9.095  33.086   7.600  1.00  0.00     0.053 A 
HETATM    6  C4  UNL     1      10.213  32.295   7.771  1.00  0.00     0.118 A 
HETATM    7  C5  UNL     1      10.765  31.569   6.707  1.00  0.00     0.150 A 
HETATM    8  N3  UNL     1      11.823  30.911   7.186  1.00  0.00    -0.181 N 
HETATM    9  N5  UNL     1      11.945  31.200   8.491  1.00  0.00    -0.194 N 
ATOM     10  H5  UNL     1      12.669  30.835   9.109  1.00  0.00     0.213 HD
HETATM   11  N6  UNL     1      10.990  32.025   8.849  1.00  0.00    -0.145 N 
ENDROOT
BRANCH   1  12
HETATM   12  N1  UNL     1      10.638  31.000   4.433  1.00  0.00    -0.383 N 
ATOM     13  H12 UNL     1      10.601  31.358   3.478  1.00  0.00     0.157 HD
ATOM     14  H11 UNL     1      11.059  30.080   4.556  1.00  0.00     0.157 HD
ENDBRANCH   1  12
BRANCH   8  15
HETATM   15  N4  UNL     1      12.675  30.074   6.513  1.00  0.00    -0.322 N 
ATOM     16  H42 UNL     1      12.841  30.128   5.508  1.00  0.00     0.179 HD
ATOM     17  H41 UNL     1      13.239  29.312   6.892  1.00  0.00     0.179 HD
ENDBRANCH   8  15
BRANCH  11  18
HETATM   18  O1  UNL     1      10.757  32.568  10.111  1.00  0.00    -0.266 OA
ATOM     19  H1  UNL     1      10.120  32.213  10.720  1.00  0.00     0.247 HD
ENDBRANCH  11  18
TORSDOF 3
ENDMDL
MODEL 4
REMARK VINA RESULT: -5.106878769      4.945      6.291
REMARK  3 active torsions:
REMARK  status: ('A' for Active; 'I' for Inactive)
REMARK    1  A    between atoms: N1_1  and  C1_4 
REMARK    2  A    between atoms: N3_11  and  N4_12 
REMARK    3  A    between atoms: N6_17  and  O1_18 
ROOT
HETATM    1  C1  UNL     1      11.275  30.057   5.014  1.00  0.00     0.132 A 
HETATM    2  N2  UNL     1      10.295  31.019   5.000  1.00  0.00    -0.351 N 
ATOM      3  H2  UNL     1      10.020  31.449   5.883  1.00  0.00     0.166 HD
HETATM    4  C2  UNL     1       9.688  31.416   3.883  1.00  0.00     0.092 A 
HETATM    5  C3  UNL     1       9.987  30.898   2.647  1.00  0.00     0.053 A 
HETATM    6  C4  UNL     1      10.968  29.927   2.618  1.00  0.00     0.118 A 
HETATM    7  C5  UNL     1      11.612  29.504   3.788  1.00  0.00     0.150 A 
HETATM    8  N3  UNL     1      12.498  28.569   3.435  1.00  0.00    -0.181 N 
HETATM    9  N5  UNL     1      12.425  28.400   2.106  1.00  0.00    -0.194 N 
ATOM     10  H5  UNL     1      12.990  27.746   1.564  1.00  0.00     0.213 HD
HETATM   11  N6  UNL     1      11.515  29.205   1.609  1.00  0.00    -0.145 N 
ENDROOT
BRANCH   1  12
HETATM   12  N1  UNL     1      11.815  29.725   6.117  1.00  0.00    -0.383 N 
ATOM     13  H12 UNL     1      12.764  29.984   6.388  1.00  0.00     0.157 HD
ATOM     14  H11 UNL     1      11.289  29.166   6.788  1.00  0.00     0.157 HD
ENDBRANCH   1  12
BRANCH   8  15
HETATM   15  N4  UNL     1      13.357  27.869   4.241  1.00  0.00    -0.322 N 
ATOM     16  H42 UNL     1      13.235  27.779   5.250  1.00  0.00     0.179 HD
ATOM     17  H41 UNL     1      14.201  27.362   3.973  1.00  0.00     0.179 HD
ENDBRANCH   8  15
BRANCH  11  18
HETATM   18  O1  UNL     1      11.131  29.343   0.277  1.00  0.00    -0.266 OA
ATOM     19  H1  UNL     1      11.447  28.776  -0.416  1.00  0.00     0.247 HD
ENDBRANCH  11  18
TORSDOF 3
ENDMDL
MODEL 5
REMARK VINA RESULT: -5.004368752      4.694      6.464
REMARK  3 active torsions:
REMARK  status: ('A' for Active; 'I' for Inactive)
REMARK    1  A    between atoms: N1_1  and  C1_4 
REMARK    2  A    between atoms: N3_11  and  N4_12 
REMARK    3  A    between atoms: N6_17  and  O1_18 
ROOT
HETATM    1  C1  UNL     1      12.047  29.516   5.362  1.00  0.00     0.132 A 
HETATM    2  N2  UNL     1      13.055  28.695   4.919  1.00  0.00    -0.351 N 
ATOM      3  H2  UNL     1      13.701  28.304   5.604  1.00  0.00     0.166 HD
HETATM    4  C2  UNL     1      13.226  28.388   3.635  1.00  0.00     0.092 A 
HETATM    5  C3  UNL     1      12.410  28.866   2.639  1.00  0.00     0.053 A 
HETATM    6  C4  UNL     1      11.383  29.695   3.042  1.00  0.00     0.118 A 
HETATM    7  C5  UNL     1      11.196  30.023   4.392  1.00  0.00     0.150 A 
HETATM    8  N3  UNL     1      10.135  30.831   4.457  1.00  0.00    -0.181 N 
HETATM    9  N5  UNL     1       9.665  31.013   3.214  1.00  0.00    -0.194 N 
ATOM     10  H5  UNL     1       8.859  31.587   2.967  1.00  0.00     0.213 HD
HETATM   11  N6  UNL     1      10.403  30.340   2.362  1.00  0.00    -0.145 N 
ENDROOT
BRANCH   1  12
HETATM   12  N1  UNL     1      11.940  29.768   6.604  1.00  0.00    -0.383 N 
ATOM     13  H12 UNL     1      12.642  30.272   7.146  1.00  0.00     0.157 HD
ATOM     14  H11 UNL     1      11.112  29.459   7.112  1.00  0.00     0.157 HD
ENDBRANCH   1  12
BRANCH   8  15
HETATM   15  N4  UNL     1       9.577  31.406   5.569  1.00  0.00    -0.322 N 
ATOM     16  H42 UNL     1      10.122  31.756   6.357  1.00  0.00     0.179 HD
ATOM     17  H41 UNL     1       8.588  31.562   5.768  1.00  0.00     0.179 HD
ENDBRANCH   8  15
BRANCH  11  18
HETATM   18  O1  UNL     1      10.255  30.260   0.979  1.00  0.00    -0.266 OA
ATOM     19  H1  UNL     1       9.410  30.195   0.550  1.00  0.00     0.247 HD
ENDBRANCH  11  18
TORSDOF 3
ENDMDL
