MODEL 1
REMARK VINA RESULT: -4.974883473      0.000      0.000
REMARK  0 active torsions:
REMARK  status: ('A' for Active; 'I' for Inactive)
ROOT
HETATM    1  N1  UNL     1      12.101  29.601   6.684  1.00  0.00    -0.088 NA
HETATM    2  C1  UNL     1      11.654  30.888   7.094  1.00  0.00     0.093 C 
HETATM    3  N2  UNL     1      10.700  31.433   6.526  1.00  0.00    -0.377 N 
ATOM      4  H2  UNL     1      10.322  30.852   5.778  1.00  0.00     0.160 HD
HETATM    5  C2  UNL     1       9.999  32.655   6.648  1.00  0.00     0.164 C 
HETATM    6  C3  UNL     1       8.519  32.518   6.861  1.00  0.00     0.075 C 
HETATM    7  N3  UNL     1       7.991  32.980   8.079  1.00  0.00    -0.396 N 
ATOM      8  H3  UNL     1       7.064  33.405   8.130  1.00  0.00     0.159 HD
HETATM    9  C4  UNL     1       8.812  32.831   9.253  1.00  0.00     0.163 C 
HETATM   10  C5  UNL     1       9.163  31.398   9.443  1.00  0.00     0.079 C 
HETATM   11  N4  UNL     1      10.483  31.035   9.687  1.00  0.00    -0.381 N 
ATOM     12  H4  UNL     1      10.650  30.114  10.094  1.00  0.00     0.164 HD
HETATM   13  C6  UNL     1      11.590  31.829   9.421  1.00  0.00     0.067 C 
HETATM   14  C7  UNL     1      12.385  31.508   8.201  1.00  0.00     0.117 C 
ENDROOT
TORSDOF 0
ENDMDL
MODEL 2
REMARK VINA RESULT: -4.793408504      1.295      2.752
REMARK  0 active torsions:
REMARK  status: ('A' for Active; 'I' for Inactive)
ROOT
HETATM    1  N1  UNL     1      13.246  32.470   8.812  1.00  0.00    -0.088 NA
HETATM    2  C1  UNL     1      11.990  31.837   8.599  1.00  0.00     0.093 C 
HETATM    3  N2  UNL     1      11.053  32.021   9.384  1.00  0.00    -0.377 N 
ATOM      4  H2  UNL     1      11.312  32.649  10.144  1.00  0.00     0.160 HD
HETATM    5  C2  UNL     1       9.712  31.583   9.498  1.00  0.00     0.164 C 
HETATM    6  C3  UNL     1       8.690  32.681   9.569  1.00  0.00     0.075 C 
HETATM    7  N3  UNL     1       7.761  32.776   8.519  1.00  0.00    -0.396 N 
ATOM      8  H3  UNL     1       6.801  33.077   8.684  1.00  0.00     0.159 HD
HETATM    9  C4  UNL     1       8.221  32.431   7.198  1.00  0.00     0.163 C 
HETATM   10  C5  UNL     1       9.386  33.280   6.832  1.00  0.00     0.079 C 
HETATM   11  N4  UNL     1      10.532  32.695   6.306  1.00  0.00    -0.381 N 
ATOM     12  H4  UNL     1      11.182  33.300   5.804  1.00  0.00     0.164 HD
HETATM   13  C6  UNL     1      10.860  31.350   6.411  1.00  0.00     0.067 C 
HETATM   14  C7  UNL     1      11.889  30.972   7.422  1.00  0.00     0.117 C 
ENDROOT
TORSDOF 0
ENDMDL
MODEL 3
REMARK VINA RESULT: -4.572968054      1.245      2.939
REMARK  0 active torsions:
REMARK  status: ('A' for Active; 'I' for Inactive)
ROOT
HETATM    1  N1  UNL     1      11.843  32.275  10.947  1.00  0.00    -0.088 NA
HETATM    2  C1  UNL     1      10.964  31.637  10.028  1.00  0.00     0.093 C 
HETATM    3  N2  UNL     1       9.760  31.916  10.013  1.00  0.00    -0.377 N 
ATOM      4  H2  UNL     1       9.524  32.620  10.712  1.00  0.00     0.160 HD
HETATM    5  C2  UNL     1       8.624  31.509   9.274  1.00  0.00     0.164 C 
HETATM    6  C3  UNL     1       7.880  32.621   8.590  1.00  0.00     0.075 C 
HETATM    7  N3  UNL     1       7.843  32.612   7.185  1.00  0.00    -0.396 N 
ATOM      8  H3  UNL     1       7.024  32.940   6.673  1.00  0.00     0.159 HD
HETATM    9  C4  UNL     1       9.009  32.120   6.498  1.00  0.00     0.163 C 
HETATM   10  C5  UNL     1      10.203  32.911   6.900  1.00  0.00     0.079 C 
HETATM   11  N4  UNL     1      11.371  32.259   7.277  1.00  0.00    -0.381 N 
ATOM     12  H4  UNL     1      12.237  32.799   7.264  1.00  0.00     0.164 HD
HETATM   13  C6  UNL     1      11.451  30.929   7.669  1.00  0.00     0.067 C 
HETATM   14  C7  UNL     1      11.568  30.651   9.129  1.00  0.00     0.117 C 
ENDROOT
TORSDOF 0
ENDMDL
MODEL 4
REMARK VINA RESULT: -4.509314233      1.119      1.260
REMARK  0 active torsions:
REMARK  status: ('A' for Active; 'I' for Inactive)
ROOT
HETATM    1  N1  UNL     1      11.362  29.115   5.188  1.00  0.00    -0.088 NA
HETATM    2  C1  UNL     1      11.362  30.384   5.832  1.00  0.00     0.093 C 
HETATM    3  N2  UNL     1      10.407  31.157   5.697  1.00  0.00    -0.377 N 
ATOM      4  H2  UNL     1       9.683  30.765   5.095  1.00  0.00     0.160 HD
HETATM    5  C2  UNL     1      10.061  32.448   6.162  1.00  0.00     0.164 C 
HETATM    6  C3  UNL     1       8.750  32.530   6.890  1.00  0.00     0.075 C 
HETATM    7  N3  UNL     1       8.780  32.888   8.248  1.00  0.00    -0.396 N 
ATOM      8  H3  UNL     1       8.037  33.448   8.667  1.00  0.00     0.159 HD
HETATM    9  C4  UNL     1       9.903  32.432   9.026  1.00  0.00     0.163 C 
HETATM   10  C5  UNL     1       9.991  30.948   8.961  1.00  0.00     0.079 C 
HETATM   11  N4  UNL     1      11.208  30.339   8.678  1.00  0.00    -0.381 N 
ATOM     12  H4  UNL     1      11.309  29.353   8.922  1.00  0.00     0.164 HD
HETATM   13  C6  UNL     1      12.297  30.967   8.088  1.00  0.00     0.067 C 
HETATM   14  C7  UNL     1      12.540  30.703   6.641  1.00  0.00     0.117 C 
ENDROOT
TORSDOF 0
ENDMDL
MODEL 5
REMARK VINA RESULT: -4.423706734      7.105      8.845
REMARK  0 active torsions:
REMARK  status: ('A' for Active; 'I' for Inactive)
ROOT
HETATM    1  N1  UNL     1      15.724  24.320   3.349  1.00  0.00    -0.088 NA
HETATM    2  C1  UNL     1      14.542  25.110   3.303  1.00  0.00     0.093 C 
HETATM    3  N2  UNL     1      14.528  26.250   3.782  1.00  0.00    -0.377 N 
ATOM      4  H2  UNL     1      15.431  26.504   4.182  1.00  0.00     0.160 HD
HETATM    5  C2  UNL     1      13.581  27.292   3.917  1.00  0.00     0.164 C 
HETATM    6  C3  UNL     1      14.001  28.611   3.332  1.00  0.00     0.075 C 
HETATM    7  N3  UNL     1      13.254  29.112   2.252  1.00  0.00    -0.396 N 
ATOM      8  H3  UNL     1      13.098  30.113   2.133  1.00  0.00     0.159 HD
HETATM    9  C4  UNL     1      12.716  28.153   1.321  1.00  0.00     0.163 C 
HETATM   10  C5  UNL     1      13.818  27.334   0.750  1.00  0.00     0.079 C 
HETATM   11  N4  UNL     1      13.703  25.949   0.711  1.00  0.00    -0.381 N 
ATOM     12  H4  UNL     1      14.315  25.443   0.070  1.00  0.00     0.164 HD
HETATM   13  C6  UNL     1      12.819  25.201   1.478  1.00  0.00     0.067 C 
HETATM   14  C7  UNL     1      13.373  24.496   2.669  1.00  0.00     0.117 C 
ENDROOT
TORSDOF 0
ENDMDL
