MODEL 1
REMARK VINA RESULT: -5.329052473      0.000      0.000
REMARK  2 active torsions:
REMARK  status: ('A' for Active; 'I' for Inactive)
REMARK    1  A    between atoms: N1_1  and  C1_4 
REMARK    2  A    between atoms: N3_7  and  O1_8 
ROOT
HETATM    1  C1  UNL     1      12.101  31.883   9.939  1.00  0.00     0.694 A 
HETATM    2  N2  UNL     1      12.757  31.408   8.867  1.00  0.00    -0.104 N 
ATOM      3  H2  UNL     1      13.740  31.158   8.980  1.00  0.00     0.208 HD
HETATM    4  N3  UNL     1      12.215  31.246   7.689  1.00  0.00    -0.128 N 
HETATM    5  C2  UNL     1      10.924  31.566   7.510  1.00  0.00     0.193 A 
HETATM    6  C3  UNL     1      10.208  32.060   8.591  1.00  0.00     0.165 A 
HETATM    7  N4  UNL     1      10.805  32.212   9.792  1.00  0.00    -0.172 N 
ATOM      8  H4  UNL     1      10.277  32.576  10.584  1.00  0.00     0.186 HD
HETATM    9  N5  UNL     1       8.850  32.386   8.361  1.00  0.00    -0.371 N 
ATOM     10  H5  UNL     1       8.243  32.457   9.178  1.00  0.00     0.161 HD
HETATM   11  C4  UNL     1       8.257  32.624   7.084  1.00  0.00     0.141 C 
HETATM   12  C5  UNL     1       9.047  32.124   5.922  1.00  0.00     0.141 C 
HETATM   13  N6  UNL     1      10.246  31.427   6.271  1.00  0.00    -0.368 N 
ATOM     14  H6  UNL     1      10.641  30.786   5.582  1.00  0.00     0.161 HD
ENDROOT
BRANCH   1  15
HETATM   15  N1  UNL     1      12.672  32.033  11.104  1.00  0.00    -0.233 N 
ATOM     16  H12 UNL     1      13.239  32.863  11.280  1.00  0.00     0.174 HD
ATOM     17  H11 UNL     1      12.577  31.350  11.855  1.00  0.00     0.174 HD
ENDBRANCH   1  15
BRANCH   4  18
HETATM   18  O1  UNL     1      12.902  30.757   6.595  1.00  0.00    -0.266 OA
ATOM     19  H1  UNL     1      12.859  31.150   5.730  1.00  0.00     0.247 HD
ENDBRANCH   4  18
TORSDOF 2
ENDMDL
MODEL 2
REMARK VINA RESULT: -5.290314817      2.737      5.012
REMARK  2 active torsions:
REMARK  status: ('A' for Active; 'I' for Inactive)
REMARK    1  A    between atoms: N1_1  and  C1_4 
REMARK    2  A    between atoms: N3_7  and  O1_8 
ROOT
HETATM    1  C1  UNL     1      10.467  30.598   2.552  1.00  0.00     0.694 A 
HETATM    2  N2  UNL     1      11.100  29.814   3.441  1.00  0.00    -0.104 N 
ATOM      3  H2  UNL     1      11.572  28.980   3.093  1.00  0.00     0.208 HD
HETATM    4  N3  UNL     1      11.148  30.055   4.725  1.00  0.00    -0.128 N 
HETATM    5  C2  UNL     1      10.538  31.146   5.213  1.00  0.00     0.193 A 
HETATM    6  C3  UNL     1       9.872  31.984   4.329  1.00  0.00     0.165 A 
HETATM    7  N4  UNL     1       9.845  31.699   3.010  1.00  0.00    -0.172 N 
ATOM      8  H4  UNL     1       9.355  32.316   2.363  1.00  0.00     0.186 HD
HETATM    9  N5  UNL     1       9.241  33.122   4.883  1.00  0.00    -0.371 N 
ATOM     10  H5  UNL     1       9.016  33.887   4.246  1.00  0.00     0.161 HD
HETATM   11  C4  UNL     1       8.891  33.293   6.257  1.00  0.00     0.141 C 
HETATM   12  C5  UNL     1       9.580  32.366   7.200  1.00  0.00     0.141 C 
HETATM   13  N6  UNL     1      10.534  31.493   6.589  1.00  0.00    -0.368 N 
ATOM     14  H6  UNL     1      11.260  31.092   7.183  1.00  0.00     0.161 HD
ENDROOT
BRANCH   1  15
HETATM   15  N1  UNL     1      10.437  30.329   1.274  1.00  0.00    -0.233 N 
ATOM     16  H12 UNL     1       9.813  29.599   0.931  1.00  0.00     0.174 HD
ATOM     17  H11 UNL     1      11.016  30.823   0.595  1.00  0.00     0.174 HD
ENDBRANCH   1  15
BRANCH   4  18
HETATM   18  O1  UNL     1      11.803  29.240   5.629  1.00  0.00    -0.266 OA
ATOM     19  H1  UNL     1      11.731  29.339   6.571  1.00  0.00     0.247 HD
ENDBRANCH   4  18
TORSDOF 2
ENDMDL
MODEL 3
REMARK VINA RESULT: -5.132281595      1.879      2.965
REMARK  2 active torsions:
REMARK  status: ('A' for Active; 'I' for Inactive)
REMARK    1  A    between atoms: N1_1  and  C1_4 
REMARK    2  A    between atoms: N3_7  and  O1_8 
ROOT
HETATM    1  C1  UNL     1      11.858  30.887   7.393  1.00  0.00     0.694 A 
HETATM    2  N2  UNL     1      12.089  31.026   8.709  1.00  0.00    -0.104 N 
ATOM      3  H2  UNL     1      12.972  30.676   9.079  1.00  0.00     0.208 HD
HETATM    4  N3  UNL     1      11.251  31.582   9.544  1.00  0.00    -0.128 N 
HETATM    5  C2  UNL     1      10.081  32.052   9.086  1.00  0.00     0.193 A 
HETATM    6  C3  UNL     1       9.801  31.929   7.732  1.00  0.00     0.165 A 
HETATM    7  N4  UNL     1      10.694  31.348   6.903  1.00  0.00    -0.172 N 
ATOM      8  H4  UNL     1      10.486  31.259   5.908  1.00  0.00     0.186 HD
HETATM    9  N5  UNL     1       8.557  32.437   7.290  1.00  0.00    -0.371 N 
ATOM     10  H5  UNL     1       8.461  32.631   6.292  1.00  0.00     0.161 HD
HETATM   11  C4  UNL     1       7.424  32.701   8.118  1.00  0.00     0.141 C 
HETATM   12  C5  UNL     1       7.722  32.795   9.576  1.00  0.00     0.141 C 
HETATM   13  N6  UNL     1       9.106  32.671   9.912  1.00  0.00    -0.368 N 
ATOM     14  H6  UNL     1       9.415  33.052  10.807  1.00  0.00     0.161 HD
ENDROOT
BRANCH   1  15
HETATM   15  N1  UNL     1      12.717  30.326   6.583  1.00  0.00    -0.233 N 
ATOM     16  H12 UNL     1      13.563  29.905   6.966  1.00  0.00     0.174 HD
ATOM     17  H11 UNL     1      12.578  30.290   5.573  1.00  0.00     0.174 HD
ENDBRANCH   1  15
BRANCH   4  18
HETATM   18  O1  UNL     1      11.501  31.718  10.896  1.00  0.00    -0.266 OA
ATOM     19  H1  UNL     1      11.838  31.015  11.440  1.00  0.00     0.247 HD
ENDBRANCH   4  18
TORSDOF 2
ENDMDL
MODEL 4
REMARK VINA RESULT: -5.124160492      1.908      2.672
REMARK  2 active torsions:
REMARK  status: ('A' for Active; 'I' for Inactive)
REMARK    1  A    between atoms: N1_1  and  C1_4 
REMARK    2  A    between atoms: N3_7  and  O1_8 
ROOT
HETATM    1  C1  UNL     1      11.707  31.490   9.640  1.00  0.00     0.694 A 
HETATM    2  N2  UNL     1      10.591  32.233   9.734  1.00  0.00    -0.104 N 
ATOM      3  H2  UNL     1      10.335  32.597  10.652  1.00  0.00     0.208 HD
HETATM    4  N3  UNL     1       9.814  32.518   8.723  1.00  0.00    -0.128 N 
HETATM    5  C2  UNL     1      10.126  32.053   7.503  1.00  0.00     0.193 A 
HETATM    6  C3  UNL     1      11.270  31.281   7.360  1.00  0.00     0.165 A 
HETATM    7  N4  UNL     1      12.046  31.010   8.431  1.00  0.00    -0.172 N 
ATOM      8  H4  UNL     1      12.887  30.442   8.323  1.00  0.00     0.186 HD
HETATM    9  N5  UNL     1      11.563  30.811   6.058  1.00  0.00    -0.371 N 
ATOM     10  H5  UNL     1      12.522  30.513   5.875  1.00  0.00     0.161 HD
HETATM   11  C4  UNL     1      10.633  30.716   4.979  1.00  0.00     0.141 C 
HETATM   12  C5  UNL     1       9.387  31.518   5.153  1.00  0.00     0.141 C 
HETATM   13  N6  UNL     1       9.346  32.307   6.344  1.00  0.00    -0.368 N 
ATOM     14  H6  UNL     1       8.714  33.108   6.363  1.00  0.00     0.161 HD
ENDROOT
BRANCH   1  15
HETATM   15  N1  UNL     1      12.463  31.222  10.671  1.00  0.00    -0.233 N 
ATOM     16  H12 UNL     1      13.022  31.966  11.088  1.00  0.00     0.174 HD
ATOM     17  H11 UNL     1      12.521  30.291  11.083  1.00  0.00     0.174 HD
ENDBRANCH   1  15
BRANCH   4  18
HETATM   18  O1  UNL     1       8.669  33.283   8.834  1.00  0.00    -0.266 OA
ATOM     19  H1  UNL     1       8.141  33.548   8.090  1.00  0.00     0.247 HD
ENDBRANCH   4  18
TORSDOF 2
ENDMDL
MODEL 5
REMARK VINA RESULT: -5.111839636      1.942      4.483
REMARK  2 active torsions:
REMARK  status: ('A' for Active; 'I' for Inactive)
REMARK    1  A    between atoms: N1_1  and  C1_4 
REMARK    2  A    between atoms: N3_7  and  O1_8 
ROOT
HETATM    1  C1  UNL     1       9.649  31.645   6.677  1.00  0.00     0.694 A 
HETATM    2  N2  UNL     1       8.895  31.859   7.769  1.00  0.00    -0.104 N 
ATOM      3  H2  UNL     1       7.886  31.948   7.643  1.00  0.00     0.208 HD
HETATM    4  N3  UNL     1       9.373  31.958   8.981  1.00  0.00    -0.128 N 
HETATM    5  C2  UNL     1      10.695  31.843   9.177  1.00  0.00     0.193 A 
HETATM    6  C3  UNL     1      11.512  31.623   8.077  1.00  0.00     0.165 A 
HETATM    7  N4  UNL     1      10.978  31.526   6.841  1.00  0.00    -0.172 N 
ATOM      8  H4  UNL     1      11.581  31.364   6.034  1.00  0.00     0.186 HD
HETATM    9  N5  UNL     1      12.900  31.509   8.327  1.00  0.00    -0.371 N 
ATOM     10  H5  UNL     1      13.467  31.058   7.608  1.00  0.00     0.161 HD
HETATM   11  C4  UNL     1      13.576  31.971   9.497  1.00  0.00     0.141 C 
HETATM   12  C5  UNL     1      12.690  32.243  10.666  1.00  0.00     0.141 C 
HETATM   13  N6  UNL     1      11.310  31.937  10.453  1.00  0.00    -0.368 N 
ATOM     14  H6  UNL     1      10.727  31.775  11.275  1.00  0.00     0.161 HD
ENDROOT
BRANCH   1  15
HETATM   15  N1  UNL     1       9.140  31.551   5.478  1.00  0.00    -0.233 N 
ATOM     16  H12 UNL     1       8.190  31.882   5.310  1.00  0.00     0.174 HD
ATOM     17  H11 UNL     1       9.656  31.156   4.691  1.00  0.00     0.174 HD
ENDBRANCH   1  15
BRANCH   4  18
HETATM   18  O1  UNL     1       8.585  32.178  10.095  1.00  0.00    -0.266 OA
ATOM     19  H1  UNL     1       8.920  32.529  10.912  1.00  0.00     0.247 HD
ENDBRANCH   4  18
TORSDOF 2
ENDMDL
