MODEL 1
REMARK VINA RESULT: -5.310789794      0.000      0.000
REMARK  1 active torsions:
REMARK  status: ('A' for Active; 'I' for Inactive)
REMARK    1  A    between atoms: N1_1  and  C1_4 
ROOT
HETATM    1  C1  UNL     1      10.539  31.625   6.034  1.00  0.00     0.132 A 
HETATM    2  N2  UNL     1      10.254  32.243   4.864  1.00  0.00    -0.337 N 
ATOM      3  H2  UNL     1      10.780  31.999   4.024  1.00  0.00     0.168 HD
HETATM    4  C2  UNL     1       9.282  33.179   4.792  1.00  0.00     0.183 A 
HETATM    5  N3  UNL     1       8.607  33.482   5.912  1.00  0.00    -0.337 N 
ATOM      6  H3  UNL     1       7.875  34.190   5.850  1.00  0.00     0.168 HD
HETATM    7  C3  UNL     1       8.833  32.912   7.116  1.00  0.00     0.134 A 
HETATM    8  C4  UNL     1       9.830  31.960   7.158  1.00  0.00     0.135 A 
HETATM    9  N4  UNL     1      10.202  31.281   8.215  1.00  0.00    -0.298 N 
ATOM     10  H4  UNL     1      10.953  30.606   8.079  1.00  0.00     0.187 HD
HETATM   11  N5  UNL     1       9.674  31.380   9.531  1.00  0.00    -0.334 N 
ATOM     12  H5  UNL     1      10.321  31.221  10.303  1.00  0.00     0.180 HD
HETATM   13  C5  UNL     1       8.314  31.683   9.871  1.00  0.00     0.159 C 
HETATM   14  C6  UNL     1       7.946  33.083   9.445  1.00  0.00     0.142 C 
HETATM   15  N6  UNL     1       8.092  33.348   8.051  1.00  0.00    -0.373 N 
ATOM     16  H6  UNL     1       7.442  34.064   7.725  1.00  0.00     0.161 HD
ENDROOT
BRANCH   1  17
HETATM   17  N1  UNL     1      11.472  30.734   6.080  1.00  0.00    -0.383 N 
ATOM     18  H12 UNL     1      12.121  30.615   5.302  1.00  0.00     0.157 HD
ATOM     19  H11 UNL     1      11.563  30.137   6.903  1.00  0.00     0.157 HD
ENDBRANCH   1  17
TORSDOF 1
ENDMDL
MODEL 2
REMARK VINA RESULT: -5.231774881      2.194      3.314
REMARK  1 active torsions:
REMARK  status: ('A' for Active; 'I' for Inactive)
REMARK    1  A    between atoms: N1_1  and  C1_4 
ROOT
HETATM    1  C1  UNL     1      11.413  29.689   4.166  1.00  0.00     0.132 A 
HETATM    2  N2  UNL     1      11.351  29.573   2.819  1.00  0.00    -0.337 N 
ATOM      3  H2  UNL     1      11.844  28.809   2.356  1.00  0.00     0.168 HD
HETATM    4  C2  UNL     1      10.645  30.457   2.079  1.00  0.00     0.183 A 
HETATM    5  N3  UNL     1      10.009  31.454   2.713  1.00  0.00    -0.337 N 
ATOM      6  H3  UNL     1       9.479  32.116   2.147  1.00  0.00     0.168 HD
HETATM    7  C3  UNL     1      10.024  31.637   4.051  1.00  0.00     0.134 A 
HETATM    8  C4  UNL     1      10.751  30.720   4.781  1.00  0.00     0.135 A 
HETATM    9  N4  UNL     1      10.888  30.707   6.084  1.00  0.00    -0.298 N 
ATOM     10  H4  UNL     1      11.455  29.955   6.472  1.00  0.00     0.187 HD
HETATM   11  N5  UNL     1      10.333  31.625   7.016  1.00  0.00    -0.334 N 
ATOM     12  H5  UNL     1      10.879  31.821   7.855  1.00  0.00     0.180 HD
HETATM   13  C5  UNL     1       9.074  32.300   6.885  1.00  0.00     0.159 C 
HETATM   14  C6  UNL     1       9.086  33.249   5.713  1.00  0.00     0.142 C 
HETATM   15  N6  UNL     1       9.366  32.648   4.451  1.00  0.00    -0.373 N 
ATOM     16  H6  UNL     1       8.931  33.153   3.678  1.00  0.00     0.161 HD
ENDROOT
BRANCH   1  17
HETATM   17  N1  UNL     1      12.093  28.835   4.855  1.00  0.00    -0.383 N 
ATOM     18  H12 UNL     1      12.151  27.858   4.566  1.00  0.00     0.157 HD
ATOM     19  H11 UNL     1      12.578  29.135   5.700  1.00  0.00     0.157 HD
ENDBRANCH   1  17
TORSDOF 1
ENDMDL
MODEL 3
REMARK VINA RESULT: -5.210527362      2.089      4.377
REMARK  1 active torsions:
REMARK  status: ('A' for Active; 'I' for Inactive)
REMARK    1  A    between atoms: N1_1  and  C1_4 
ROOT
HETATM    1  C1  UNL     1      10.559  31.759   6.628  1.00  0.00     0.132 A 
HETATM    2  N2  UNL     1       9.955  32.936   6.913  1.00  0.00    -0.337 N 
ATOM      3  H2  UNL     1       9.979  33.298   7.866  1.00  0.00     0.168 HD
HETATM    4  C2  UNL     1       9.319  33.640   5.949  1.00  0.00     0.183 A 
HETATM    5  N3  UNL     1       9.300  33.140   4.703  1.00  0.00    -0.337 N 
ATOM      6  H3  UNL     1       8.818  33.677   3.983  1.00  0.00     0.168 HD
HETATM    7  C3  UNL     1       9.878  31.974   4.343  1.00  0.00     0.134 A 
HETATM    8  C4  UNL     1      10.520  31.279   5.346  1.00  0.00     0.135 A 
HETATM    9  N4  UNL     1      11.151  30.139   5.210  1.00  0.00    -0.298 N 
ATOM     10  H4  UNL     1      11.581  29.756   6.051  1.00  0.00     0.187 HD
HETATM   11  N5  UNL     1      11.303  29.375   4.021  1.00  0.00    -0.334 N 
ATOM     12  H5  UNL     1      11.337  28.361   4.122  1.00  0.00     0.180 HD
HETATM   13  C5  UNL     1      11.412  29.902   2.692  1.00  0.00     0.159 C 
HETATM   14  C6  UNL     1      10.139  30.595   2.275  1.00  0.00     0.142 C 
HETATM   15  N6  UNL     1       9.736  31.675   3.116  1.00  0.00    -0.373 N 
ATOM     16  H6  UNL     1       9.203  32.381   2.607  1.00  0.00     0.161 HD
ENDROOT
BRANCH   1  17
HETATM   17  N1  UNL     1      11.161  31.103   7.563  1.00  0.00    -0.383 N 
ATOM     18  H12 UNL     1      11.843  31.562   8.168  1.00  0.00     0.157 HD
ATOM     19  H11 UNL     1      10.956  30.114   7.702  1.00  0.00     0.157 HD
ENDBRANCH   1  17
TORSDOF 1
ENDMDL
MODEL 4
REMARK VINA RESULT: -5.105622701      2.152      3.414
REMARK  1 active torsions:
REMARK  status: ('A' for Active; 'I' for Inactive)
REMARK    1  A    between atoms: N1_1  and  C1_4 
ROOT
HETATM    1  C1  UNL     1       8.564  32.069   8.686  1.00  0.00     0.132 A 
HETATM    2  N2  UNL     1       8.112  32.480   7.478  1.00  0.00    -0.337 N 
ATOM      3  H2  UNL     1       7.110  32.605   7.330  1.00  0.00     0.168 HD
HETATM    4  C2  UNL     1       8.971  32.727   6.464  1.00  0.00     0.183 A 
HETATM    5  N3  UNL     1      10.283  32.553   6.684  1.00  0.00    -0.337 N 
ATOM      6  H3  UNL     1      10.925  32.740   5.914  1.00  0.00     0.168 HD
HETATM    7  C3  UNL     1      10.810  32.145   7.860  1.00  0.00     0.134 A 
HETATM    8  C4  UNL     1       9.910  31.901   8.876  1.00  0.00     0.135 A 
HETATM    9  N4  UNL     1      10.208  31.511  10.090  1.00  0.00    -0.298 N 
ATOM     10  H4  UNL     1       9.424  31.381  10.729  1.00  0.00     0.187 HD
HETATM   11  N5  UNL     1      11.501  31.248  10.617  1.00  0.00    -0.334 N 
ATOM     12  H5  UNL     1      11.575  30.515  11.322  1.00  0.00     0.180 HD
HETATM   13  C5  UNL     1      12.713  31.921  10.247  1.00  0.00     0.159 C 
HETATM   14  C6  UNL     1      13.068  31.648   8.807  1.00  0.00     0.142 C 
HETATM   15  N6  UNL     1      12.075  32.031   7.857  1.00  0.00    -0.373 N 
ATOM     16  H6  UNL     1      12.482  32.275   6.953  1.00  0.00     0.161 HD
ENDROOT
BRANCH   1  17
HETATM   17  N1  UNL     1       7.726  31.839   9.641  1.00  0.00    -0.383 N 
ATOM     18  H12 UNL     1       7.381  32.598  10.229  1.00  0.00     0.157 HD
ATOM     19  H11 UNL     1       7.403  30.887   9.814  1.00  0.00     0.157 HD
ENDBRANCH   1  17
TORSDOF 1
ENDMDL
MODEL 5
REMARK VINA RESULT: -5.099272690      2.168      4.116
REMARK  1 active torsions:
REMARK  status: ('A' for Active; 'I' for Inactive)
REMARK    1  A    between atoms: N1_1  and  C1_4 
ROOT
HETATM    1  C1  UNL     1      10.719  30.336   3.097  1.00  0.00     0.132 A 
HETATM    2  N2  UNL     1      11.527  29.264   3.274  1.00  0.00    -0.337 N 
ATOM      3  H2  UNL     1      11.772  28.680   2.474  1.00  0.00     0.168 HD
HETATM    4  C2  UNL     1      12.015  28.958   4.497  1.00  0.00     0.183 A 
HETATM    5  N3  UNL     1      11.675  29.741   5.532  1.00  0.00    -0.337 N 
ATOM      6  H3  UNL     1      12.046  29.503   6.452  1.00  0.00     0.168 HD
HETATM    7  C3  UNL     1      10.874  30.825   5.436  1.00  0.00     0.134 A 
HETATM    8  C4  UNL     1      10.393  31.114   4.176  1.00  0.00     0.135 A 
HETATM    9  N4  UNL     1       9.615  32.119   3.862  1.00  0.00    -0.298 N 
ATOM     10  H4  UNL     1       9.351  32.199   2.880  1.00  0.00     0.187 HD
HETATM   11  N5  UNL     1       9.096  33.113   4.736  1.00  0.00    -0.334 N 
ATOM     12  H5  UNL     1       8.173  33.488   4.516  1.00  0.00     0.180 HD
HETATM   13  C5  UNL     1       9.752  33.635   5.899  1.00  0.00     0.159 C 
HETATM   14  C6  UNL     1       9.924  32.569   6.952  1.00  0.00     0.142 C 
HETATM   15  N6  UNL     1      10.667  31.424   6.537  1.00  0.00    -0.373 N 
ATOM     16  H6  UNL     1      11.152  30.977   7.316  1.00  0.00     0.161 HD
ENDROOT
BRANCH   1  17
HETATM   17  N1  UNL     1      10.265  30.611   1.920  1.00  0.00    -0.383 N 
ATOM     18  H12 UNL     1      10.335  31.555   1.540  1.00  0.00     0.157 HD
ATOM     19  H11 UNL     1       9.829  29.878   1.361  1.00  0.00     0.157 HD
ENDBRANCH   1  17
TORSDOF 1
ENDMDL
