MODEL 1
REMARK VINA RESULT: -5.057081466      0.000      0.000
REMARK  2 active torsions:
REMARK  status: ('A' for Active; 'I' for Inactive)
REMARK    1  A    between atoms: N1_1  and  C1_4 
REMARK    2  A    between atoms: N4_10  and  O1_11 
ROOT
HETATM    1  C1  UNL     1      10.508  30.901   5.238  1.00  0.00     0.692 A 
HETATM    2  N2  UNL     1       9.421  31.513   5.730  1.00  0.00    -0.131 N 
ATOM      3  H2  UNL     1       8.619  31.643   5.114  1.00  0.00     0.205 HD
HETATM    4  N3  UNL     1       9.334  31.956   6.974  1.00  0.00    -0.266 N 
ATOM      5  H3  UNL     1       8.475  32.413   7.278  1.00  0.00     0.189 HD
HETATM    6  C2  UNL     1      10.345  31.822   7.848  1.00  0.00     0.194 A 
HETATM    7  N4  UNL     1      10.545  32.159   9.132  1.00  0.00    -0.198 N 
HETATM    8  C3  UNL     1      11.779  31.755   9.460  1.00  0.00     0.217 A 
HETATM    9  N5  UNL     1      12.383  31.156   8.395  1.00  0.00    -0.333 N 
ATOM     10  H5  UNL     1      13.325  30.765   8.395  1.00  0.00     0.168 HD
HETATM   11  C4  UNL     1      11.544  31.159   7.343  1.00  0.00     0.170 A 
HETATM   12  N6  UNL     1      11.558  30.736   6.067  1.00  0.00    -0.172 N 
ATOM     13  H6  UNL     1      12.395  30.273   5.713  1.00  0.00     0.186 HD
ENDROOT
BRANCH   1  14
HETATM   14  N1  UNL     1      10.553  30.477   4.002  1.00  0.00    -0.233 N 
ATOM     15  H12 UNL     1      10.332  31.100   3.225  1.00  0.00     0.174 HD
ATOM     16  H11 UNL     1      10.810  29.516   3.776  1.00  0.00     0.174 HD
ENDBRANCH   1  14
BRANCH   7  17
HETATM   17  O1  UNL     1       9.696  32.796  10.002  1.00  0.00    -0.280 OA
ATOM     18  H1  UNL     1       9.823  33.001  10.921  1.00  0.00     0.245 HD
ENDBRANCH   7  17
TORSDOF 2
ENDMDL
MODEL 2
REMARK VINA RESULT: -5.044519095      1.025      1.025
REMARK  2 active torsions:
REMARK  status: ('A' for Active; 'I' for Inactive)
REMARK    1  A    between atoms: N1_1  and  C1_4 
REMARK    2  A    between atoms: N4_10  and  O1_11 
ROOT
HETATM    1  C1  UNL     1      10.035  31.998   4.951  1.00  0.00     0.692 A 
HETATM    2  N2  UNL     1       9.441  32.945   5.693  1.00  0.00    -0.131 N 
ATOM      3  H2  UNL     1       8.841  33.623   5.222  1.00  0.00     0.205 HD
HETATM    4  N3  UNL     1       9.591  33.046   7.003  1.00  0.00    -0.266 N 
ATOM      5  H3  UNL     1       9.108  33.793   7.502  1.00  0.00     0.189 HD
HETATM    6  C2  UNL     1      10.362  32.192   7.698  1.00  0.00     0.194 A 
HETATM    7  N4  UNL     1      10.697  32.046   8.989  1.00  0.00    -0.198 N 
HETATM    8  C3  UNL     1      11.517  30.991   9.069  1.00  0.00     0.217 A 
HETATM    9  N5  UNL     1      11.717  30.449   7.834  1.00  0.00    -0.333 N 
ATOM     10  H5  UNL     1      12.302  29.637   7.635  1.00  0.00     0.168 HD
HETATM   11  C4  UNL     1      11.024  31.149   6.919  1.00  0.00     0.170 A 
HETATM   12  N6  UNL     1      10.823  31.111   5.590  1.00  0.00    -0.172 N 
ATOM     13  H6  UNL     1      11.284  30.383   5.045  1.00  0.00     0.186 HD
ENDROOT
BRANCH   1  14
HETATM   14  N1  UNL     1       9.860  31.934   3.657  1.00  0.00    -0.233 N 
ATOM     15  H12 UNL     1       9.448  32.713   3.143  1.00  0.00     0.174 HD
ATOM     16  H11 UNL     1      10.129  31.108   3.123  1.00  0.00     0.174 HD
ENDBRANCH   1  14
BRANCH   7  17
HETATM   17  O1  UNL     1      10.313  32.796  10.074  1.00  0.00    -0.280 OA
ATOM     18  H1  UNL     1       9.491  32.782  10.550  1.00  0.00     0.245 HD
ENDBRANCH   7  17
TORSDOF 2
ENDMDL
MODEL 3
REMARK VINA RESULT: -5.027086738      1.317      2.258
REMARK  2 active torsions:
REMARK  status: ('A' for Active; 'I' for Inactive)
REMARK    1  A    between atoms: N1_1  and  C1_4 
REMARK    2  A    between atoms: N4_10  and  O1_11 
ROOT
HETATM    1  C1  UNL     1      10.183  31.396   5.530  1.00  0.00     0.692 A 
HETATM    2  N2  UNL     1      11.206  30.956   6.278  1.00  0.00    -0.131 N 
ATOM      3  H2  UNL     1      11.990  30.503   5.808  1.00  0.00     0.205 HD
HETATM    4  N3  UNL     1      11.251  31.079   7.595  1.00  0.00    -0.266 N 
ATOM      5  H3  UNL     1      12.061  30.718   8.098  1.00  0.00     0.189 HD
HETATM    6  C2  UNL     1      10.260  31.664   8.288  1.00  0.00     0.194 A 
HETATM    7  N4  UNL     1      10.030  31.925   9.585  1.00  0.00    -0.198 N 
HETATM    8  C3  UNL     1       8.843  32.540   9.660  1.00  0.00     0.217 A 
HETATM    9  N5  UNL     1       8.300  32.681   8.418  1.00  0.00    -0.333 N 
ATOM     10  H5  UNL     1       7.401  33.118   8.215  1.00  0.00     0.168 HD
HETATM   11  C4  UNL     1       9.131  32.154   7.502  1.00  0.00     0.170 A 
HETATM   12  N6  UNL     1       9.157  31.992   6.168  1.00  0.00    -0.172 N 
ATOM     13  H6  UNL     1       8.369  32.334   5.617  1.00  0.00     0.186 HD
ENDROOT
BRANCH   1  14
HETATM   14  N1  UNL     1      10.178  31.254   4.229  1.00  0.00    -0.233 N 
ATOM     15  H12 UNL     1       9.869  30.384   3.797  1.00  0.00     0.174 HD
ATOM     16  H11 UNL     1      10.480  32.006   3.610  1.00  0.00     0.174 HD
ENDBRANCH   1  14
BRANCH   7  17
HETATM   17  O1  UNL     1      10.814  31.645  10.676  1.00  0.00    -0.280 OA
ATOM     18  H1  UNL     1      10.555  31.336  11.537  1.00  0.00     0.245 HD
ENDBRANCH   7  17
TORSDOF 2
ENDMDL
MODEL 4
REMARK VINA RESULT: -4.986473101      2.294      4.088
REMARK  2 active torsions:
REMARK  status: ('A' for Active; 'I' for Inactive)
REMARK    1  A    between atoms: N1_1  and  C1_4 
REMARK    2  A    between atoms: N4_10  and  O1_11 
ROOT
HETATM    1  C1  UNL     1      11.136  31.168   9.011  1.00  0.00     0.692 A 
HETATM    2  N2  UNL     1      11.657  30.543   7.944  1.00  0.00    -0.131 N 
ATOM      3  H2  UNL     1      12.339  29.802   8.103  1.00  0.00     0.205 HD
HETATM    4  N3  UNL     1      11.332  30.840   6.696  1.00  0.00    -0.266 N 
ATOM      5  H3  UNL     1      11.770  30.323   5.934  1.00  0.00     0.189 HD
HETATM    6  C2  UNL     1      10.442  31.802   6.403  1.00  0.00     0.194 A 
HETATM    7  N4  UNL     1       9.928  32.311   5.272  1.00  0.00    -0.198 N 
HETATM    8  C3  UNL     1       9.068  33.274   5.627  1.00  0.00     0.217 A 
HETATM    9  N5  UNL     1       9.020  33.393   6.984  1.00  0.00    -0.333 N 
ATOM     10  H5  UNL     1       8.438  34.056   7.497  1.00  0.00     0.168 HD
HETATM   11  C4  UNL     1       9.856  32.501   7.543  1.00  0.00     0.170 A 
HETATM   12  N6  UNL     1      10.236  32.145   8.782  1.00  0.00    -0.172 N 
ATOM     13  H6  UNL     1       9.828  32.632   9.579  1.00  0.00     0.186 HD
ENDROOT
BRANCH   1  14
HETATM   14  N1  UNL     1      11.485  30.845  10.229  1.00  0.00    -0.233 N 
ATOM     15  H12 UNL     1      12.467  30.770  10.492  1.00  0.00     0.174 HD
ATOM     16  H11 UNL     1      10.789  30.658  10.951  1.00  0.00     0.174 HD
ENDBRANCH   1  14
BRANCH   7  17
HETATM   17  O1  UNL     1      10.187  31.963   3.970  1.00  0.00    -0.280 OA
ATOM     18  H1  UNL     1      10.600  32.475   3.284  1.00  0.00     0.245 HD
ENDBRANCH   7  17
TORSDOF 2
ENDMDL
MODEL 5
REMARK VINA RESULT: -4.985471771      1.460      2.745
REMARK  2 active torsions:
REMARK  status: ('A' for Active; 'I' for Inactive)
REMARK    1  A    between atoms: N1_1  and  C1_4 
REMARK    2  A    between atoms: N4_10  and  O1_11 
ROOT
HETATM    1  C1  UNL     1      11.973  30.195   6.326  1.00  0.00     0.692 A 
HETATM    2  N2  UNL     1      11.834  30.410   7.643  1.00  0.00    -0.131 N 
ATOM      3  H2  UNL     1      12.439  29.895   8.283  1.00  0.00     0.205 HD
HETATM    4  N3  UNL     1      10.954  31.256   8.154  1.00  0.00    -0.266 N 
ATOM      5  H3  UNL     1      10.905  31.367   9.167  1.00  0.00     0.189 HD
HETATM    6  C2  UNL     1      10.123  31.972   7.379  1.00  0.00     0.194 A 
HETATM    7  N4  UNL     1       9.158  32.878   7.601  1.00  0.00    -0.198 N 
HETATM    8  C3  UNL     1       8.676  33.243   6.406  1.00  0.00     0.217 A 
HETATM    9  N5  UNL     1       9.324  32.579   5.408  1.00  0.00    -0.333 N 
ATOM     10  H5  UNL     1       9.137  32.686   4.411  1.00  0.00     0.168 HD
HETATM   11  C4  UNL     1      10.249  31.761   5.940  1.00  0.00     0.170 A 
HETATM   12  N6  UNL     1      11.167  30.884   5.495  1.00  0.00    -0.172 N 
ATOM     13  H6  UNL     1      11.256  30.736   4.490  1.00  0.00     0.186 HD
ENDROOT
BRANCH   1  14
HETATM   14  N1  UNL     1      12.856  29.350   5.861  1.00  0.00    -0.233 N 
ATOM     15  H12 UNL     1      13.757  29.672   5.509  1.00  0.00     0.174 HD
ATOM     16  H11 UNL     1      12.672  28.346   5.836  1.00  0.00     0.174 HD
ENDBRANCH   1  14
BRANCH   7  17
HETATM   17  O1  UNL     1       8.699  33.380   8.793  1.00  0.00    -0.280 OA
ATOM     18  H1  UNL     1       7.832  33.317   9.176  1.00  0.00     0.245 HD
ENDBRANCH   7  17
TORSDOF 2
ENDMDL
