MODEL 1
REMARK VINA RESULT: -8.738980082      0.000      0.000
REMARK  2 active torsions:
REMARK  status: ('A' for Active; 'I' for Inactive)
REMARK    1  A    between atoms: C7_8  and  N2_9 
REMARK    2  A    between atoms: N2_9  and  C8_11 
ROOT
HETATM    1  N1  UNL     1      18.020  -4.491  35.424  1.00  0.00    -0.191 NA
HETATM    2  C1  UNL     1      17.610  -5.580  35.561  1.00  0.00     0.102 C 
HETATM    3  C2  UNL     1      17.102  -6.916  35.735  1.00  0.00     0.071 A 
HETATM    4  C3  UNL     1      16.953  -7.683  34.615  1.00  0.00     0.025 A 
HETATM    5  C4  UNL     1      16.471  -8.965  34.746  1.00  0.00     0.002 A 
HETATM    6  C5  UNL     1      16.155  -9.433  35.987  1.00  0.00     0.002 A 
HETATM    7  C6  UNL     1      16.305  -8.660  37.113  1.00  0.00     0.031 A 
HETATM    8  C7  UNL     1      16.794  -7.344  37.034  1.00  0.00     0.053 A 
ENDROOT
BRANCH   8   9
HETATM    9  N2  UNL     1      16.969  -6.522  38.071  1.00  0.00    -0.354 N 
ATOM     10  H2  UNL     1      17.488  -5.751  37.652  1.00  0.00     0.166 HD
BRANCH   9  11
HETATM   11  C8  UNL     1      16.866  -6.172  39.209  1.00  0.00     0.058 A 
HETATM   12  C9  UNL     1      15.763  -5.352  39.552  1.00  0.00     0.018 A 
HETATM   13  C10 UNL     1      14.869  -5.005  38.557  1.00  0.00     0.016 A 
HETATM   14  C14 UNL     1      15.557  -4.899  40.830  1.00  0.00     0.045 A 
HETATM   15  C11 UNL     1      13.800  -4.213  38.882  1.00  0.00     0.001 A 
HETATM   16  C12 UNL     1      13.561  -3.739  40.153  1.00  0.00     0.002 A 
HETATM   17  C13 UNL     1      14.468  -4.103  41.119  1.00  0.00     0.030 A 
HETATM   18  N3  UNL     1      16.422  -5.235  41.800  1.00  0.00    -0.355 N 
HETATM   19  C15 UNL     1      17.481  -6.002  41.543  1.00  0.00     0.045 A 
ATOM     20  H3  UNL     1      16.266  -4.897  42.749  1.00  0.00     0.166 HD
HETATM   21  C16 UNL     1      18.318  -6.297  42.598  1.00  0.00     0.030 A 
HETATM   22  C20 UNL     1      17.715  -6.480  40.246  1.00  0.00     0.018 A 
HETATM   23  C17 UNL     1      19.423  -7.084  42.390  1.00  0.00     0.002 A 
HETATM   24  C18 UNL     1      19.657  -7.551  41.137  1.00  0.00     0.001 A 
HETATM   25  C19 UNL     1      18.818  -7.261  40.055  1.00  0.00     0.016 A 
ENDBRANCH   9  11
ENDBRANCH   8   9
TORSDOF 2
ENDMDL
MODEL 2
REMARK VINA RESULT: -8.723933743      0.240      3.699
REMARK  2 active torsions:
REMARK  status: ('A' for Active; 'I' for Inactive)
REMARK    1  A    between atoms: C7_8  and  N2_9 
REMARK    2  A    between atoms: N2_9  and  C8_11 
ROOT
HETATM    1  N1  UNL     1      18.020  -4.486  35.500  1.00  0.00    -0.191 NA
HETATM    2  C1  UNL     1      17.610  -5.577  35.615  1.00  0.00     0.102 C 
HETATM    3  C2  UNL     1      17.101  -6.917  35.762  1.00  0.00     0.071 A 
HETATM    4  C3  UNL     1      16.972  -7.668  34.628  1.00  0.00     0.025 A 
HETATM    5  C4  UNL     1      16.490  -8.953  34.733  1.00  0.00     0.002 A 
HETATM    6  C5  UNL     1      16.155  -9.439  35.962  1.00  0.00     0.002 A 
HETATM    7  C6  UNL     1      16.286  -8.682  37.101  1.00  0.00     0.031 A 
HETATM    8  C7  UNL     1      16.773  -7.364  37.049  1.00  0.00     0.053 A 
ENDROOT
BRANCH   8   9
HETATM    9  N2  UNL     1      16.929  -6.557  38.101  1.00  0.00    -0.354 N 
ATOM     10  H2  UNL     1      17.806  -6.084  37.883  1.00  0.00     0.166 HD
BRANCH   9  11
HETATM   11  C8  UNL     1      16.632  -6.071  39.151  1.00  0.00     0.058 A 
HETATM   12  C9  UNL     1      17.462  -6.342  40.266  1.00  0.00     0.018 A 
HETATM   13  C10 UNL     1      18.567  -7.150  40.078  1.00  0.00     0.016 A 
HETATM   14  C14 UNL     1      17.205  -5.830  41.511  1.00  0.00     0.045 A 
HETATM   15  C11 UNL     1      19.375  -7.416  41.152  1.00  0.00     0.001 A 
HETATM   16  C12 UNL     1      19.149  -6.921  42.417  1.00  0.00     0.002 A 
HETATM   17  C13 UNL     1      18.042  -6.120  42.569  1.00  0.00     0.030 A 
HETATM   18  N3  UNL     1      16.134  -5.044  41.697  1.00  0.00    -0.355 N 
HETATM   19  C15 UNL     1      15.311  -4.751  40.690  1.00  0.00     0.045 A 
ATOM     20  H3  UNL     1      15.946  -4.664  42.625  1.00  0.00     0.166 HD
HETATM   21  C16 UNL     1      14.235  -3.937  40.971  1.00  0.00     0.030 A 
HETATM   22  C20 UNL     1      15.551  -5.259  39.406  1.00  0.00     0.018 A 
HETATM   23  C17 UNL     1      13.357  -3.602  39.971  1.00  0.00     0.002 A 
HETATM   24  C18 UNL     1      13.581  -4.090  38.724  1.00  0.00     0.001 A 
HETATM   25  C19 UNL     1      14.668  -4.918  38.422  1.00  0.00     0.016 A 
ENDBRANCH   9  11
ENDBRANCH   8   9
TORSDOF 2
ENDMDL
MODEL 3
REMARK VINA RESULT: -8.528440473      4.065      6.317
REMARK  2 active torsions:
REMARK  status: ('A' for Active; 'I' for Inactive)
REMARK    1  A    between atoms: C7_8  and  N2_9 
REMARK    2  A    between atoms: N2_9  and  C8_11 
ROOT
HETATM    1  N1  UNL     1      16.075 -12.947  41.787  1.00  0.00    -0.191 NA
HETATM    2  C1  UNL     1      15.571 -12.028  42.311  1.00  0.00     0.102 C 
HETATM    3  C2  UNL     1      14.956 -10.893  42.949  1.00  0.00     0.071 A 
HETATM    4  C3  UNL     1      13.736 -11.086  43.533  1.00  0.00     0.025 A 
HETATM    5  C4  UNL     1      13.121 -10.022  44.153  1.00  0.00     0.002 A 
HETATM    6  C5  UNL     1      13.742  -8.809  44.165  1.00  0.00     0.002 A 
HETATM    7  C6  UNL     1      14.968  -8.617  43.576  1.00  0.00     0.031 A 
HETATM    8  C7  UNL     1      15.640  -9.670  42.931  1.00  0.00     0.053 A 
ENDROOT
BRANCH   8   9
HETATM    9  N2  UNL     1      16.829  -9.574  42.331  1.00  0.00    -0.354 N 
ATOM     10  H2  UNL     1      16.922 -10.487  41.887  1.00  0.00     0.166 HD
BRANCH   9  11
HETATM   11  C8  UNL     1      17.846  -9.033  42.016  1.00  0.00     0.058 A 
HETATM   12  C9  UNL     1      17.820  -8.180  40.885  1.00  0.00     0.018 A 
HETATM   13  C10 UNL     1      16.624  -8.022  40.211  1.00  0.00     0.016 A 
HETATM   14  C14 UNL     1      18.934  -7.514  40.444  1.00  0.00     0.045 A 
HETATM   15  C11 UNL     1      16.592  -7.200  39.116  1.00  0.00     0.001 A 
HETATM   16  C12 UNL     1      17.689  -6.515  38.645  1.00  0.00     0.002 A 
HETATM   17  C13 UNL     1      18.863  -6.694  39.338  1.00  0.00     0.030 A 
HETATM   18  N3  UNL     1      20.098  -7.664  41.096  1.00  0.00    -0.355 N 
HETATM   19  C15 UNL     1      20.190  -8.452  42.167  1.00  0.00     0.045 A 
ATOM     20  H3  UNL     1      20.925  -7.167  40.767  1.00  0.00     0.166 HD
HETATM   21  C16 UNL     1      21.423  -8.549  42.775  1.00  0.00     0.030 A 
HETATM   22  C20 UNL     1      19.067  -9.144  42.640  1.00  0.00     0.018 A 
HETATM   23  C17 UNL     1      21.576  -9.345  43.883  1.00  0.00     0.002 A 
HETATM   24  C18 UNL     1      20.493 -10.019  44.347  1.00  0.00     0.001 A 
HETATM   25  C19 UNL     1      19.234  -9.933  43.741  1.00  0.00     0.016 A 
ENDBRANCH   9  11
ENDBRANCH   8   9
TORSDOF 2
ENDMDL
MODEL 4
REMARK VINA RESULT: -8.520004119      2.676      4.304
REMARK  2 active torsions:
REMARK  status: ('A' for Active; 'I' for Inactive)
REMARK    1  A    between atoms: C7_8  and  N2_9 
REMARK    2  A    between atoms: N2_9  and  C8_11 
ROOT
HETATM    1  N1  UNL     1      16.487  -4.763  40.639  1.00  0.00    -0.191 NA
HETATM    2  C1  UNL     1      16.514  -5.465  39.701  1.00  0.00     0.102 C 
HETATM    3  C2  UNL     1      16.545  -6.333  38.553  1.00  0.00     0.071 A 
HETATM    4  C3  UNL     1      16.292  -5.772  37.333  1.00  0.00     0.025 A 
HETATM    5  C4  UNL     1      16.315  -6.574  36.215  1.00  0.00     0.002 A 
HETATM    6  C5  UNL     1      16.588  -7.902  36.354  1.00  0.00     0.002 A 
HETATM    7  C6  UNL     1      16.843  -8.464  37.581  1.00  0.00     0.031 A 
HETATM    8  C7  UNL     1      16.832  -7.690  38.755  1.00  0.00     0.053 A 
ENDROOT
BRANCH   8   9
HETATM    9  N2  UNL     1      17.064  -8.151  39.986  1.00  0.00    -0.354 N 
ATOM     10  H2  UNL     1      16.137  -8.456  40.282  1.00  0.00     0.166 HD
BRANCH   9  11
HETATM   11  C8  UNL     1      17.734  -8.412  40.940  1.00  0.00     0.058 A 
HETATM   12  C9  UNL     1      17.156  -9.212  41.957  1.00  0.00     0.018 A 
HETATM   13  C10 UNL     1      15.854  -9.646  41.789  1.00  0.00     0.016 A 
HETATM   14  C14 UNL     1      17.843  -9.566  43.089  1.00  0.00     0.045 A 
HETATM   15  C11 UNL     1      15.290 -10.420  42.768  1.00  0.00     0.001 A 
HETATM   16  C12 UNL     1      15.948 -10.795  43.918  1.00  0.00     0.002 A 
HETATM   17  C13 UNL     1      17.241 -10.348  44.053  1.00  0.00     0.030 A 
HETATM   18  N3  UNL     1      19.107  -9.148  43.255  1.00  0.00    -0.355 N 
HETATM   19  C15 UNL     1      19.709  -8.392  42.337  1.00  0.00     0.045 A 
ATOM     20  H3  UNL     1      19.616  -9.414  44.098  1.00  0.00     0.166 HD
HETATM   21  C16 UNL     1      21.008  -8.007  42.590  1.00  0.00     0.030 A 
HETATM   22  C20 UNL     1      19.031  -8.016  41.170  1.00  0.00     0.018 A 
HETATM   23  C17 UNL     1      21.677  -7.229  41.678  1.00  0.00     0.002 A 
HETATM   24  C18 UNL     1      21.027  -6.860  40.544  1.00  0.00     0.001 A 
HETATM   25  C19 UNL     1      19.708  -7.242  40.273  1.00  0.00     0.016 A 
ENDBRANCH   9  11
ENDBRANCH   8   9
TORSDOF 2
ENDMDL
MODEL 5
REMARK VINA RESULT: -8.465189991      4.063      7.186
REMARK  2 active torsions:
REMARK  status: ('A' for Active; 'I' for Inactive)
REMARK    1  A    between atoms: C7_8  and  N2_9 
REMARK    2  A    between atoms: N2_9  and  C8_11 
ROOT
HETATM    1  N1  UNL     1      16.111 -12.888  41.911  1.00  0.00    -0.191 NA
HETATM    2  C1  UNL     1      15.573 -11.977  42.414  1.00  0.00     0.102 C 
HETATM    3  C2  UNL     1      14.916 -10.852  43.027  1.00  0.00     0.071 A 
HETATM    4  C3  UNL     1      13.678 -11.064  43.564  1.00  0.00     0.025 A 
HETATM    5  C4  UNL     1      13.022 -10.011  44.159  1.00  0.00     0.002 A 
HETATM    6  C5  UNL     1      13.623  -8.788  44.195  1.00  0.00     0.002 A 
HETATM    7  C6  UNL     1      14.868  -8.576  43.654  1.00  0.00     0.031 A 
HETATM    8  C7  UNL     1      15.581  -9.618  43.036  1.00  0.00     0.053 A 
ENDROOT
BRANCH   8   9
HETATM    9  N2  UNL     1      16.790  -9.504  42.482  1.00  0.00    -0.354 N 
ATOM     10  H2  UNL     1      17.103 -10.473  42.439  1.00  0.00     0.166 HD
BRANCH   9  11
HETATM   11  C8  UNL     1      17.717  -8.917  42.008  1.00  0.00     0.058 A 
HETATM   12  C9  UNL     1      18.980  -9.058  42.633  1.00  0.00     0.018 A 
HETATM   13  C10 UNL     1      19.071  -9.863  43.752  1.00  0.00     0.016 A 
HETATM   14  C14 UNL     1      20.103  -8.426  42.165  1.00  0.00     0.045 A 
HETATM   15  C11 UNL     1      20.290 -10.004  44.361  1.00  0.00     0.001 A 
HETATM   16  C12 UNL     1      21.439  -9.386  43.921  1.00  0.00     0.002 A 
HETATM   17  C13 UNL     1      21.314  -8.592  42.805  1.00  0.00     0.030 A 
HETATM   18  N3  UNL     1      20.019  -7.643  41.078  1.00  0.00    -0.355 N 
HETATM   19  C15 UNL     1      18.860  -7.468  40.443  1.00  0.00     0.045 A 
ATOM     20  H3  UNL     1      20.856  -7.176  40.731  1.00  0.00     0.166 HD
HETATM   21  C16 UNL     1      18.865  -6.647  39.336  1.00  0.00     0.030 A 
HETATM   22  C20 UNL     1      17.697  -8.102  40.900  1.00  0.00     0.018 A 
HETATM   23  C17 UNL     1      17.699  -6.432  38.644  1.00  0.00     0.002 A 
HETATM   24  C18 UNL     1      16.567  -7.043  39.079  1.00  0.00     0.001 A 
HETATM   25  C19 UNL     1      16.545  -7.878  40.202  1.00  0.00     0.016 A 
ENDBRANCH   9  11
ENDBRANCH   8   9
TORSDOF 2
ENDMDL
