MODEL 1
REMARK VINA RESULT: -8.945813229      0.000      0.000
REMARK  1 active torsions:
REMARK  status: ('A' for Active; 'I' for Inactive)
REMARK    1  A    between atoms: O1_1  and  C1_3 
ROOT
HETATM    1  C1  UNL     1      15.429 -12.216  42.242  1.00  0.00     0.066 A 
HETATM    2  C2  UNL     1      14.442 -11.546  42.930  1.00  0.00     0.037 A 
HETATM    3  C3  UNL     1      14.557 -10.228  43.292  1.00  0.00     0.016 A 
HETATM    4  C4  UNL     1      15.688  -9.538  42.967  1.00  0.00    -0.007 A 
HETATM    5  C5  UNL     1      15.628  -8.192  43.368  1.00  0.00     0.109 C 
HETATM    6  N1  UNL     1      16.226  -7.197  42.654  1.00  0.00    -0.331 N 
HETATM    7  C6  UNL     1      15.705  -5.968  42.509  1.00  0.00     0.097 A 
HETATM    8  C7  UNL     1      16.520  -5.246  41.666  1.00  0.00     0.020 A 
HETATM    9  C8  UNL     1      17.606  -6.023  41.248  1.00  0.00     0.032 A 
HETATM   10  C9  UNL     1      17.421  -7.232  41.868  1.00  0.00     0.051 A 
HETATM   11  C10 UNL     1      18.251  -8.311  41.779  1.00  0.00     0.031 A 
HETATM   12  C11 UNL     1      19.582  -8.217  41.498  1.00  0.00     0.005 A 
HETATM   13  C12 UNL     1      20.446  -7.187  41.295  1.00  0.00     0.014 A 
HETATM   14  C13 UNL     1      21.786  -7.481  41.047  1.00  0.00     0.001 A 
HETATM   15  C14 UNL     1      22.248  -8.763  41.007  1.00  0.00     0.002 A 
HETATM   16  C15 UNL     1      21.364  -9.815  41.219  1.00  0.00     0.030 A 
HETATM   17  C16 UNL     1      20.043  -9.517  41.462  1.00  0.00     0.043 A 
HETATM   18  N2  UNL     1      19.032 -10.395  41.719  1.00  0.00    -0.354 N 
ATOM     19  H2  UNL     1      19.099 -11.412  41.755  1.00  0.00     0.166 HD
HETATM   20  C17 UNL     1      17.948  -9.663  41.914  1.00  0.00     0.057 A 
HETATM   21  C18 UNL     1      16.703 -10.197  42.272  1.00  0.00     0.006 A 
HETATM   22  C19 UNL     1      16.593 -11.526  41.902  1.00  0.00     0.051 A 
ENDROOT
BRANCH   1  23
HETATM   23  O1  UNL     1      15.266 -13.543  41.898  1.00  0.00    -0.361 OA
ATOM     24  H1  UNL     1      15.896 -13.975  41.332  1.00  0.00     0.217 HD
ENDBRANCH   1  23
TORSDOF 1
ENDMDL
MODEL 2
REMARK VINA RESULT: -8.653894019      1.985      5.175
REMARK  1 active torsions:
REMARK  status: ('A' for Active; 'I' for Inactive)
REMARK    1  A    between atoms: O1_1  and  C1_3 
ROOT
HETATM    1  C1  UNL     1      21.857  -9.841  40.816  1.00  0.00     0.066 A 
HETATM    2  C2  UNL     1      22.059  -8.548  40.387  1.00  0.00     0.037 A 
HETATM    3  C3  UNL     1      21.057  -7.612  40.363  1.00  0.00     0.016 A 
HETATM    4  C4  UNL     1      19.804  -7.957  40.779  1.00  0.00    -0.007 A 
HETATM    5  C5  UNL     1      18.909  -6.874  40.737  1.00  0.00     0.109 C 
HETATM    6  N1  UNL     1      17.898  -6.737  41.639  1.00  0.00    -0.331 N 
HETATM    7  C6  UNL     1      17.488  -5.553  42.124  1.00  0.00     0.097 A 
HETATM    8  C7  UNL     1      16.512  -5.784  43.067  1.00  0.00     0.020 A 
HETATM    9  C8  UNL     1      16.274  -7.156  43.203  1.00  0.00     0.032 A 
HETATM   10  C9  UNL     1      17.134  -7.743  42.311  1.00  0.00     0.051 A 
HETATM   11  C10 UNL     1      17.244  -9.081  42.069  1.00  0.00     0.031 A 
HETATM   12  C11 UNL     1      16.232  -9.970  42.277  1.00  0.00     0.005 A 
HETATM   13  C12 UNL     1      14.937  -9.868  42.678  1.00  0.00     0.014 A 
HETATM   14  C13 UNL     1      14.170 -11.030  42.755  1.00  0.00     0.001 A 
HETATM   15  C14 UNL     1      14.682 -12.255  42.439  1.00  0.00     0.002 A 
HETATM   16  C15 UNL     1      16.005 -12.357  42.026  1.00  0.00     0.030 A 
HETATM   17  C16 UNL     1      16.755 -11.206  41.953  1.00  0.00     0.043 A 
HETATM   18  N2  UNL     1      18.052 -11.089  41.548  1.00  0.00    -0.354 N 
ATOM     19  H2  UNL     1      18.670 -11.844  41.251  1.00  0.00     0.166 HD
HETATM   20  C17 UNL     1      18.346  -9.801  41.616  1.00  0.00     0.057 A 
HETATM   21  C18 UNL     1      19.575  -9.262  41.216  1.00  0.00     0.006 A 
HETATM   22  C19 UNL     1      20.582 -10.212  41.243  1.00  0.00     0.051 A 
ENDROOT
BRANCH   1  23
HETATM   23  O1  UNL     1      22.897 -10.748  40.823  1.00  0.00    -0.361 OA
ATOM     24  H1  UNL     1      22.723 -11.682  40.822  1.00  0.00     0.217 HD
ENDBRANCH   1  23
TORSDOF 1
ENDMDL
MODEL 3
REMARK VINA RESULT: -8.479770816      2.946      4.463
REMARK  1 active torsions:
REMARK  status: ('A' for Active; 'I' for Inactive)
REMARK    1  A    between atoms: O1_1  and  C1_3 
ROOT
HETATM    1  C1  UNL     1      17.927  -6.638  38.891  1.00  0.00     0.066 A 
HETATM    2  C2  UNL     1      16.766  -7.366  38.756  1.00  0.00     0.037 A 
HETATM    3  C3  UNL     1      16.480  -8.455  39.541  1.00  0.00     0.016 A 
HETATM    4  C4  UNL     1      17.370  -8.846  40.498  1.00  0.00    -0.007 A 
HETATM    5  C5  UNL     1      16.907  -9.944  41.243  1.00  0.00     0.109 C 
HETATM    6  N1  UNL     1      17.211 -10.104  42.561  1.00  0.00    -0.331 N 
HETATM    7  C6  UNL     1      16.358 -10.614  43.465  1.00  0.00     0.097 A 
HETATM    8  C7  UNL     1      16.954 -10.555  44.706  1.00  0.00     0.020 A 
HETATM    9  C8  UNL     1      18.232  -9.994  44.612  1.00  0.00     0.032 A 
HETATM   10  C9  UNL     1      18.388  -9.719  43.277  1.00  0.00     0.051 A 
HETATM   11  C10 UNL     1      19.500  -9.181  42.697  1.00  0.00     0.031 A 
HETATM   12  C11 UNL     1      20.753  -9.295  43.221  1.00  0.00     0.005 A 
HETATM   13  C12 UNL     1      21.285  -9.927  44.301  1.00  0.00     0.014 A 
HETATM   14  C13 UNL     1      22.660  -9.837  44.515  1.00  0.00     0.001 A 
HETATM   15  C14 UNL     1      23.477  -9.140  43.675  1.00  0.00     0.002 A 
HETATM   16  C15 UNL     1      22.933  -8.497  42.569  1.00  0.00     0.030 A 
HETATM   17  C16 UNL     1      21.575  -8.590  42.365  1.00  0.00     0.043 A 
HETATM   18  N2  UNL     1      20.857  -8.059  41.335  1.00  0.00    -0.354 N 
ATOM     19  H2  UNL     1      21.217  -7.497  40.563  1.00  0.00     0.166 HD
HETATM   20  C17 UNL     1      19.600  -8.420  41.536  1.00  0.00     0.057 A 
HETATM   21  C18 UNL     1      18.555  -8.125  40.651  1.00  0.00     0.006 A 
HETATM   22  C19 UNL     1      18.849  -7.024  39.864  1.00  0.00     0.051 A 
ENDROOT
BRANCH   1  23
HETATM   23  O1  UNL     1      18.170  -5.549  38.078  1.00  0.00    -0.361 OA
ATOM     24  H1  UNL     1      17.449  -5.037  37.730  1.00  0.00     0.217 HD
ENDBRANCH   1  23
TORSDOF 1
ENDMDL
MODEL 4
REMARK VINA RESULT: -8.410838798      3.816      7.421
REMARK  1 active torsions:
REMARK  status: ('A' for Active; 'I' for Inactive)
REMARK    1  A    between atoms: O1_1  and  C1_3 
ROOT
HETATM    1  C1  UNL     1      24.919  -5.973  42.809  1.00  0.00     0.066 A 
HETATM    2  C2  UNL     1      25.668  -7.101  43.058  1.00  0.00     0.037 A 
HETATM    3  C3  UNL     1      25.112  -8.352  43.153  1.00  0.00     0.016 A 
HETATM    4  C4  UNL     1      23.765  -8.503  42.995  1.00  0.00    -0.007 A 
HETATM    5  C5  UNL     1      23.365  -9.848  43.075  1.00  0.00     0.109 C 
HETATM    6  N1  UNL     1      22.320 -10.336  42.349  1.00  0.00    -0.331 N 
HETATM    7  C6  UNL     1      22.293 -11.570  41.819  1.00  0.00     0.097 A 
HETATM    8  C7  UNL     1      21.135 -11.702  41.085  1.00  0.00     0.020 A 
HETATM    9  C8  UNL     1      20.382 -10.524  41.137  1.00  0.00     0.032 A 
HETATM   10  C9  UNL     1      21.120  -9.680  41.927  1.00  0.00     0.051 A 
HETATM   11  C10 UNL     1      20.770  -8.412  42.287  1.00  0.00     0.031 A 
HETATM   12  C11 UNL     1      19.480  -7.975  42.349  1.00  0.00     0.005 A 
HETATM   13  C12 UNL     1      18.264  -8.555  42.166  1.00  0.00     0.014 A 
HETATM   14  C13 UNL     1      17.121  -7.777  42.344  1.00  0.00     0.001 A 
HETATM   15  C14 UNL     1      17.192  -6.461  42.696  1.00  0.00     0.002 A 
HETATM   16  C15 UNL     1      18.436  -5.870  42.887  1.00  0.00     0.030 A 
HETATM   17  C16 UNL     1      19.559  -6.645  42.709  1.00  0.00     0.043 A 
HETATM   18  N2  UNL     1      20.858  -6.266  42.872  1.00  0.00    -0.354 N 
ATOM     19  H2  UNL     1      21.197  -5.341  43.137  1.00  0.00     0.166 HD
HETATM   20  C17 UNL     1      21.591  -7.337  42.619  1.00  0.00     0.057 A 
HETATM   21  C18 UNL     1      22.986  -7.374  42.744  1.00  0.00     0.006 A 
HETATM   22  C19 UNL     1      23.540  -6.109  42.646  1.00  0.00     0.051 A 
ENDROOT
BRANCH   1  23
HETATM   23  O1  UNL     1      25.523  -4.736  42.721  1.00  0.00    -0.361 OA
ATOM     24  H1  UNL     1      25.113  -3.970  43.107  1.00  0.00     0.217 HD
ENDBRANCH   1  23
TORSDOF 1
ENDMDL
MODEL 5
REMARK VINA RESULT: -8.398143429      3.161      4.600
REMARK  1 active torsions:
REMARK  status: ('A' for Active; 'I' for Inactive)
REMARK    1  A    between atoms: O1_1  and  C1_3 
ROOT
HETATM    1  C1  UNL     1      17.518  -6.476  38.291  1.00  0.00     0.066 A 
HETATM    2  C2  UNL     1      16.547  -7.406  38.591  1.00  0.00     0.037 A 
HETATM    3  C3  UNL     1      16.705  -8.349  39.575  1.00  0.00     0.016 A 
HETATM    4  C4  UNL     1      17.863  -8.381  40.296  1.00  0.00    -0.007 A 
HETATM    5  C5  UNL     1      17.846  -9.373  41.292  1.00  0.00     0.109 C 
HETATM    6  N1  UNL     1      18.486  -9.211  42.484  1.00  0.00    -0.331 N 
HETATM    7  C6  UNL     1      18.010  -9.670  43.653  1.00  0.00     0.097 A 
HETATM    8  C7  UNL     1      18.860  -9.264  44.658  1.00  0.00     0.020 A 
HETATM    9  C8  UNL     1      19.922  -8.520  44.133  1.00  0.00     0.032 A 
HETATM   10  C9  UNL     1      19.688  -8.494  42.782  1.00  0.00     0.051 A 
HETATM   11  C10 UNL     1      20.480  -7.899  41.845  1.00  0.00     0.031 A 
HETATM   12  C11 UNL     1      21.816  -7.687  42.013  1.00  0.00     0.005 A 
HETATM   13  C12 UNL     1      22.719  -7.990  42.984  1.00  0.00     0.014 A 
HETATM   14  C13 UNL     1      24.050  -7.623  42.794  1.00  0.00     0.001 A 
HETATM   15  C14 UNL     1      24.467  -6.976  41.668  1.00  0.00     0.002 A 
HETATM   16  C15 UNL     1      23.545  -6.671  40.674  1.00  0.00     0.030 A 
HETATM   17  C16 UNL     1      22.233  -7.035  40.869  1.00  0.00     0.043 A 
HETATM   18  N2  UNL     1      21.188  -6.853  40.011  1.00  0.00    -0.354 N 
ATOM     19  H2  UNL     1      21.219  -6.402  39.097  1.00  0.00     0.166 HD
HETATM   20  C17 UNL     1      20.128  -7.378  40.602  1.00  0.00     0.057 A 
HETATM   21  C18 UNL     1      18.862  -7.450  40.008  1.00  0.00     0.006 A 
HETATM   22  C19 UNL     1      18.708  -6.495  39.018  1.00  0.00     0.051 A 
ENDROOT
BRANCH   1  23
HETATM   23  O1  UNL     1      17.312  -5.545  37.293  1.00  0.00    -0.361 OA
ATOM     24  H1  UNL     1      17.940  -4.848  37.148  1.00  0.00     0.217 HD
ENDBRANCH   1  23
TORSDOF 1
ENDMDL
