MODEL 1
REMARK VINA RESULT: -5.003124368      0.000      0.000
REMARK  12 active torsions:
REMARK  status: ('A' for Active; 'I' for Inactive)
REMARK       I    between atoms: C1_4  and  N3_6 
REMARK    1  A    between atoms: N3_6  and  C2_8 
REMARK    2  A    between atoms: C2_8  and  O1_9 
REMARK    3  A    between atoms: C2_8  and  C3_11 
REMARK    4  A    between atoms: C3_11  and  O2_12 
REMARK    5  A    between atoms: O2_12  and  C4_13 
REMARK    6  A    between atoms: C5_16  and  N5_17 
REMARK    7  A    between atoms: N7_23  and  C7_25 
REMARK    8  A    between atoms: C7_25  and  C8_26 
REMARK    9  A    between atoms: C8_26  and  O3_27 
REMARK   10  A    between atoms: C9_29  and  C10_30 
REMARK   11  A    between atoms: C10_30  and  N8_31 
REMARK   12  A    between atoms: C13_36  and  N10_37 
ROOT
HETATM    1  C4  UNL     1      55.135   9.217  27.888  1.00  0.00     0.173 A 
HETATM    2  N4  UNL     1      53.758   9.147  28.019  1.00  0.00    -0.170 N 
ATOM      3  H4  UNL     1      53.245   9.946  28.393  1.00  0.00     0.186 HD
HETATM    4  C5  UNL     1      53.096   8.048  27.662  1.00  0.00     0.679 A 
HETATM    5  N6  UNL     1      53.744   6.988  27.170  1.00  0.00    -0.176 N 
ATOM      6  H6  UNL     1      53.221   6.154  26.902  1.00  0.00     0.186 HD
HETATM    7  C6  UNL     1      55.063   7.013  27.029  1.00  0.00     0.133 A 
HETATM    8  N7  UNL     1      55.688   5.986  26.566  1.00  0.00    -0.373 N 
ATOM      9  H7  UNL     1      56.701   6.047  26.472  1.00  0.00     0.161 HD
HETATM   10  C9  UNL     1      55.827   8.147  27.387  1.00  0.00     0.076 A 
ENDROOT
BRANCH  10  11
HETATM   11  C10 UNL     1      57.259   8.079  27.194  1.00  0.00     0.119 C 
BRANCH  11  12
HETATM   12  N8  UNL     1      58.133   8.244  28.308  1.00  0.00    -0.301 N 
HETATM   13  C11 UNL     1      57.863   7.938  29.609  1.00  0.00     0.190 A 
HETATM   14  N9  UNL     1      58.935   8.191  30.361  1.00  0.00    -0.346 N 
HETATM   15  C12 UNL     1      59.905   8.657  29.580  1.00  0.00     0.122 A 
ATOM     16  H9  UNL     1      58.999   8.049  31.368  1.00  0.00     0.167 HD
HETATM   17  C13 UNL     1      61.199   9.099  29.782  1.00  0.00     0.131 A 
HETATM   18  C15 UNL     1      59.395   8.690  28.286  1.00  0.00     0.144 A 
HETATM   19  N11 UNL     1      61.982   9.556  28.805  1.00  0.00    -0.337 N 
HETATM   20  C14 UNL     1      61.486   9.588  27.556  1.00  0.00     0.183 A 
ATOM     21  H11 UNL     1      62.932   9.873  29.001  1.00  0.00     0.168 HD
HETATM   22  N12 UNL     1      60.239   9.162  27.354  1.00  0.00    -0.336 N 
ATOM     23  H12 UNL     1      59.890   9.200  26.396  1.00  0.00     0.168 HD
BRANCH  17  24
HETATM   24  N10 UNL     1      61.667   9.065  30.987  1.00  0.00    -0.383 N 
ATOM     25 2H10 UNL     1      61.525   9.875  31.590  1.00  0.00     0.157 HD
ATOM     26 1H10 UNL     1      62.159   8.221  31.282  1.00  0.00     0.157 HD
ENDBRANCH  17  24
ENDBRANCH  11  12
ENDBRANCH  10  11
BRANCH   1  27
HETATM   27  O2  UNL     1      55.784  10.326  28.255  1.00  0.00    -0.330 OA
BRANCH  27  28
HETATM   28  C3  UNL     1      56.198  11.083  29.267  1.00  0.00     0.231 C 
BRANCH  28  29
HETATM   29  C2  UNL     1      57.462  11.868  29.207  1.00  0.00     0.244 C 
BRANCH  29  30
HETATM   30  N3  UNL     1      58.278  11.723  30.410  1.00  0.00    -0.337 N 
HETATM   31  C1  UNL     1      58.495  12.829  31.256  1.00  0.00     0.183 C 
HETATM   32  N1  UNL     1      58.041  12.838  32.469  1.00  0.00    -0.374 N 
HETATM   33  N2  UNL     1      59.220  13.959  30.792  1.00  0.00    -0.064 NA
ATOM     34  H12 UNL     1      58.198  13.638  33.081  1.00  0.00     0.158 HD
ATOM     35  H11 UNL     1      57.521  12.026  32.802  1.00  0.00     0.158 HD
ATOM     36  H3  UNL     1      58.692  10.819  30.638  1.00  0.00     0.164 HD
ENDBRANCH  29  30
BRANCH  29  37
HETATM   37  O1  UNL     1      58.180  11.808  28.037  1.00  0.00    -0.375 OA
ATOM     38  H1  UNL     1      57.656  11.593  27.275  1.00  0.00     0.212 HD
ENDBRANCH  29  37
ENDBRANCH  28  29
ENDBRANCH  27  28
ENDBRANCH   1  27
BRANCH   8  39
HETATM   39  C7  UNL     1      55.050   4.762  26.174  1.00  0.00     0.147 C 
BRANCH  39  40
HETATM   40  C8  UNL     1      55.930   4.016  25.173  1.00  0.00     0.183 C 
BRANCH  40  41
HETATM   41  O3  UNL     1      57.254   4.312  25.476  1.00  0.00    -0.399 OA
ATOM     42  H3  UNL     1      57.744   3.499  25.445  1.00  0.00     0.209 HD
ENDBRANCH  40  41
ENDBRANCH  39  40
ENDBRANCH   8  39
BRANCH   4  43
HETATM   43  N5  UNL     1      51.808   8.064  27.816  1.00  0.00    -0.234 N 
ATOM     44  H52 UNL     1      51.163   7.895  27.043  1.00  0.00     0.174 HD
ATOM     45  H51 UNL     1      51.459   8.255  28.755  1.00  0.00     0.174 HD
ENDBRANCH   4  43
TORSDOF 12
ENDMDL
MODEL 2
REMARK VINA RESULT: -4.502398012      1.731      2.309
REMARK  12 active torsions:
REMARK  status: ('A' for Active; 'I' for Inactive)
REMARK       I    between atoms: C1_4  and  N3_6 
REMARK    1  A    between atoms: N3_6  and  C2_8 
REMARK    2  A    between atoms: C2_8  and  O1_9 
REMARK    3  A    between atoms: C2_8  and  C3_11 
REMARK    4  A    between atoms: C3_11  and  O2_12 
REMARK    5  A    between atoms: O2_12  and  C4_13 
REMARK    6  A    between atoms: C5_16  and  N5_17 
REMARK    7  A    between atoms: N7_23  and  C7_25 
REMARK    8  A    between atoms: C7_25  and  C8_26 
REMARK    9  A    between atoms: C8_26  and  O3_27 
REMARK   10  A    between atoms: C9_29  and  C10_30 
REMARK   11  A    between atoms: C10_30  and  N8_31 
REMARK   12  A    between atoms: C13_36  and  N10_37 
ROOT
HETATM    1  C4  UNL     1      54.791   9.314  27.775  1.00  0.00     0.173 A 
HETATM    2  N4  UNL     1      53.428   9.111  27.914  1.00  0.00    -0.170 N 
ATOM      3  H4  UNL     1      52.830   9.881  28.214  1.00  0.00     0.186 HD
HETATM    4  C5  UNL     1      52.889   7.920  27.659  1.00  0.00     0.679 A 
HETATM    5  N6  UNL     1      53.649   6.894  27.266  1.00  0.00    -0.176 N 
ATOM      6  H6  UNL     1      53.219   5.989  27.076  1.00  0.00     0.186 HD
HETATM    7  C6  UNL     1      54.959   7.046  27.121  1.00  0.00     0.133 A 
HETATM    8  N7  UNL     1      55.692   6.053  26.752  1.00  0.00    -0.373 N 
ATOM      9  H7  UNL     1      56.694   6.212  26.651  1.00  0.00     0.161 HD
HETATM   10  C9  UNL     1      55.596   8.283  27.372  1.00  0.00     0.076 A 
ENDROOT
BRANCH  10  11
HETATM   11  C10 UNL     1      57.028   8.349  27.183  1.00  0.00     0.119 C 
BRANCH  11  12
HETATM   12  N8  UNL     1      57.890   8.422  28.317  1.00  0.00    -0.301 N 
HETATM   13  C11 UNL     1      57.554   8.170  29.614  1.00  0.00     0.190 A 
HETATM   14  N9  UNL     1      58.631   8.300  30.390  1.00  0.00    -0.346 N 
HETATM   15  C12 UNL     1      59.669   8.632  29.628  1.00  0.00     0.122 A 
ATOM     16  H9  UNL     1      58.654   8.166  31.400  1.00  0.00     0.167 HD
HETATM   17  C13 UNL     1      61.003   8.915  29.857  1.00  0.00     0.131 A 
HETATM   18  C15 UNL     1      59.198   8.709  28.321  1.00  0.00     0.144 A 
HETATM   19  N11 UNL     1      61.858   9.259  28.895  1.00  0.00    -0.337 N 
HETATM   20  C14 UNL     1      61.399   9.334  27.634  1.00  0.00     0.183 A 
ATOM     21  H11 UNL     1      62.835   9.460  29.111  1.00  0.00     0.168 HD
HETATM   22  N12 UNL     1      60.114   9.061  27.405  1.00  0.00    -0.336 N 
ATOM     23  H12 UNL     1      59.795   9.127  26.439  1.00  0.00     0.168 HD
BRANCH  17  24
HETATM   24  N10 UNL     1      61.434   8.842  31.073  1.00  0.00    -0.383 N 
ATOM     25 2H10 UNL     1      61.015   9.447  31.779  1.00  0.00     0.157 HD
ATOM     26 1H10 UNL     1      62.179   8.174  31.274  1.00  0.00     0.157 HD
ENDBRANCH  17  24
ENDBRANCH  11  12
ENDBRANCH  10  11
BRANCH   1  27
HETATM   27  O2  UNL     1      55.316  10.514  28.037  1.00  0.00    -0.330 OA
BRANCH  27  28
HETATM   28  C3  UNL     1      56.332  11.185  28.572  1.00  0.00     0.231 C 
BRANCH  28  29
HETATM   29  C2  UNL     1      56.871  12.431  27.962  1.00  0.00     0.244 C 
BRANCH  29  30
HETATM   30  N3  UNL     1      55.822  13.337  27.501  1.00  0.00    -0.337 N 
HETATM   31  C1  UNL     1      55.308  13.219  26.194  1.00  0.00     0.183 C 
HETATM   32  N1  UNL     1      54.072  12.886  25.992  1.00  0.00    -0.374 N 
HETATM   33  N2  UNL     1      56.139  13.465  25.068  1.00  0.00    -0.064 NA
ATOM     34  H12 UNL     1      53.701  12.801  25.046  1.00  0.00     0.158 HD
ATOM     35  H11 UNL     1      53.476  12.709  26.800  1.00  0.00     0.158 HD
ATOM     36  H3  UNL     1      55.460  14.057  28.127  1.00  0.00     0.164 HD
ENDBRANCH  29  30
BRANCH  29  37
HETATM   37  O1  UNL     1      57.896  13.060  28.626  1.00  0.00    -0.375 OA
ATOM     38  H1  UNL     1      57.967  12.818  29.541  1.00  0.00     0.212 HD
ENDBRANCH  29  37
ENDBRANCH  28  29
ENDBRANCH  27  28
ENDBRANCH   1  27
BRANCH   8  39
HETATM   39  C7  UNL     1      55.191   4.738  26.474  1.00  0.00     0.147 C 
BRANCH  39  40
HETATM   40  C8  UNL     1      55.863   4.180  25.222  1.00  0.00     0.183 C 
BRANCH  40  41
HETATM   41  O3  UNL     1      57.238   4.238  25.422  1.00  0.00    -0.399 OA
ATOM     42  H3  UNL     1      57.537   3.358  25.618  1.00  0.00     0.209 HD
ENDBRANCH  40  41
ENDBRANCH  39  40
ENDBRANCH   8  39
BRANCH   4  43
HETATM   43  N5  UNL     1      51.605   7.813  27.814  1.00  0.00    -0.234 N 
ATOM     44  H52 UNL     1      51.020   8.603  28.088  1.00  0.00     0.174 HD
ATOM     45  H51 UNL     1      51.196   6.893  27.647  1.00  0.00     0.174 HD
ENDBRANCH   4  43
TORSDOF 12
ENDMDL
MODEL 3
REMARK VINA RESULT: -4.483318242      2.520      5.327
REMARK  12 active torsions:
REMARK  status: ('A' for Active; 'I' for Inactive)
REMARK       I    between atoms: C1_4  and  N3_6 
REMARK    1  A    between atoms: N3_6  and  C2_8 
REMARK    2  A    between atoms: C2_8  and  O1_9 
REMARK    3  A    between atoms: C2_8  and  C3_11 
REMARK    4  A    between atoms: C3_11  and  O2_12 
REMARK    5  A    between atoms: O2_12  and  C4_13 
REMARK    6  A    between atoms: C5_16  and  N5_17 
REMARK    7  A    between atoms: N7_23  and  C7_25 
REMARK    8  A    between atoms: C7_25  and  C8_26 
REMARK    9  A    between atoms: C8_26  and  O3_27 
REMARK   10  A    between atoms: C9_29  and  C10_30 
REMARK   11  A    between atoms: C10_30  and  N8_31 
REMARK   12  A    between atoms: C13_36  and  N10_37 
ROOT
HETATM    1  C4  UNL     1      58.640  10.225  29.638  1.00  0.00     0.173 A 
HETATM    2  N4  UNL     1      59.916   9.908  29.204  1.00  0.00    -0.170 N 
ATOM      3  H4  UNL     1      60.712  10.453  29.534  1.00  0.00     0.186 HD
HETATM    4  C5  UNL     1      60.115   8.897  28.359  1.00  0.00     0.679 A 
HETATM    5  N6  UNL     1      59.089   8.168  27.910  1.00  0.00    -0.176 N 
ATOM      6  H6  UNL     1      59.260   7.399  27.263  1.00  0.00     0.186 HD
HETATM    7  C6  UNL     1      57.851   8.440  28.301  1.00  0.00     0.133 A 
HETATM    8  N7  UNL     1      56.861   7.743  27.859  1.00  0.00    -0.373 N 
ATOM      9  H7  UNL     1      55.926   7.983  28.185  1.00  0.00     0.161 HD
HETATM   10  C9  UNL     1      57.568   9.496  29.197  1.00  0.00     0.076 A 
ENDROOT
BRANCH  10  11
HETATM   11  C10 UNL     1      56.186   9.711  29.565  1.00  0.00     0.119 C 
BRANCH  11  12
HETATM   12  N8  UNL     1      55.279  10.273  28.618  1.00  0.00    -0.301 N 
HETATM   13  C11 UNL     1      54.033   9.812  28.312  1.00  0.00     0.190 A 
HETATM   14  N9  UNL     1      53.468  10.618  27.412  1.00  0.00    -0.346 N 
HETATM   15  C12 UNL     1      54.317  11.599  27.122  1.00  0.00     0.122 A 
ATOM     16  H9  UNL     1      52.537  10.501  27.012  1.00  0.00     0.167 HD
HETATM   17  C13 UNL     1      54.303  12.688  26.271  1.00  0.00     0.131 A 
HETATM   18  C15 UNL     1      55.459  11.377  27.885  1.00  0.00     0.144 A 
HETATM   19  N11 UNL     1      55.324  13.534  26.141  1.00  0.00    -0.337 N 
HETATM   20  C14 UNL     1      56.428  13.316  26.878  1.00  0.00     0.183 A 
ATOM     21  H11 UNL     1      55.271  14.326  25.499  1.00  0.00     0.168 HD
HETATM   22  N12 UNL     1      56.447  12.268  27.702  1.00  0.00    -0.336 N 
ATOM     23  H12 UNL     1      57.297  12.128  28.247  1.00  0.00     0.168 HD
BRANCH  17  24
HETATM   24  N10 UNL     1      53.239  12.889  25.565  1.00  0.00    -0.383 N 
ATOM     25 2H10 UNL     1      53.013  12.228  24.821  1.00  0.00     0.157 HD
ATOM     26 1H10 UNL     1      52.667  13.704  25.788  1.00  0.00     0.157 HD
ENDBRANCH  17  24
ENDBRANCH  11  12
ENDBRANCH  10  11
BRANCH   1  27
HETATM   27  O2  UNL     1      58.457  11.244  30.483  1.00  0.00    -0.330 OA
BRANCH  27  28
HETATM   28  C3  UNL     1      58.370  12.564  30.624  1.00  0.00     0.231 C 
BRANCH  28  29
HETATM   29  C2  UNL     1      58.882  13.269  31.831  1.00  0.00     0.244 C 
BRANCH  29  30
HETATM   30  N3  UNL     1      58.925  14.720  31.666  1.00  0.00    -0.337 N 
HETATM   31  C1  UNL     1      58.274  15.558  32.592  1.00  0.00     0.183 C 
HETATM   32  N1  UNL     1      58.947  16.373  33.341  1.00  0.00    -0.374 N 
HETATM   33  N2  UNL     1      56.859  15.526  32.723  1.00  0.00    -0.064 NA
ATOM     34  H12 UNL     1      58.476  16.980  34.011  1.00  0.00     0.158 HD
ATOM     35  H11 UNL     1      59.963  16.396  33.247  1.00  0.00     0.158 HD
ATOM     36  H3  UNL     1      59.429  15.127  30.877  1.00  0.00     0.164 HD
ENDBRANCH  29  30
BRANCH  29  37
HETATM   37  O1  UNL     1      58.390  12.863  33.048  1.00  0.00    -0.375 OA
ATOM     38  H1  UNL     1      57.444  12.777  33.070  1.00  0.00     0.212 HD
ENDBRANCH  29  37
ENDBRANCH  28  29
ENDBRANCH  27  28
ENDBRANCH   1  27
BRANCH   8  39
HETATM   39  C7  UNL     1      56.991   6.651  26.937  1.00  0.00     0.147 C 
BRANCH  39  40
HETATM   40  C8  UNL     1      55.654   6.395  26.244  1.00  0.00     0.183 C 
BRANCH  40  41
HETATM   41  O3  UNL     1      55.871   5.449  25.249  1.00  0.00    -0.399 OA
ATOM     42  H3  UNL     1      55.147   4.834  25.275  1.00  0.00     0.209 HD
ENDBRANCH  40  41
ENDBRANCH  39  40
ENDBRANCH   8  39
BRANCH   4  43
HETATM   43  N5  UNL     1      61.340   8.666  28.001  1.00  0.00    -0.234 N 
ATOM     44  H52 UNL     1      62.065   9.383  28.040  1.00  0.00     0.174 HD
ATOM     45  H51 UNL     1      61.554   7.723  27.675  1.00  0.00     0.174 HD
ENDBRANCH   4  43
TORSDOF 12
ENDMDL
MODEL 4
REMARK VINA RESULT: -4.199226684      1.123      1.254
REMARK  12 active torsions:
REMARK  status: ('A' for Active; 'I' for Inactive)
REMARK       I    between atoms: C1_4  and  N3_6 
REMARK    1  A    between atoms: N3_6  and  C2_8 
REMARK    2  A    between atoms: C2_8  and  O1_9 
REMARK    3  A    between atoms: C2_8  and  C3_11 
REMARK    4  A    between atoms: C3_11  and  O2_12 
REMARK    5  A    between atoms: O2_12  and  C4_13 
REMARK    6  A    between atoms: C5_16  and  N5_17 
REMARK    7  A    between atoms: N7_23  and  C7_25 
REMARK    8  A    between atoms: C7_25  and  C8_26 
REMARK    9  A    between atoms: C8_26  and  O3_27 
REMARK   10  A    between atoms: C9_29  and  C10_30 
REMARK   11  A    between atoms: C10_30  and  N8_31 
REMARK   12  A    between atoms: C13_36  and  N10_37 
ROOT
HETATM    1  C4  UNL     1      54.342   9.124  27.679  1.00  0.00     0.173 A 
HETATM    2  N4  UNL     1      53.009   8.777  27.824  1.00  0.00    -0.170 N 
ATOM      3  H4  UNL     1      52.329   9.487  28.096  1.00  0.00     0.186 HD
HETATM    4  C5  UNL     1      52.605   7.526  27.611  1.00  0.00     0.679 A 
HETATM    5  N6  UNL     1      53.474   6.577  27.254  1.00  0.00    -0.176 N 
ATOM      6  H6  UNL     1      53.147   5.624  27.096  1.00  0.00     0.186 HD
HETATM    7  C6  UNL     1      54.760   6.866  27.105  1.00  0.00     0.133 A 
HETATM    8  N7  UNL     1      55.600   5.947  26.772  1.00  0.00    -0.373 N 
ATOM      9  H7  UNL     1      56.579   6.212  26.666  1.00  0.00     0.161 HD
HETATM   10  C9  UNL     1      55.258   8.173  27.313  1.00  0.00     0.076 A 
ENDROOT
BRANCH  10  11
HETATM   11  C10 UNL     1      56.674   8.390  27.123  1.00  0.00     0.119 C 
BRANCH  11  12
HETATM   12  N8  UNL     1      57.534   8.496  28.257  1.00  0.00    -0.301 N 
HETATM   13  C11 UNL     1      57.175   8.369  29.566  1.00  0.00     0.190 A 
HETATM   14  N9  UNL     1      58.254   8.490  30.340  1.00  0.00    -0.346 N 
HETATM   15  C12 UNL     1      59.316   8.692  29.565  1.00  0.00     0.122 A 
ATOM     16  H9  UNL     1      58.264   8.435  31.358  1.00  0.00     0.167 HD
HETATM   17  C13 UNL     1      60.664   8.905  29.785  1.00  0.00     0.131 A 
HETATM   18  C15 UNL     1      58.857   8.696  28.251  1.00  0.00     0.144 A 
HETATM   19  N11 UNL     1      61.545   9.115  28.808  1.00  0.00    -0.337 N 
HETATM   20  C14 UNL     1      61.099   9.119  27.540  1.00  0.00     0.183 A 
ATOM     21  H11 UNL     1      62.532   9.268  29.017  1.00  0.00     0.168 HD
HETATM   22  N12 UNL     1      59.800   8.914  27.320  1.00  0.00    -0.336 N 
ATOM     23  H12 UNL     1      59.491   8.924  26.349  1.00  0.00     0.168 HD
BRANCH  17  24
HETATM   24  N10 UNL     1      61.084   8.899  31.008  1.00  0.00    -0.383 N 
ATOM     25 2H10 UNL     1      60.750   8.168  31.636  1.00  0.00     0.157 HD
ATOM     26 1H10 UNL     1      61.736   9.632  31.290  1.00  0.00     0.157 HD
ENDBRANCH  17  24
ENDBRANCH  11  12
ENDBRANCH  10  11
BRANCH   1  27
HETATM   27  O2  UNL     1      54.732  10.382  27.899  1.00  0.00    -0.330 OA
BRANCH  27  28
HETATM   28  C3  UNL     1      54.766  11.628  27.436  1.00  0.00     0.231 C 
BRANCH  28  29
HETATM   29  C2  UNL     1      55.918  12.538  27.686  1.00  0.00     0.244 C 
BRANCH  29  30
HETATM   30  N3  UNL     1      57.076  11.846  28.247  1.00  0.00    -0.337 N 
HETATM   31  C1  UNL     1      57.742  12.377  29.369  1.00  0.00     0.183 C 
HETATM   32  N1  UNL     1      57.755  11.742  30.498  1.00  0.00    -0.374 N 
HETATM   33  N2  UNL     1      58.417  13.625  29.283  1.00  0.00    -0.064 NA
ATOM     34  H12 UNL     1      58.238  12.126  31.310  1.00  0.00     0.158 HD
ATOM     35  H11 UNL     1      57.271  10.846  30.560  1.00  0.00     0.158 HD
ATOM     36  H3  UNL     1      57.403  10.977  27.825  1.00  0.00     0.164 HD
ENDBRANCH  29  30
BRANCH  29  37
HETATM   37  O1  UNL     1      56.233  13.434  26.694  1.00  0.00    -0.375 OA
ATOM     38  H1  UNL     1      55.482  13.896  26.340  1.00  0.00     0.212 HD
ENDBRANCH  29  37
ENDBRANCH  28  29
ENDBRANCH  27  28
ENDBRANCH   1  27
BRANCH   8  39
HETATM   39  C7  UNL     1      55.247   4.576  26.540  1.00  0.00     0.147 C 
BRANCH  39  40
HETATM   40  C8  UNL     1      55.904   4.082  25.254  1.00  0.00     0.183 C 
BRANCH  40  41
HETATM   41  O3  UNL     1      57.278   4.236  25.398  1.00  0.00    -0.399 OA
ATOM     42  H3  UNL     1      57.559   4.904  24.783  1.00  0.00     0.209 HD
ENDBRANCH  40  41
ENDBRANCH  39  40
ENDBRANCH   8  39
BRANCH   4  43
HETATM   43  N5  UNL     1      51.340   7.284  27.768  1.00  0.00    -0.234 N 
ATOM     44  H52 UNL     1      50.860   7.442  28.654  1.00  0.00     0.174 HD
ATOM     45  H51 UNL     1      50.835   6.926  26.957  1.00  0.00     0.174 HD
ENDBRANCH   4  43
TORSDOF 12
ENDMDL
MODEL 5
REMARK VINA RESULT: -3.956373885      2.463      7.582
REMARK  12 active torsions:
REMARK  status: ('A' for Active; 'I' for Inactive)
REMARK       I    between atoms: C1_4  and  N3_6 
REMARK    1  A    between atoms: N3_6  and  C2_8 
REMARK    2  A    between atoms: C2_8  and  O1_9 
REMARK    3  A    between atoms: C2_8  and  C3_11 
REMARK    4  A    between atoms: C3_11  and  O2_12 
REMARK    5  A    between atoms: O2_12  and  C4_13 
REMARK    6  A    between atoms: C5_16  and  N5_17 
REMARK    7  A    between atoms: N7_23  and  C7_25 
REMARK    8  A    between atoms: C7_25  and  C8_26 
REMARK    9  A    between atoms: C8_26  and  O3_27 
REMARK   10  A    between atoms: C9_29  and  C10_30 
REMARK   11  A    between atoms: C10_30  and  N8_31 
REMARK   12  A    between atoms: C13_36  and  N10_37 
ROOT
HETATM    1  C4  UNL     1      57.642   8.452  28.611  1.00  0.00     0.173 A 
HETATM    2  N4  UNL     1      58.966   8.113  28.388  1.00  0.00    -0.170 N 
ATOM      3  H4  UNL     1      59.190   7.307  27.805  1.00  0.00     0.186 HD
HETATM    4  C5  UNL     1      59.952   8.830  28.928  1.00  0.00     0.679 A 
HETATM    5  N6  UNL     1      59.686   9.889  29.697  1.00  0.00    -0.176 N 
ATOM      6  H6  UNL     1      60.452  10.426  30.103  1.00  0.00     0.186 HD
HETATM    7  C6  UNL     1      58.431  10.248  29.936  1.00  0.00     0.133 A 
HETATM    8  N7  UNL     1      58.176  11.264  30.686  1.00  0.00    -0.373 N 
ATOM      9  H7  UNL     1      57.198  11.506  30.843  1.00  0.00     0.161 HD
HETATM   10  C9  UNL     1      57.337   9.534  29.394  1.00  0.00     0.076 A 
ENDROOT
BRANCH  10  11
HETATM   11  C10 UNL     1      56.007  10.004  29.709  1.00  0.00     0.119 C 
BRANCH  11  12
HETATM   12  N8  UNL     1      55.170  10.511  28.671  1.00  0.00    -0.301 N 
HETATM   13  C11 UNL     1      53.931  10.056  28.329  1.00  0.00     0.190 A 
HETATM   14  N9  UNL     1      53.439  10.802  27.339  1.00  0.00    -0.346 N 
HETATM   15  C12 UNL     1      54.329  11.738  27.024  1.00  0.00     0.122 A 
ATOM     16  H9  UNL     1      52.529  10.675  26.896  1.00  0.00     0.167 HD
HETATM   17  C13 UNL     1      54.392  12.758  26.093  1.00  0.00     0.131 A 
HETATM   18  C15 UNL     1      55.420  11.551  27.867  1.00  0.00     0.144 A 
HETATM   19  N11 UNL     1      55.442  13.568  25.958  1.00  0.00    -0.337 N 
HETATM   20  C14 UNL     1      56.496  13.383  26.772  1.00  0.00     0.183 A 
ATOM     21  H11 UNL     1      55.445  14.308  25.255  1.00  0.00     0.168 HD
HETATM   22  N12 UNL     1      56.441  12.402  27.674  1.00  0.00    -0.336 N 
ATOM     23  H12 UNL     1      57.255  12.286  28.276  1.00  0.00     0.168 HD
BRANCH  17  24
HETATM   24  N10 UNL     1      53.375  12.926  25.314  1.00  0.00    -0.383 N 
ATOM     25 2H10 UNL     1      53.364  13.735  24.691  1.00  0.00     0.157 HD
ATOM     26 1H10 UNL     1      52.624  12.237  25.356  1.00  0.00     0.157 HD
ENDBRANCH  17  24
ENDBRANCH  11  12
ENDBRANCH  10  11
BRANCH   1  27
HETATM   27  O2  UNL     1      56.666   7.722  28.065  1.00  0.00    -0.330 OA
BRANCH  27  28
HETATM   28  C3  UNL     1      56.034   7.376  26.947  1.00  0.00     0.231 C 
BRANCH  28  29
HETATM   29  C2  UNL     1      54.778   6.577  26.959  1.00  0.00     0.244 C 
BRANCH  29  30
HETATM   30  N3  UNL     1      55.019   5.139  26.861  1.00  0.00    -0.337 N 
HETATM   31  C1  UNL     1      55.671   4.605  25.732  1.00  0.00     0.183 C 
HETATM   32  N1  UNL     1      56.830   4.035  25.839  1.00  0.00    -0.374 N 
HETATM   33  N2  UNL     1      55.067   4.681  24.448  1.00  0.00    -0.064 NA
ATOM     34  H12 UNL     1      57.301   3.649  25.022  1.00  0.00     0.158 HD
ATOM     35  H11 UNL     1      57.263   3.981  26.761  1.00  0.00     0.158 HD
ATOM     36  H3  UNL     1      54.715   4.520  27.613  1.00  0.00     0.164 HD
ENDBRANCH  29  30
BRANCH  29  37
HETATM   37  O1  UNL     1      53.828   6.919  27.889  1.00  0.00    -0.375 OA
ATOM     38  H1  UNL     1      54.178   7.069  28.759  1.00  0.00     0.212 HD
ENDBRANCH  29  37
ENDBRANCH  28  29
ENDBRANCH  27  28
ENDBRANCH   1  27
BRANCH   8  39
HETATM   39  C7  UNL     1      59.178  12.075  31.315  1.00  0.00     0.147 C 
BRANCH  39  40
HETATM   40  C8  UNL     1      58.591  13.437  31.677  1.00  0.00     0.183 C 
BRANCH  40  41
HETATM   41  O3  UNL     1      59.539  14.402  31.357  1.00  0.00    -0.399 OA
ATOM     42  H3  UNL     1      59.292  15.206  31.798  1.00  0.00     0.209 HD
ENDBRANCH  40  41
ENDBRANCH  39  40
ENDBRANCH   8  39
BRANCH   4  43
HETATM   43  N5  UNL     1      61.164   8.446  28.671  1.00  0.00    -0.234 N 
ATOM     44  H52 UNL     1      61.900   8.453  29.377  1.00  0.00     0.174 HD
ATOM     45  H51 UNL     1      61.354   8.130  27.720  1.00  0.00     0.174 HD
ENDBRANCH   4  43
TORSDOF 12
ENDMDL
