MODEL 1
REMARK VINA RESULT: -6.028126807      0.000      0.000
REMARK  13 active torsions:
REMARK  status: ('A' for Active; 'I' for Inactive)
REMARK    1  A    between atoms: C4_10  and  N4_11 
REMARK       I    between atoms: N4_11  and  C5_13 
REMARK       I    between atoms: C5_13  and  N9_29 
REMARK    2  A    between atoms: N5_14  and  C6_16 
REMARK    3  A    between atoms: C6_16  and  C7_17 
REMARK    4  A    between atoms: C7_17  and  C8_18 
REMARK    5  A    between atoms: C8_18  and  N6_19 
REMARK    6  A    between atoms: N6_19  and  N7_21 
REMARK    7  A    between atoms: C9_23  and  C10_24 
REMARK    8  A    between atoms: C10_24  and  N8_25 
REMARK    9  A    between atoms: N9_29  and  O1_30 
REMARK   10  A    between atoms: N9_29  and  C11_32 
REMARK   11  A    between atoms: C11_32  and  O2_33 
REMARK   12  A    between atoms: C11_32  and  C12_35 
REMARK   13  A    between atoms: C14_39  and  N11_40 
ROOT
HETATM    1  N4  UNL     1      57.903   8.456  29.492  1.00  0.00    -0.173 N 
ATOM      2  H4  UNL     1      57.428   7.555  29.448  1.00  0.00     0.186 HD
HETATM    3  C5  UNL     1      57.110   9.635  29.444  1.00  0.00     0.704 C 
HETATM    4  N5  UNL     1      57.600  10.748  29.812  1.00  0.00    -0.224 N 
ATOM      5  H5  UNL     1      58.568  10.740  30.133  1.00  0.00     0.177 HD
HETATM    6  N9  UNL     1      55.765   9.555  28.980  1.00  0.00    -0.055 N 
ENDROOT
BRANCH   1   7
HETATM    7  C4  UNL     1      59.179   8.463  29.586  1.00  0.00     0.144 A 
HETATM    8  C2  UNL     1      59.907   8.778  28.458  1.00  0.00     0.001 A 
HETATM    9  C1  UNL     1      59.273   9.108  27.148  1.00  0.00     0.054 C 
HETATM   10  C3  UNL     1      61.285   8.799  28.506  1.00  0.00     0.119 A 
HETATM   11  N1  UNL     1      61.900   8.510  29.660  1.00  0.00    -0.297 N 
HETATM   12  N2  UNL     1      61.193   8.208  30.736  1.00  0.00    -0.241 N 
ATOM     13  H1  UNL     1      62.918   8.521  29.709  1.00  0.00     0.187 HD
HETATM   14  N3  UNL     1      59.872   8.186  30.702  1.00  0.00    -0.270 N 
ATOM     15  H2  UNL     1      61.676   7.990  31.607  1.00  0.00     0.208 HD
ATOM     16  H3  UNL     1      59.362   7.950  31.554  1.00  0.00     0.190 HD
ENDBRANCH   1   7
BRANCH   4  17
HETATM   17  C6  UNL     1      56.933  12.007  29.821  1.00  0.00     0.140 C 
BRANCH  17  18
HETATM   18  C7  UNL     1      57.892  13.165  30.004  1.00  0.00     0.041 C 
BRANCH  18  19
HETATM   19  C8  UNL     1      58.614  13.029  31.324  1.00  0.00     0.141 C 
BRANCH  19  20
HETATM   20  N6  UNL     1      58.187  14.066  32.235  1.00  0.00    -0.337 N 
ATOM     21  H6  UNL     1      57.339  13.931  32.786  1.00  0.00     0.180 HD
BRANCH  20  22
HETATM   22  N7  UNL     1      58.910  15.246  32.374  1.00  0.00    -0.319 N 
HETATM   23  C9  UNL     1      58.299  16.329  32.675  1.00  0.00     0.106 C 
ATOM     24  H7  UNL     1      59.920  15.247  32.236  1.00  0.00     0.185 HD
BRANCH  23  25
HETATM   25  C10 UNL     1      56.845  16.322  32.871  1.00  0.00     0.275 C 
BRANCH  25  26
HETATM   26  N8  UNL     1      56.463  16.312  34.278  1.00  0.00    -0.075 N 
ATOM     27  H83 UNL     1      57.278  16.435  34.878  1.00  0.00     0.274 HD
ATOM     28  H82 UNL     1      55.947  17.157  34.522  1.00  0.00     0.274 HD
ATOM     29  H81 UNL     1      55.939  15.477  34.541  1.00  0.00     0.274 HD
ENDBRANCH  25  26
ENDBRANCH  23  25
ENDBRANCH  20  22
ENDBRANCH  19  20
ENDBRANCH  18  19
ENDBRANCH  17  18
ENDBRANCH   4  17
BRANCH   6  30
HETATM   30  O1  UNL     1      54.768   9.786  29.884  1.00  0.00    -0.271 OA
ATOM     31  H1  UNL     1      54.185  10.518  29.720  1.00  0.00     0.245 HD
ENDBRANCH   6  30
BRANCH   6  32
HETATM   32  C11 UNL     1      55.475   9.274  27.588  1.00  0.00     0.304 C 
BRANCH  32  33
HETATM   33  O2  UNL     1      54.458  10.138  27.197  1.00  0.00    -0.369 OA
ATOM     34  H2  UNL     1      54.703  10.494  26.351  1.00  0.00     0.212 HD
ENDBRANCH  32  33
BRANCH  32  35
HETATM   35  C12 UNL     1      55.207   7.880  27.266  1.00  0.00     0.053 A 
HETATM   36  C13 UNL     1      56.206   7.151  26.630  1.00  0.00     0.121 A 
HETATM   37  N10 UNL     1      56.074   5.891  26.220  1.00  0.00    -0.201 N 
HETATM   38  C14 UNL     1      54.890   5.294  26.442  1.00  0.00     0.677 A 
ATOM     39  H10 UNL     1      56.839   5.400  25.758  1.00  0.00     0.183 HD
HETATM   40  N12 UNL     1      53.909   5.957  27.048  1.00  0.00    -0.177 N 
HETATM   41  C15 UNL     1      54.010   7.252  27.484  1.00  0.00     0.126 A 
ATOM     42  H12 UNL     1      53.026   5.470  27.198  1.00  0.00     0.186 HD
HETATM   43  N13 UNL     1      53.027   7.781  28.115  1.00  0.00    -0.384 N 
ATOM     44 2H13 UNL     1      53.101   8.745  28.440  1.00  0.00     0.157 HD
ATOM     45 1H13 UNL     1      52.136   7.313  28.278  1.00  0.00     0.157 HD
BRANCH  38  46
HETATM   46  N11 UNL     1      54.733   4.050  26.046  1.00  0.00    -0.234 N 
ATOM     47 2H11 UNL     1      55.492   3.534  25.600  1.00  0.00     0.174 HD
ATOM     48 1H11 UNL     1      53.827   3.604  26.194  1.00  0.00     0.174 HD
ENDBRANCH  38  46
ENDBRANCH  32  35
ENDBRANCH   6  32
TORSDOF 13
ENDMDL
MODEL 2
REMARK VINA RESULT: -5.298948801      2.645      3.925
REMARK  13 active torsions:
REMARK  status: ('A' for Active; 'I' for Inactive)
REMARK    1  A    between atoms: C4_10  and  N4_11 
REMARK       I    between atoms: N4_11  and  C5_13 
REMARK       I    between atoms: C5_13  and  N9_29 
REMARK    2  A    between atoms: N5_14  and  C6_16 
REMARK    3  A    between atoms: C6_16  and  C7_17 
REMARK    4  A    between atoms: C7_17  and  C8_18 
REMARK    5  A    between atoms: C8_18  and  N6_19 
REMARK    6  A    between atoms: N6_19  and  N7_21 
REMARK    7  A    between atoms: C9_23  and  C10_24 
REMARK    8  A    between atoms: C10_24  and  N8_25 
REMARK    9  A    between atoms: N9_29  and  O1_30 
REMARK   10  A    between atoms: N9_29  and  C11_32 
REMARK   11  A    between atoms: C11_32  and  O2_33 
REMARK   12  A    between atoms: C11_32  and  C12_35 
REMARK   13  A    between atoms: C14_39  and  N11_40 
ROOT
HETATM    1  N4  UNL     1      57.770   8.571  29.417  1.00  0.00    -0.173 N 
ATOM      2  H4  UNL     1      57.260   7.688  29.442  1.00  0.00     0.186 HD
HETATM    3  C5  UNL     1      57.026   9.772  29.261  1.00  0.00     0.704 C 
HETATM    4  N5  UNL     1      57.556  10.892  29.543  1.00  0.00    -0.224 N 
ATOM      5  H5  UNL     1      58.520  10.872  29.877  1.00  0.00     0.177 HD
HETATM    6  N9  UNL     1      55.683   9.706  28.787  1.00  0.00    -0.055 N 
ENDROOT
BRANCH   1   7
HETATM    7  C4  UNL     1      59.044   8.535  29.527  1.00  0.00     0.144 A 
HETATM    8  C2  UNL     1      59.797   8.795  28.401  1.00  0.00     0.001 A 
HETATM    9  C1  UNL     1      59.190   9.112  27.075  1.00  0.00     0.054 C 
HETATM   10  C3  UNL     1      61.174   8.770  28.466  1.00  0.00     0.119 A 
HETATM   11  N1  UNL     1      61.764   8.489  29.635  1.00  0.00    -0.297 N 
HETATM   12  N2  UNL     1      61.035   8.241  30.709  1.00  0.00    -0.241 N 
ATOM     13  H1  UNL     1      62.781   8.466  29.697  1.00  0.00     0.187 HD
HETATM   14  N3  UNL     1      59.714   8.263  30.659  1.00  0.00    -0.270 N 
ATOM     15  H2  UNL     1      61.499   8.028  31.592  1.00  0.00     0.208 HD
ATOM     16  H3  UNL     1      59.186   8.068  31.510  1.00  0.00     0.190 HD
ENDBRANCH   1   7
BRANCH   4  17
HETATM   17  C6  UNL     1      56.941  12.172  29.439  1.00  0.00     0.140 C 
BRANCH  17  18
HETATM   18  C7  UNL     1      57.233  12.846  28.114  1.00  0.00     0.041 C 
BRANCH  18  19
HETATM   19  C8  UNL     1      55.940  13.124  27.384  1.00  0.00     0.141 C 
BRANCH  19  20
HETATM   20  N6  UNL     1      56.188  13.257  25.967  1.00  0.00    -0.337 N 
ATOM     21  H6  UNL     1      57.148  13.338  25.632  1.00  0.00     0.180 HD
BRANCH  20  22
HETATM   22  N7  UNL     1      55.141  13.277  25.051  1.00  0.00    -0.319 N 
HETATM   23  C9  UNL     1      55.364  13.639  23.844  1.00  0.00     0.106 C 
ATOM     24  H7  UNL     1      54.202  13.004  25.340  1.00  0.00     0.185 HD
BRANCH  23  25
HETATM   25  C10 UNL     1      56.718  14.030  23.434  1.00  0.00     0.275 C 
BRANCH  25  26
HETATM   26  N8  UNL     1      56.778  15.382  22.892  1.00  0.00    -0.075 N 
ATOM     27  H83 UNL     1      56.568  15.384  21.894  1.00  0.00     0.274 HD
ATOM     28  H82 UNL     1      55.997  15.945  23.228  1.00  0.00     0.274 HD
ATOM     29  H81 UNL     1      57.668  15.845  23.077  1.00  0.00     0.274 HD
ENDBRANCH  25  26
ENDBRANCH  23  25
ENDBRANCH  20  22
ENDBRANCH  19  20
ENDBRANCH  18  19
ENDBRANCH  17  18
ENDBRANCH   4  17
BRANCH   6  30
HETATM   30  O1  UNL     1      54.687  10.050  29.656  1.00  0.00    -0.271 OA
ATOM     31  H1  UNL     1      53.914   9.498  29.681  1.00  0.00     0.245 HD
ENDBRANCH   6  30
BRANCH   6  32
HETATM   32  C11 UNL     1      55.397   9.322  27.420  1.00  0.00     0.304 C 
BRANCH  32  33
HETATM   33  O2  UNL     1      54.365  10.139  26.971  1.00  0.00    -0.369 OA
ATOM     34  H2  UNL     1      53.963   9.702  26.230  1.00  0.00     0.212 HD
ENDBRANCH  32  33
BRANCH  32  35
HETATM   35  C12 UNL     1      55.151   7.904  27.198  1.00  0.00     0.053 A 
HETATM   36  C13 UNL     1      56.151   7.155  26.588  1.00  0.00     0.121 A 
HETATM   37  N10 UNL     1      56.037   5.868  26.267  1.00  0.00    -0.201 N 
HETATM   38  C14 UNL     1      54.871   5.263  26.557  1.00  0.00     0.677 A 
ATOM     39  H10 UNL     1      56.801   5.362  25.819  1.00  0.00     0.183 HD
HETATM   40  N12 UNL     1      53.891   5.946  27.142  1.00  0.00    -0.177 N 
HETATM   41  C15 UNL     1      53.973   7.269  27.488  1.00  0.00     0.126 A 
ATOM     42  H12 UNL     1      53.022   5.452  27.345  1.00  0.00     0.186 HD
HETATM   43  N13 UNL     1      52.994   7.819  28.106  1.00  0.00    -0.384 N 
ATOM     44 2H13 UNL     1      53.055   8.804  28.364  1.00  0.00     0.157 HD
ATOM     45 1H13 UNL     1      52.118   7.345  28.321  1.00  0.00     0.157 HD
BRANCH  38  46
HETATM   46  N11 UNL     1      54.732   3.992  26.249  1.00  0.00    -0.234 N 
ATOM     47 2H11 UNL     1      55.218   3.582  25.451  1.00  0.00     0.174 HD
ATOM     48 1H11 UNL     1      54.122   3.416  26.830  1.00  0.00     0.174 HD
ENDBRANCH  38  46
ENDBRANCH  32  35
ENDBRANCH   6  32
TORSDOF 13
ENDMDL
MODEL 3
REMARK VINA RESULT: -5.084668240      1.041      1.385
REMARK  13 active torsions:
REMARK  status: ('A' for Active; 'I' for Inactive)
REMARK    1  A    between atoms: C4_10  and  N4_11 
REMARK       I    between atoms: N4_11  and  C5_13 
REMARK       I    between atoms: C5_13  and  N9_29 
REMARK    2  A    between atoms: N5_14  and  C6_16 
REMARK    3  A    between atoms: C6_16  and  C7_17 
REMARK    4  A    between atoms: C7_17  and  C8_18 
REMARK    5  A    between atoms: C8_18  and  N6_19 
REMARK    6  A    between atoms: N6_19  and  N7_21 
REMARK    7  A    between atoms: C9_23  and  C10_24 
REMARK    8  A    between atoms: C10_24  and  N8_25 
REMARK    9  A    between atoms: N9_29  and  O1_30 
REMARK   10  A    between atoms: N9_29  and  C11_32 
REMARK   11  A    between atoms: C11_32  and  O2_33 
REMARK   12  A    between atoms: C11_32  and  C12_35 
REMARK   13  A    between atoms: C14_39  and  N11_40 
ROOT
HETATM    1  N4  UNL     1      58.182   8.646  28.565  1.00  0.00    -0.173 N 
ATOM      2  H4  UNL     1      57.825   7.690  28.575  1.00  0.00     0.186 HD
HETATM    3  C5  UNL     1      57.303   9.693  28.954  1.00  0.00     0.704 C 
HETATM    4  N5  UNL     1      57.768  10.833  29.269  1.00  0.00    -0.224 N 
ATOM      5  H5  UNL     1      58.782  10.942  29.225  1.00  0.00     0.177 HD
HETATM    6  N9  UNL     1      55.899   9.452  28.987  1.00  0.00    -0.055 N 
ENDROOT
BRANCH   1   7
HETATM    7  C4  UNL     1      59.395   8.835  28.205  1.00  0.00     0.144 A 
HETATM    8  C2  UNL     1      60.381   8.684  29.156  1.00  0.00     0.001 A 
HETATM    9  C1  UNL     1      60.093   8.313  30.572  1.00  0.00     0.054 C 
HETATM   10  C3  UNL     1      61.704   8.876  28.819  1.00  0.00     0.119 A 
HETATM   11  N1  UNL     1      62.012   9.210  27.559  1.00  0.00    -0.297 N 
HETATM   12  N2  UNL     1      61.060   9.352  26.654  1.00  0.00    -0.241 N 
ATOM     13  H1  UNL     1      62.987   9.356  27.296  1.00  0.00     0.187 HD
HETATM   14  N3  UNL     1      59.788   9.170  26.965  1.00  0.00    -0.270 N 
ATOM     15  H2  UNL     1      61.310   9.608  25.699  1.00  0.00     0.208 HD
ATOM     16  H3  UNL     1      59.082   9.288  26.238  1.00  0.00     0.190 HD
ENDBRANCH   1   7
BRANCH   4  17
HETATM   17  C6  UNL     1      57.018  11.973  29.676  1.00  0.00     0.140 C 
BRANCH  17  18
HETATM   18  C7  UNL     1      57.904  13.153  30.020  1.00  0.00     0.041 C 
BRANCH  18  19
HETATM   19  C8  UNL     1      58.561  12.926  31.360  1.00  0.00     0.141 C 
BRANCH  19  20
HETATM   20  N6  UNL     1      58.198  13.982  32.278  1.00  0.00    -0.337 N 
ATOM     21  H6  UNL     1      57.390  13.859  32.888  1.00  0.00     0.180 HD
BRANCH  20  22
HETATM   22  N7  UNL     1      58.930  15.163  32.344  1.00  0.00    -0.319 N 
HETATM   23  C9  UNL     1      58.333  16.262  32.613  1.00  0.00     0.106 C 
ATOM     24  H7  UNL     1      59.937  15.152  32.179  1.00  0.00     0.185 HD
BRANCH  23  25
HETATM   25  C10 UNL     1      56.885  16.272  32.850  1.00  0.00     0.275 C 
BRANCH  25  26
HETATM   26  N8  UNL     1      56.541  16.322  34.266  1.00  0.00    -0.075 N 
ATOM     27  H83 UNL     1      57.360  16.545  34.832  1.00  0.00     0.274 HD
ATOM     28  H82 UNL     1      55.968  17.141  34.472  1.00  0.00     0.274 HD
ATOM     29  H81 UNL     1      56.091  15.469  34.596  1.00  0.00     0.274 HD
ENDBRANCH  25  26
ENDBRANCH  23  25
ENDBRANCH  20  22
ENDBRANCH  19  20
ENDBRANCH  18  19
ENDBRANCH  17  18
ENDBRANCH   4  17
BRANCH   6  30
HETATM   30  O1  UNL     1      55.283   9.456  30.206  1.00  0.00    -0.271 OA
ATOM     31  H1  UNL     1      54.537   8.879  30.325  1.00  0.00     0.245 HD
ENDBRANCH   6  30
BRANCH   6  32
HETATM   32  C11 UNL     1      55.152   9.246  27.763  1.00  0.00     0.304 C 
BRANCH  32  33
HETATM   33  O2  UNL     1      53.941   9.915  27.901  1.00  0.00    -0.369 OA
ATOM     34  H2  UNL     1      53.753  10.332  27.069  1.00  0.00     0.212 HD
ENDBRANCH  32  33
BRANCH  32  35
HETATM   35  C12 UNL     1      55.003   7.862  27.336  1.00  0.00     0.053 A 
HETATM   36  C13 UNL     1      56.037   7.289  26.603  1.00  0.00     0.121 A 
HETATM   37  N10 UNL     1      56.006   6.058  26.095  1.00  0.00    -0.201 N 
HETATM   38  C14 UNL     1      54.896   5.331  26.313  1.00  0.00     0.677 A 
ATOM     39  H10 UNL     1      56.791   5.683  25.563  1.00  0.00     0.183 HD
HETATM   40  N12 UNL     1      53.887   5.843  27.010  1.00  0.00    -0.177 N 
HETATM   41  C15 UNL     1      53.883   7.103  27.548  1.00  0.00     0.126 A 
ATOM     42  H12 UNL     1      53.062   5.261  27.153  1.00  0.00     0.186 HD
HETATM   43  N13 UNL     1      52.886   7.480  28.259  1.00  0.00    -0.384 N 
ATOM     44 2H13 UNL     1      52.883   8.419  28.660  1.00  0.00     0.157 HD
ATOM     45 1H13 UNL     1      52.052   6.915  28.417  1.00  0.00     0.157 HD
BRANCH  38  46
HETATM   46  N11 UNL     1      54.840   4.112  25.821  1.00  0.00    -0.234 N 
ATOM     47 2H11 UNL     1      55.168   3.307  26.356  1.00  0.00     0.174 HD
ATOM     48 1H11 UNL     1      54.459   3.985  24.884  1.00  0.00     0.174 HD
ENDBRANCH  38  46
ENDBRANCH  32  35
ENDBRANCH   6  32
TORSDOF 13
ENDMDL
MODEL 4
REMARK VINA RESULT: -4.835326246      0.816      1.303
REMARK  13 active torsions:
REMARK  status: ('A' for Active; 'I' for Inactive)
REMARK    1  A    between atoms: C4_10  and  N4_11 
REMARK       I    between atoms: N4_11  and  C5_13 
REMARK       I    between atoms: C5_13  and  N9_29 
REMARK    2  A    between atoms: N5_14  and  C6_16 
REMARK    3  A    between atoms: C6_16  and  C7_17 
REMARK    4  A    between atoms: C7_17  and  C8_18 
REMARK    5  A    between atoms: C8_18  and  N6_19 
REMARK    6  A    between atoms: N6_19  and  N7_21 
REMARK    7  A    between atoms: C9_23  and  C10_24 
REMARK    8  A    between atoms: C10_24  and  N8_25 
REMARK    9  A    between atoms: N9_29  and  O1_30 
REMARK   10  A    between atoms: N9_29  and  C11_32 
REMARK   11  A    between atoms: C11_32  and  O2_33 
REMARK   12  A    between atoms: C11_32  and  C12_35 
REMARK   13  A    between atoms: C14_39  and  N11_40 
ROOT
HETATM    1  N4  UNL     1      57.813   8.417  29.445  1.00  0.00    -0.173 N 
ATOM      2  H4  UNL     1      57.348   7.510  29.413  1.00  0.00     0.186 HD
HETATM    3  C5  UNL     1      57.010   9.587  29.363  1.00  0.00     0.704 C 
HETATM    4  N5  UNL     1      57.484  10.712  29.716  1.00  0.00    -0.224 N 
ATOM      5  H5  UNL     1      58.447  10.719  30.050  1.00  0.00     0.177 HD
HETATM    6  N9  UNL     1      55.672   9.484  28.883  1.00  0.00    -0.055 N 
ENDROOT
BRANCH   1   7
HETATM    7  C4  UNL     1      59.088   8.438  29.556  1.00  0.00     0.144 A 
HETATM    8  C2  UNL     1      59.827   8.753  28.436  1.00  0.00     0.001 A 
HETATM    9  C1  UNL     1      59.207   9.067  27.116  1.00  0.00     0.054 C 
HETATM   10  C3  UNL     1      61.204   8.790  28.502  1.00  0.00     0.119 A 
HETATM   11  N1  UNL     1      61.807   8.515  29.666  1.00  0.00    -0.297 N 
HETATM   12  N2  UNL     1      61.089   8.214  30.734  1.00  0.00    -0.241 N 
ATOM     13  H1  UNL     1      62.824   8.538  29.729  1.00  0.00     0.187 HD
HETATM   14  N3  UNL     1      59.769   8.177  30.684  1.00  0.00    -0.270 N 
ATOM     15  H2  UNL     1      61.563   8.007  31.614  1.00  0.00     0.208 HD
ATOM     16  H3  UNL     1      59.250   7.942  31.530  1.00  0.00     0.190 HD
ENDBRANCH   1   7
BRANCH   4  17
HETATM   17  C6  UNL     1      56.805  11.963  29.691  1.00  0.00     0.140 C 
BRANCH  17  18
HETATM   18  C7  UNL     1      57.733  13.128  29.965  1.00  0.00     0.041 C 
BRANCH  18  19
HETATM   19  C8  UNL     1      58.680  12.776  31.088  1.00  0.00     0.141 C 
BRANCH  19  20
HETATM   20  N6  UNL     1      58.266  13.427  32.310  1.00  0.00    -0.337 N 
ATOM     21  H6  UNL     1      57.973  12.859  33.106  1.00  0.00     0.180 HD
BRANCH  20  22
HETATM   22  N7  UNL     1      58.260  14.813  32.422  1.00  0.00    -0.319 N 
HETATM   23  C9  UNL     1      59.330  15.471  32.182  1.00  0.00     0.106 C 
ATOM     24  H7  UNL     1      57.407  15.302  32.694  1.00  0.00     0.185 HD
BRANCH  23  25
HETATM   25  C10 UNL     1      60.555  14.763  31.791  1.00  0.00     0.275 C 
BRANCH  25  26
HETATM   26  N8  UNL     1      61.434  14.483  32.920  1.00  0.00    -0.075 N 
ATOM     27  H83 UNL     1      61.563  15.315  33.495  1.00  0.00     0.274 HD
ATOM     28  H82 UNL     1      60.972  13.879  33.600  1.00  0.00     0.274 HD
ATOM     29  H81 UNL     1      62.332  14.092  32.637  1.00  0.00     0.274 HD
ENDBRANCH  25  26
ENDBRANCH  23  25
ENDBRANCH  20  22
ENDBRANCH  19  20
ENDBRANCH  18  19
ENDBRANCH  17  18
ENDBRANCH   4  17
BRANCH   6  30
HETATM   30  O1  UNL     1      54.660   9.722  29.769  1.00  0.00    -0.271 OA
ATOM     31  H1  UNL     1      54.331  10.611  29.832  1.00  0.00     0.245 HD
ENDBRANCH   6  30
BRANCH   6  32
HETATM   32  C11 UNL     1      55.404   9.173  27.494  1.00  0.00     0.304 C 
BRANCH  32  33
HETATM   33  O2  UNL     1      54.370  10.005  27.077  1.00  0.00    -0.369 OA
ATOM     34  H2  UNL     1      53.562   9.512  27.160  1.00  0.00     0.212 HD
ENDBRANCH  32  33
BRANCH  32  35
HETATM   35  C12 UNL     1      55.173   7.767  27.192  1.00  0.00     0.053 A 
HETATM   36  C13 UNL     1      56.187   7.060  26.554  1.00  0.00     0.121 A 
HETATM   37  N10 UNL     1      56.088   5.792  26.162  1.00  0.00    -0.201 N 
HETATM   38  C14 UNL     1      54.924   5.163  26.405  1.00  0.00     0.677 A 
ATOM     39  H10 UNL     1      56.862   5.317  25.697  1.00  0.00     0.183 HD
HETATM   40  N12 UNL     1      53.931   5.805  27.013  1.00  0.00    -0.177 N 
HETATM   41  C15 UNL     1      53.998   7.107  27.432  1.00  0.00     0.126 A 
ATOM     42  H12 UNL     1      53.064   5.294  27.179  1.00  0.00     0.186 HD
HETATM   43  N13 UNL     1      53.007   7.615  28.067  1.00  0.00    -0.384 N 
ATOM     44 2H13 UNL     1      53.056   8.585  28.379  1.00  0.00     0.157 HD
ATOM     45 1H13 UNL     1      52.132   7.123  28.245  1.00  0.00     0.157 HD
BRANCH  38  46
HETATM   46  N11 UNL     1      54.800   3.909  26.026  1.00  0.00    -0.234 N 
ATOM     47 2H11 UNL     1      54.809   3.146  26.704  1.00  0.00     0.174 HD
ATOM     48 1H11 UNL     1      54.692   3.711  25.032  1.00  0.00     0.174 HD
ENDBRANCH  38  46
ENDBRANCH  32  35
ENDBRANCH   6  32
TORSDOF 13
ENDMDL
MODEL 5
REMARK VINA RESULT: -4.222708998      2.296      3.434
REMARK  13 active torsions:
REMARK  status: ('A' for Active; 'I' for Inactive)
REMARK    1  A    between atoms: C4_10  and  N4_11 
REMARK       I    between atoms: N4_11  and  C5_13 
REMARK       I    between atoms: C5_13  and  N9_29 
REMARK    2  A    between atoms: N5_14  and  C6_16 
REMARK    3  A    between atoms: C6_16  and  C7_17 
REMARK    4  A    between atoms: C7_17  and  C8_18 
REMARK    5  A    between atoms: C8_18  and  N6_19 
REMARK    6  A    between atoms: N6_19  and  N7_21 
REMARK    7  A    between atoms: C9_23  and  C10_24 
REMARK    8  A    between atoms: C10_24  and  N8_25 
REMARK    9  A    between atoms: N9_29  and  O1_30 
REMARK   10  A    between atoms: N9_29  and  C11_32 
REMARK   11  A    between atoms: C11_32  and  O2_33 
REMARK   12  A    between atoms: C11_32  and  C12_35 
REMARK   13  A    between atoms: C14_39  and  N11_40 
ROOT
HETATM    1  N4  UNL     1      57.953   8.342  29.520  1.00  0.00    -0.173 N 
ATOM      2  H4  UNL     1      57.521   7.423  29.431  1.00  0.00     0.186 HD
HETATM    3  C5  UNL     1      57.106   9.483  29.531  1.00  0.00     0.704 C 
HETATM    4  N5  UNL     1      57.542  10.599  29.955  1.00  0.00    -0.224 N 
ATOM      5  H5  UNL     1      58.510  10.620  30.276  1.00  0.00     0.177 HD
HETATM    6  N9  UNL     1      55.765   9.363  29.062  1.00  0.00    -0.055 N 
ENDROOT
BRANCH   1   7
HETATM    7  C4  UNL     1      59.227   8.405  29.616  1.00  0.00     0.144 A 
HETATM    8  C2  UNL     1      59.941   8.778  28.496  1.00  0.00     0.001 A 
HETATM    9  C1  UNL     1      59.292   9.108  27.194  1.00  0.00     0.054 C 
HETATM   10  C3  UNL     1      61.316   8.861  28.546  1.00  0.00     0.119 A 
HETATM   11  N1  UNL     1      61.943   8.573  29.695  1.00  0.00    -0.297 N 
HETATM   12  N2  UNL     1      61.251   8.216  30.762  1.00  0.00    -0.241 N 
ATOM     13  H1  UNL     1      62.960   8.630  29.745  1.00  0.00     0.187 HD
HETATM   14  N3  UNL     1      59.932   8.135  30.727  1.00  0.00    -0.270 N 
ATOM     15  H2  UNL     1      61.743   8.000  31.629  1.00  0.00     0.208 HD
ATOM     16  H3  UNL     1      59.433   7.857  31.573  1.00  0.00     0.190 HD
ENDBRANCH   1   7
BRANCH   4  17
HETATM   17  C6  UNL     1      56.817  11.822  30.026  1.00  0.00     0.140 C 
BRANCH  17  18
HETATM   18  C7  UNL     1      57.417  12.900  29.147  1.00  0.00     0.041 C 
BRANCH  18  19
HETATM   19  C8  UNL     1      57.248  12.527  27.693  1.00  0.00     0.141 C 
BRANCH  19  20
HETATM   20  N6  UNL     1      56.458  13.528  27.011  1.00  0.00    -0.337 N 
ATOM     21  H6  UNL     1      55.973  14.240  27.557  1.00  0.00     0.180 HD
BRANCH  20  22
HETATM   22  N7  UNL     1      56.350  13.539  25.625  1.00  0.00    -0.319 N 
HETATM   23  C9  UNL     1      55.229  13.255  25.077  1.00  0.00     0.106 C 
ATOM     24  H7  UNL     1      57.159  13.771  25.048  1.00  0.00     0.185 HD
BRANCH  23  25
HETATM   25  C10 UNL     1      54.068  12.923  25.911  1.00  0.00     0.275 C 
BRANCH  25  26
HETATM   26  N8  UNL     1      52.805  13.008  25.187  1.00  0.00    -0.075 N 
ATOM     27  H83 UNL     1      52.350  13.906  25.353  1.00  0.00     0.274 HD
ATOM     28  H82 UNL     1      52.966  13.086  24.182  1.00  0.00     0.274 HD
ATOM     29  H81 UNL     1      52.174  12.236  25.396  1.00  0.00     0.274 HD
ENDBRANCH  25  26
ENDBRANCH  23  25
ENDBRANCH  20  22
ENDBRANCH  19  20
ENDBRANCH  18  19
ENDBRANCH  17  18
ENDBRANCH   4  17
BRANCH   6  30
HETATM   30  O1  UNL     1      54.759   9.501  29.976  1.00  0.00    -0.271 OA
ATOM     31  H1  UNL     1      53.963   9.934  29.692  1.00  0.00     0.245 HD
ENDBRANCH   6  30
BRANCH   6  32
HETATM   32  C11 UNL     1      55.487   9.139  27.658  1.00  0.00     0.304 C 
BRANCH  32  33
HETATM   33  O2  UNL     1      54.465  10.009  27.296  1.00  0.00    -0.369 OA
ATOM     34  H2  UNL     1      54.209  10.484  28.078  1.00  0.00     0.212 HD
ENDBRANCH  32  33
BRANCH  32  35
HETATM   35  C12 UNL     1      55.234   7.757  27.275  1.00  0.00     0.053 A 
HETATM   36  C13 UNL     1      56.250   7.061  26.628  1.00  0.00     0.121 A 
HETATM   37  N10 UNL     1      56.133   5.818  26.165  1.00  0.00    -0.201 N 
HETATM   38  C14 UNL     1      54.949   5.205  26.341  1.00  0.00     0.677 A 
ATOM     39  H10 UNL     1      56.910   5.350  25.697  1.00  0.00     0.183 HD
HETATM   40  N12 UNL     1      53.954   5.837  26.956  1.00  0.00    -0.177 N 
HETATM   41  C15 UNL     1      54.038   7.114  27.446  1.00  0.00     0.126 A 
ATOM     42  H12 UNL     1      53.071   5.339  27.070  1.00  0.00     0.186 HD
HETATM   43  N13 UNL     1      53.040   7.611  28.079  1.00  0.00    -0.384 N 
ATOM     44 2H13 UNL     1      53.102   8.561  28.444  1.00  0.00     0.157 HD
ATOM     45 1H13 UNL     1      52.149   7.131  28.207  1.00  0.00     0.157 HD
BRANCH  38  46
HETATM   46  N11 UNL     1      54.808   3.977  25.893  1.00  0.00    -0.234 N 
ATOM     47 2H11 UNL     1      53.895   3.521  25.869  1.00  0.00     0.174 HD
ATOM     48 1H11 UNL     1      55.637   3.482  25.565  1.00  0.00     0.174 HD
ENDBRANCH  38  46
ENDBRANCH  32  35
ENDBRANCH   6  32
TORSDOF 13
ENDMDL
