MODEL 1
REMARK VINA RESULT: -2.725901392      0.000      0.000
REMARK  10 active torsions:
REMARK  status: ('A' for Active; 'I' for Inactive)
REMARK    1  A    between atoms: N1_1  and  C1_4 
REMARK    2  A    between atoms: C3_8  and  C4_9 
REMARK    3  A    between atoms: C7_14  and  N4_15 
REMARK    4  A    between atoms: N4_15  and  C8_16 
REMARK    5  A    between atoms: N4_15  and  C10_20 
REMARK    6  A    between atoms: C8_16  and  C9_17 
REMARK    7  A    between atoms: C9_17  and  O1_18 
REMARK    8  A    between atoms: C10_20  and  C11_21 
REMARK    9  A    between atoms: C11_21  and  O2_22 
REMARK   10  A    between atoms: C14_31  and  N7_32 
REMARK       I    between atoms: N7_32  and  C15_34 
REMARK       I    between atoms: C15_34  and  N8_35 
REMARK       I    between atoms: C15_34  and  N9_39 
ROOT
HETATM    1  C4  UNL     1      57.102   6.967  27.347  1.00  0.00     0.051 A 
HETATM    2  C5  UNL     1      57.633   6.645  26.140  1.00  0.00     0.061 A 
HETATM    3  C6  UNL     1      59.032   6.713  26.008  1.00  0.00     0.069 A 
HETATM    4  N3  UNL     1      59.620   6.396  24.856  1.00  0.00    -0.191 N 
ATOM      5  H3  UNL     1      59.048   6.114  24.060  1.00  0.00     0.184 HD
HETATM    6  C7  UNL     1      60.969   6.444  24.726  1.00  0.00     0.682 A 
HETATM    7  N5  UNL     1      61.753   6.804  25.723  1.00  0.00    -0.176 N 
ATOM      8  H5  UNL     1      62.766   6.831  25.599  1.00  0.00     0.186 HD
HETATM    9  C12 UNL     1      61.201   7.135  26.911  1.00  0.00     0.131 A 
HETATM   10  N6  UNL     1      61.979   7.476  27.862  1.00  0.00    -0.384 N 
ATOM     11  H61 UNL     1      61.561   7.726  28.759  1.00  0.00     0.157 HD
ATOM     12  H62 UNL     1      62.993   7.508  27.752  1.00  0.00     0.157 HD
HETATM   13  C13 UNL     1      59.818   7.091  27.060  1.00  0.00     0.079 A 
HETATM   14  C14 UNL     1      59.263   7.417  28.282  1.00  0.00     0.120 A 
HETATM   15  N10 UNL     1      57.931   7.339  28.367  1.00  0.00    -0.341 N 
ATOM     16  H10 UNL     1      57.501   7.575  29.262  1.00  0.00     0.167 HD
ENDROOT
BRANCH   1  17
HETATM   17  C3  UNL     1      55.660   6.973  27.560  1.00  0.00     0.048 A 
HETATM   18  C2  UNL     1      54.878   5.885  27.175  1.00  0.00     0.123 A 
HETATM   19  N2  UNL     1      53.545   5.900  27.296  1.00  0.00    -0.201 N 
HETATM   20  C1  UNL     1      52.883   6.952  27.790  1.00  0.00     0.676 A 
ATOM     21  H2  UNL     1      53.015   5.080  27.000  1.00  0.00     0.183 HD
HETATM   22  N12 UNL     1      53.610   8.013  28.169  1.00  0.00    -0.178 N 
HETATM   23  C16 UNL     1      54.963   8.042  28.064  1.00  0.00     0.145 A 
ATOM     24  H12 UNL     1      53.130   8.827  28.549  1.00  0.00     0.185 HD
HETATM   25  N11 UNL     1      55.561   9.259  28.467  1.00  0.00    -0.081 NA
BRANCH  20  26
HETATM   26  N1  UNL     1      51.592   7.007  27.935  1.00  0.00    -0.234 N 
ATOM     27  H12 UNL     1      51.109   6.178  28.279  1.00  0.00     0.174 HD
ATOM     28  H11 UNL     1      51.022   7.824  27.719  1.00  0.00     0.174 HD
ENDBRANCH  20  26
ENDBRANCH   1  17
BRANCH  14  29
HETATM   29  N7  UNL     1      60.054   7.761  29.216  1.00  0.00    -0.326 N 
HETATM   30  C15 UNL     1      59.872   8.754  30.218  1.00  0.00     0.481 C 
HETATM   31  N8  UNL     1      59.590   8.179  31.530  1.00  0.00    -0.033 N 
HETATM   32  N9  UNL     1      61.118   9.519  30.303  1.00  0.00    -0.033 N 
ATOM     33  H83 UNL     1      58.790   7.547  31.490  1.00  0.00     0.278 HD
ATOM     34  H82 UNL     1      60.313   7.511  31.801  1.00  0.00     0.278 HD
ATOM     35  H81 UNL     1      59.460   8.890  32.248  1.00  0.00     0.278 HD
ATOM     36  H93 UNL     1      61.936   8.932  30.467  1.00  0.00     0.278 HD
ATOM     37  H92 UNL     1      61.410   9.906  29.406  1.00  0.00     0.278 HD
ATOM     38  H91 UNL     1      60.987  10.230  31.022  1.00  0.00     0.278 HD
ATOM     39  H7  UNL     1      60.941   7.257  29.250  1.00  0.00     0.164 HD
ENDBRANCH  14  29
BRANCH   6  40
HETATM   40  N4  UNL     1      61.457   6.111  23.434  1.00  0.00    -0.214 N 
BRANCH  40  41
HETATM   41  C8  UNL     1      62.883   6.149  23.249  1.00  0.00     0.167 C 
BRANCH  41  42
HETATM   42  C9  UNL     1      63.535   4.805  23.382  1.00  0.00     0.184 C 
BRANCH  42  43
HETATM   43  O1  UNL     1      63.893   4.525  24.699  1.00  0.00    -0.399 OA
ATOM     44  H1  UNL     1      64.829   4.401  24.796  1.00  0.00     0.209 HD
ENDBRANCH  42  43
ENDBRANCH  41  42
ENDBRANCH  40  41
BRANCH  40  45
HETATM   45  C10 UNL     1      60.526   5.778  22.384  1.00  0.00     0.167 C 
BRANCH  45  46
HETATM   46  C11 UNL     1      61.145   5.847  20.994  1.00  0.00     0.184 C 
BRANCH  46  47
HETATM   47  O2  UNL     1      60.175   5.391  20.115  1.00  0.00    -0.399 OA
ATOM     48  H2  UNL     1      60.635   5.113  19.333  1.00  0.00     0.209 HD
ENDBRANCH  46  47
ENDBRANCH  45  46
ENDBRANCH  40  45
ENDBRANCH   6  40
TORSDOF 10
ENDMDL
MODEL 2
REMARK VINA RESULT: -2.653475565      0.252      1.823
REMARK  10 active torsions:
REMARK  status: ('A' for Active; 'I' for Inactive)
REMARK    1  A    between atoms: N1_1  and  C1_4 
REMARK    2  A    between atoms: C3_8  and  C4_9 
REMARK    3  A    between atoms: C7_14  and  N4_15 
REMARK    4  A    between atoms: N4_15  and  C8_16 
REMARK    5  A    between atoms: N4_15  and  C10_20 
REMARK    6  A    between atoms: C8_16  and  C9_17 
REMARK    7  A    between atoms: C9_17  and  O1_18 
REMARK    8  A    between atoms: C10_20  and  C11_21 
REMARK    9  A    between atoms: C11_21  and  O2_22 
REMARK   10  A    between atoms: C14_31  and  N7_32 
REMARK       I    between atoms: N7_32  and  C15_34 
REMARK       I    between atoms: C15_34  and  N8_35 
REMARK       I    between atoms: C15_34  and  N9_39 
ROOT
HETATM    1  C4  UNL     1      57.138   6.980  27.349  1.00  0.00     0.051 A 
HETATM    2  C5  UNL     1      57.682   6.650  26.149  1.00  0.00     0.061 A 
HETATM    3  C6  UNL     1      59.081   6.724  26.030  1.00  0.00     0.069 A 
HETATM    4  N3  UNL     1      59.682   6.401  24.887  1.00  0.00    -0.191 N 
ATOM      5  H3  UNL     1      59.119   6.110  24.088  1.00  0.00     0.184 HD
HETATM    6  C7  UNL     1      61.032   6.456  24.769  1.00  0.00     0.682 A 
HETATM    7  N5  UNL     1      61.805   6.827  25.770  1.00  0.00    -0.176 N 
ATOM      8  H5  UNL     1      62.819   6.859  25.655  1.00  0.00     0.186 HD
HETATM    9  C12 UNL     1      61.240   7.165  26.950  1.00  0.00     0.131 A 
HETATM   10  N6  UNL     1      62.007   7.517  27.906  1.00  0.00    -0.384 N 
ATOM     11  H61 UNL     1      61.580   7.773  28.797  1.00  0.00     0.157 HD
ATOM     12  H62 UNL     1      63.022   7.554  27.805  1.00  0.00     0.157 HD
HETATM   13  C13 UNL     1      59.856   7.115  27.087  1.00  0.00     0.079 A 
HETATM   14  C14 UNL     1      59.287   7.448  28.301  1.00  0.00     0.120 A 
HETATM   15  N10 UNL     1      57.956   7.364  28.374  1.00  0.00    -0.341 N 
ATOM     16  H10 UNL     1      57.516   7.605  29.262  1.00  0.00     0.167 HD
ENDROOT
BRANCH   1  17
HETATM   17  C3  UNL     1      55.694   6.980  27.548  1.00  0.00     0.048 A 
HETATM   18  C2  UNL     1      54.918   5.894  27.145  1.00  0.00     0.123 A 
HETATM   19  N2  UNL     1      53.584   5.905  27.253  1.00  0.00    -0.201 N 
HETATM   20  C1  UNL     1      52.915   6.950  27.752  1.00  0.00     0.676 A 
ATOM     21  H2  UNL     1      53.059   5.087  26.944  1.00  0.00     0.183 HD
HETATM   22  N12 UNL     1      53.636   8.008  28.148  1.00  0.00    -0.178 N 
HETATM   23  C16 UNL     1      54.989   8.042  28.057  1.00  0.00     0.145 A 
ATOM     24  H12 UNL     1      53.150   8.818  28.533  1.00  0.00     0.185 HD
HETATM   25  N11 UNL     1      55.581   9.256  28.478  1.00  0.00    -0.081 NA
BRANCH  20  26
HETATM   26  N1  UNL     1      51.623   7.000  27.885  1.00  0.00    -0.234 N 
ATOM     27  H12 UNL     1      51.073   7.393  27.122  1.00  0.00     0.174 HD
ATOM     28  H11 UNL     1      51.115   6.678  28.709  1.00  0.00     0.174 HD
ENDBRANCH  20  26
ENDBRANCH   1  17
BRANCH  14  29
HETATM   29  N7  UNL     1      60.069   7.804  29.239  1.00  0.00    -0.326 N 
HETATM   30  C15 UNL     1      59.856   8.777  30.255  1.00  0.00     0.481 C 
HETATM   31  N8  UNL     1      59.593   8.174  31.559  1.00  0.00    -0.033 N 
HETATM   32  N9  UNL     1      61.076   9.579  30.351  1.00  0.00    -0.033 N 
ATOM     33  H83 UNL     1      58.814   7.517  31.510  1.00  0.00     0.278 HD
ATOM     34  H82 UNL     1      60.337   7.525  31.820  1.00  0.00     0.278 HD
ATOM     35  H81 UNL     1      59.440   8.870  32.287  1.00  0.00     0.278 HD
ATOM     36  H93 UNL     1      61.913   9.016  30.506  1.00  0.00     0.278 HD
ATOM     37  H92 UNL     1      61.355   9.988  29.459  1.00  0.00     0.278 HD
ATOM     38  H91 UNL     1      60.923  10.276  31.080  1.00  0.00     0.278 HD
ATOM     39  H7  UNL     1      60.970   7.328  29.266  1.00  0.00     0.164 HD
ENDBRANCH  14  29
BRANCH   6  40
HETATM   40  N4  UNL     1      61.534   6.114  23.485  1.00  0.00    -0.214 N 
BRANCH  40  41
HETATM   41  C8  UNL     1      60.565   5.763  22.481  1.00  0.00     0.167 C 
BRANCH  41  42
HETATM   42  C9  UNL     1      60.993   6.123  21.090  1.00  0.00     0.184 C 
BRANCH  42  43
HETATM   43  O1  UNL     1      61.395   5.007  20.361  1.00  0.00    -0.399 OA
ATOM     44  H1  UNL     1      61.706   5.239  19.495  1.00  0.00     0.209 HD
ENDBRANCH  42  43
ENDBRANCH  41  42
ENDBRANCH  40  41
BRANCH  40  45
HETATM   45  C10 UNL     1      62.957   6.111  23.253  1.00  0.00     0.167 C 
BRANCH  45  46
HETATM   46  C11 UNL     1      63.574   4.721  23.348  1.00  0.00     0.184 C 
BRANCH  46  47
HETATM   47  O2  UNL     1      63.859   4.515  24.689  1.00  0.00    -0.399 OA
ATOM     48  H2  UNL     1      63.051   4.215  25.089  1.00  0.00     0.209 HD
ENDBRANCH  46  47
ENDBRANCH  45  46
ENDBRANCH  40  45
ENDBRANCH   6  40
TORSDOF 10
ENDMDL
MODEL 3
REMARK VINA RESULT: -2.402079030      3.944      8.355
REMARK  10 active torsions:
REMARK  status: ('A' for Active; 'I' for Inactive)
REMARK    1  A    between atoms: N1_1  and  C1_4 
REMARK    2  A    between atoms: C3_8  and  C4_9 
REMARK    3  A    between atoms: C7_14  and  N4_15 
REMARK    4  A    between atoms: N4_15  and  C8_16 
REMARK    5  A    between atoms: N4_15  and  C10_20 
REMARK    6  A    between atoms: C8_16  and  C9_17 
REMARK    7  A    between atoms: C9_17  and  O1_18 
REMARK    8  A    between atoms: C10_20  and  C11_21 
REMARK    9  A    between atoms: C11_21  and  O2_22 
REMARK   10  A    between atoms: C14_31  and  N7_32 
REMARK       I    between atoms: N7_32  and  C15_34 
REMARK       I    between atoms: C15_34  and  N8_35 
REMARK       I    between atoms: C15_34  and  N9_39 
ROOT
HETATM    1  C4  UNL     1      59.754   7.197  26.202  1.00  0.00     0.051 A 
HETATM    2  C5  UNL     1      59.734   8.410  26.811  1.00  0.00     0.061 A 
HETATM    3  C6  UNL     1      58.585   8.745  27.550  1.00  0.00     0.069 A 
HETATM    4  N3  UNL     1      58.503   9.913  28.185  1.00  0.00    -0.191 N 
ATOM      5  H3  UNL     1      59.278  10.574  28.123  1.00  0.00     0.184 HD
HETATM    6  C7  UNL     1      57.405  10.237  28.912  1.00  0.00     0.682 A 
HETATM    7  N5  UNL     1      56.377   9.419  29.023  1.00  0.00    -0.176 N 
ATOM      8  H5  UNL     1      55.562   9.686  29.576  1.00  0.00     0.186 HD
HETATM    9  C12 UNL     1      56.414   8.223  28.395  1.00  0.00     0.131 A 
HETATM   10  N6  UNL     1      55.410   7.447  28.519  1.00  0.00    -0.384 N 
ATOM     11  H61 UNL     1      55.438   6.544  28.044  1.00  0.00     0.157 HD
ATOM     12  H62 UNL     1      54.588   7.701  29.069  1.00  0.00     0.157 HD
HETATM   13  C13 UNL     1      57.533   7.876  27.645  1.00  0.00     0.079 A 
HETATM   14  C14 UNL     1      57.569   6.646  27.018  1.00  0.00     0.120 A 
HETATM   15  N10 UNL     1      58.678   6.365  26.327  1.00  0.00    -0.341 N 
ATOM     16  H10 UNL     1      58.724   5.461  25.857  1.00  0.00     0.167 HD
ENDROOT
BRANCH   1  17
HETATM   17  C3  UNL     1      60.882   6.787  25.375  1.00  0.00     0.048 A 
HETATM   18  C2  UNL     1      62.193   7.034  25.783  1.00  0.00     0.123 A 
HETATM   19  N2  UNL     1      63.239   6.731  25.005  1.00  0.00    -0.201 N 
HETATM   20  C1  UNL     1      63.096   6.174  23.797  1.00  0.00     0.676 A 
ATOM     21  H2  UNL     1      64.180   6.931  25.347  1.00  0.00     0.183 HD
HETATM   22  N12 UNL     1      61.847   5.925  23.380  1.00  0.00    -0.178 N 
HETATM   23  C16 UNL     1      60.757   6.217  24.133  1.00  0.00     0.145 A 
ATOM     24  H12 UNL     1      61.711   5.501  22.463  1.00  0.00     0.185 HD
HETATM   25  N11 UNL     1      59.517   5.929  23.516  1.00  0.00    -0.081 NA
BRANCH  20  26
HETATM   26  N1  UNL     1      64.083   5.854  23.015  1.00  0.00    -0.234 N 
ATOM     27  H12 UNL     1      64.428   6.555  22.360  1.00  0.00     0.174 HD
ATOM     28  H11 UNL     1      64.536   4.940  23.002  1.00  0.00     0.174 HD
ENDBRANCH  20  26
ENDBRANCH   1  17
BRANCH  14  29
HETATM   29  N7  UNL     1      56.555   5.890  27.147  1.00  0.00    -0.326 N 
HETATM   30  C15 UNL     1      55.812   5.214  26.140  1.00  0.00     0.481 C 
HETATM   31  N8  UNL     1      56.086   3.780  26.112  1.00  0.00    -0.033 N 
HETATM   32  N9  UNL     1      54.394   5.410  26.440  1.00  0.00    -0.033 N 
ATOM     33  H83 UNL     1      57.086   3.598  26.015  1.00  0.00     0.278 HD
ATOM     34  H82 UNL     1      55.931   3.358  27.028  1.00  0.00     0.278 HD
ATOM     35  H81 UNL     1      55.555   3.295  25.389  1.00  0.00     0.278 HD
ATOM     36  H93 UNL     1      54.141   5.119  27.384  1.00  0.00     0.278 HD
ATOM     37  H92 UNL     1      54.138   6.394  26.532  1.00  0.00     0.278 HD
ATOM     38  H91 UNL     1      53.862   4.926  25.717  1.00  0.00     0.278 HD
ATOM     39  H7  UNL     1      56.229   5.749  28.104  1.00  0.00     0.164 HD
ENDBRANCH  14  29
BRANCH   6  40
HETATM   40  N4  UNL     1      57.442  11.524  29.509  1.00  0.00    -0.214 N 
BRANCH  40  41
HETATM   41  C8  UNL     1      57.401  12.654  28.619  1.00  0.00     0.167 C 
BRANCH  41  42
HETATM   42  C9  UNL     1      56.252  12.611  27.657  1.00  0.00     0.184 C 
BRANCH  42  43
HETATM   43  O1  UNL     1      55.868  13.883  27.242  1.00  0.00    -0.399 OA
ATOM     44  H1  UNL     1      56.072  14.037  26.327  1.00  0.00     0.209 HD
ENDBRANCH  42  43
ENDBRANCH  41  42
ENDBRANCH  40  41
BRANCH  40  45
HETATM   45  C10 UNL     1      57.539  11.643  30.943  1.00  0.00     0.167 C 
BRANCH  45  46
HETATM   46  C11 UNL     1      58.189  12.946  31.391  1.00  0.00     0.184 C 
BRANCH  46  47
HETATM   47  O2  UNL     1      58.501  12.782  32.732  1.00  0.00    -0.399 OA
ATOM     48  H2  UNL     1      59.446  12.856  32.795  1.00  0.00     0.209 HD
ENDBRANCH  46  47
ENDBRANCH  45  46
ENDBRANCH  40  45
ENDBRANCH   6  40
TORSDOF 10
ENDMDL
MODEL 4
REMARK VINA RESULT: -2.391513207      3.948      8.149
REMARK  10 active torsions:
REMARK  status: ('A' for Active; 'I' for Inactive)
REMARK    1  A    between atoms: N1_1  and  C1_4 
REMARK    2  A    between atoms: C3_8  and  C4_9 
REMARK    3  A    between atoms: C7_14  and  N4_15 
REMARK    4  A    between atoms: N4_15  and  C8_16 
REMARK    5  A    between atoms: N4_15  and  C10_20 
REMARK    6  A    between atoms: C8_16  and  C9_17 
REMARK    7  A    between atoms: C9_17  and  O1_18 
REMARK    8  A    between atoms: C10_20  and  C11_21 
REMARK    9  A    between atoms: C11_21  and  O2_22 
REMARK   10  A    between atoms: C14_31  and  N7_32 
REMARK       I    between atoms: N7_32  and  C15_34 
REMARK       I    between atoms: C15_34  and  N8_35 
REMARK       I    between atoms: C15_34  and  N9_39 
ROOT
HETATM    1  C4  UNL     1      59.750   7.206  26.201  1.00  0.00     0.051 A 
HETATM    2  C5  UNL     1      59.727   8.423  26.803  1.00  0.00     0.061 A 
HETATM    3  C6  UNL     1      58.577   8.759  27.541  1.00  0.00     0.069 A 
HETATM    4  N3  UNL     1      58.494   9.930  28.169  1.00  0.00    -0.191 N 
ATOM      5  H3  UNL     1      59.267  10.592  28.103  1.00  0.00     0.184 HD
HETATM    6  C7  UNL     1      57.395  10.255  28.895  1.00  0.00     0.682 A 
HETATM    7  N5  UNL     1      56.369   9.436  29.011  1.00  0.00    -0.176 N 
ATOM      8  H5  UNL     1      55.554   9.705  29.563  1.00  0.00     0.186 HD
HETATM    9  C12 UNL     1      56.408   8.237  28.389  1.00  0.00     0.131 A 
HETATM   10  N6  UNL     1      55.406   7.459  28.518  1.00  0.00    -0.384 N 
ATOM     11  H61 UNL     1      55.436   6.553  28.049  1.00  0.00     0.157 HD
ATOM     12  H62 UNL     1      54.584   7.714  29.067  1.00  0.00     0.157 HD
HETATM   13  C13 UNL     1      57.528   7.888  27.641  1.00  0.00     0.079 A 
HETATM   14  C14 UNL     1      57.566   6.654  27.021  1.00  0.00     0.120 A 
HETATM   15  N10 UNL     1      58.676   6.372  26.331  1.00  0.00    -0.341 N 
ATOM     16  H10 UNL     1      58.724   5.465  25.867  1.00  0.00     0.167 HD
ENDROOT
BRANCH   1  17
HETATM   17  C3  UNL     1      60.879   6.794  25.375  1.00  0.00     0.048 A 
HETATM   18  C2  UNL     1      62.189   7.042  25.784  1.00  0.00     0.123 A 
HETATM   19  N2  UNL     1      63.236   6.736  25.008  1.00  0.00    -0.201 N 
HETATM   20  C1  UNL     1      63.094   6.177  23.801  1.00  0.00     0.676 A 
ATOM     21  H2  UNL     1      64.176   6.937  25.349  1.00  0.00     0.183 HD
HETATM   22  N12 UNL     1      61.845   5.927  23.384  1.00  0.00    -0.178 N 
HETATM   23  C16 UNL     1      60.754   6.220  24.135  1.00  0.00     0.145 A 
ATOM     24  H12 UNL     1      61.710   5.501  22.468  1.00  0.00     0.185 HD
HETATM   25  N11 UNL     1      59.514   5.931  23.518  1.00  0.00    -0.081 NA
BRANCH  20  26
HETATM   26  N1  UNL     1      64.081   5.855  23.020  1.00  0.00    -0.234 N 
ATOM     27  H12 UNL     1      64.549   6.597  22.501  1.00  0.00     0.174 HD
ATOM     28  H11 UNL     1      64.420   4.903  22.882  1.00  0.00     0.174 HD
ENDBRANCH  20  26
ENDBRANCH   1  17
BRANCH  14  29
HETATM   29  N7  UNL     1      56.554   5.897  27.155  1.00  0.00    -0.326 N 
HETATM   30  C15 UNL     1      55.813   5.214  26.152  1.00  0.00     0.481 C 
HETATM   31  N8  UNL     1      56.090   3.780  26.131  1.00  0.00    -0.033 N 
HETATM   32  N9  UNL     1      54.394   5.409  26.452  1.00  0.00    -0.033 N 
ATOM     33  H83 UNL     1      57.089   3.600  26.035  1.00  0.00     0.278 HD
ATOM     34  H82 UNL     1      55.936   3.363  27.050  1.00  0.00     0.278 HD
ATOM     35  H81 UNL     1      55.559   3.290  25.411  1.00  0.00     0.278 HD
ATOM     36  H93 UNL     1      54.142   5.122  27.398  1.00  0.00     0.278 HD
ATOM     37  H92 UNL     1      54.136   6.392  26.539  1.00  0.00     0.278 HD
ATOM     38  H91 UNL     1      53.863   4.919  25.732  1.00  0.00     0.278 HD
ATOM     39  H7  UNL     1      56.230   5.760  28.113  1.00  0.00     0.164 HD
ENDBRANCH  14  29
BRANCH   6  40
HETATM   40  N4  UNL     1      57.429  11.547  29.484  1.00  0.00    -0.214 N 
BRANCH  40  41
HETATM   41  C8  UNL     1      57.561  11.604  30.916  1.00  0.00     0.167 C 
BRANCH  41  42
HETATM   42  C9  UNL     1      58.155  12.890  31.407  1.00  0.00     0.184 C 
BRANCH  42  43
HETATM   43  O1  UNL     1      58.506  12.824  32.753  1.00  0.00    -0.399 OA
ATOM     44  H1  UNL     1      58.340  13.642  33.205  1.00  0.00     0.209 HD
ENDBRANCH  42  43
ENDBRANCH  41  42
ENDBRANCH  40  41
BRANCH  40  45
HETATM   45  C10 UNL     1      57.311  12.716  28.648  1.00  0.00     0.167 C 
BRANCH  45  46
HETATM   46  C11 UNL     1      56.215  12.590  27.598  1.00  0.00     0.184 C 
BRANCH  46  47
HETATM   47  O2  UNL     1      55.873  13.885  27.239  1.00  0.00    -0.399 OA
ATOM     48  H2  UNL     1      55.265  13.806  26.513  1.00  0.00     0.209 HD
ENDBRANCH  46  47
ENDBRANCH  45  46
ENDBRANCH  40  45
ENDBRANCH   6  40
TORSDOF 10
ENDMDL
MODEL 5
REMARK VINA RESULT: -2.291217072      1.992      4.480
REMARK  10 active torsions:
REMARK  status: ('A' for Active; 'I' for Inactive)
REMARK    1  A    between atoms: N1_1  and  C1_4 
REMARK    2  A    between atoms: C3_8  and  C4_9 
REMARK    3  A    between atoms: C7_14  and  N4_15 
REMARK    4  A    between atoms: N4_15  and  C8_16 
REMARK    5  A    between atoms: N4_15  and  C10_20 
REMARK    6  A    between atoms: C8_16  and  C9_17 
REMARK    7  A    between atoms: C9_17  and  O1_18 
REMARK    8  A    between atoms: C10_20  and  C11_21 
REMARK    9  A    between atoms: C11_21  and  O2_22 
REMARK   10  A    between atoms: C14_31  and  N7_32 
REMARK       I    between atoms: N7_32  and  C15_34 
REMARK       I    between atoms: C15_34  and  N8_35 
REMARK       I    between atoms: C15_34  and  N9_39 
ROOT
HETATM    1  C4  UNL     1      58.385   8.317  27.778  1.00  0.00     0.051 A 
HETATM    2  C5  UNL     1      59.510   8.286  27.019  1.00  0.00     0.061 A 
HETATM    3  C6  UNL     1      59.683   7.184  26.162  1.00  0.00     0.069 A 
HETATM    4  N3  UNL     1      60.756   7.096  25.379  1.00  0.00    -0.191 N 
ATOM      5  H3  UNL     1      61.463   7.830  25.411  1.00  0.00     0.184 HD
HETATM    6  C7  UNL     1      60.922   6.044  24.538  1.00  0.00     0.682 A 
HETATM    7  N5  UNL     1      60.038   5.069  24.459  1.00  0.00    -0.176 N 
ATOM      8  H5  UNL     1      60.186   4.289  23.818  1.00  0.00     0.186 HD
HETATM    9  C12 UNL     1      58.933   5.115  25.236  1.00  0.00     0.131 A 
HETATM   10  N6  UNL     1      58.090   4.163  25.140  1.00  0.00    -0.384 N 
ATOM     11  H61 UNL     1      57.256   4.198  25.727  1.00  0.00     0.157 HD
ATOM     12  H62 UNL     1      58.225   3.377  24.504  1.00  0.00     0.157 HD
HETATM   13  C13 UNL     1      58.748   6.187  26.103  1.00  0.00     0.079 A 
HETATM   14  C14 UNL     1      57.609   6.233  26.883  1.00  0.00     0.120 A 
HETATM   15  N10 UNL     1      57.482   7.296  27.683  1.00  0.00    -0.341 N 
ATOM     16  H10 UNL     1      56.647   7.350  28.267  1.00  0.00     0.167 HD
ENDROOT
BRANCH   1  17
HETATM   17  C3  UNL     1      58.148   9.395  28.731  1.00  0.00     0.048 A 
HETATM   18  C2  UNL     1      57.139  10.332  28.510  1.00  0.00     0.123 A 
HETATM   19  N2  UNL     1      56.952  11.370  29.335  1.00  0.00    -0.201 N 
HETATM   20  C1  UNL     1      57.714  11.572  30.416  1.00  0.00     0.676 A 
ATOM     21  H2  UNL     1      56.202  12.031  29.132  1.00  0.00     0.183 HD
HETATM   22  N12 UNL     1      58.691  10.685  30.652  1.00  0.00    -0.178 N 
HETATM   23  C16 UNL     1      58.918   9.620  29.844  1.00  0.00     0.145 A 
ATOM     24  H12 UNL     1      59.286  10.816  31.470  1.00  0.00     0.185 HD
HETATM   25  N11 UNL     1      60.019   8.815  30.220  1.00  0.00    -0.081 NA
BRANCH  20  26
HETATM   26  N1  UNL     1      57.562  12.558  31.248  1.00  0.00    -0.234 N 
ATOM     27  H12 UNL     1      57.207  13.444  30.889  1.00  0.00     0.174 HD
ATOM     28  H11 UNL     1      57.782  12.512  32.243  1.00  0.00     0.174 HD
ENDBRANCH  20  26
ENDBRANCH   1  17
BRANCH  14  29
HETATM   29  N7  UNL     1      56.785   5.271  26.779  1.00  0.00    -0.326 N 
HETATM   30  C15 UNL     1      55.403   5.314  26.445  1.00  0.00     0.481 C 
HETATM   31  N8  UNL     1      55.142   4.851  25.085  1.00  0.00    -0.033 N 
HETATM   32  N9  UNL     1      54.703   4.431  27.379  1.00  0.00    -0.033 N 
ATOM     33  H83 UNL     1      55.699   5.370  24.407  1.00  0.00     0.278 HD
ATOM     34  H82 UNL     1      55.528   3.918  24.934  1.00  0.00     0.278 HD
ATOM     35  H81 UNL     1      54.151   4.882  24.846  1.00  0.00     0.278 HD
ATOM     36  H93 UNL     1      55.081   3.483  27.393  1.00  0.00     0.278 HD
ATOM     37  H92 UNL     1      54.885   4.659  28.357  1.00  0.00     0.278 HD
ATOM     38  H91 UNL     1      53.712   4.462  27.140  1.00  0.00     0.278 HD
ATOM     39  H7  UNL     1      57.167   4.342  26.959  1.00  0.00     0.164 HD
ENDBRANCH  14  29
BRANCH   6  40
HETATM   40  N4  UNL     1      62.125   6.065  23.786  1.00  0.00    -0.214 N 
BRANCH  40  41
HETATM   41  C8  UNL     1      63.322   5.642  24.462  1.00  0.00     0.167 C 
BRANCH  41  42
HETATM   42  C9  UNL     1      64.028   4.513  23.772  1.00  0.00     0.184 C 
BRANCH  42  43
HETATM   43  O1  UNL     1      64.537   3.584  24.676  1.00  0.00    -0.399 OA
ATOM     44  H1  UNL     1      64.704   3.969  25.528  1.00  0.00     0.209 HD
ENDBRANCH  42  43
ENDBRANCH  41  42
ENDBRANCH  40  41
BRANCH  40  45
HETATM   45  C10 UNL     1      62.103   6.519  22.417  1.00  0.00     0.167 C 
BRANCH  45  46
HETATM   46  C11 UNL     1      61.100   5.763  21.555  1.00  0.00     0.184 C 
BRANCH  46  47
HETATM   47  O2  UNL     1      61.840   5.112  20.580  1.00  0.00    -0.399 OA
ATOM     48  H2  UNL     1      61.239   4.931  19.867  1.00  0.00     0.209 HD
ENDBRANCH  46  47
ENDBRANCH  45  46
ENDBRANCH  40  45
ENDBRANCH   6  40
TORSDOF 10
ENDMDL
