MODEL 1
REMARK VINA RESULT: -6.113913061      0.000      0.000
REMARK  13 active torsions:
REMARK  status: ('A' for Active; 'I' for Inactive)
REMARK    1  A    between atoms: N1_1  and  C1_4 
REMARK    2  A    between atoms: C2_7  and  N3_8 
REMARK    3  A    between atoms: N3_8  and  N4_10 
REMARK    4  A    between atoms: C4_20  and  C5_21 
REMARK    5  A    between atoms: C6_24  and  C7_25 
REMARK    6  A    between atoms: C7_25  and  S1_26 
REMARK    7  A    between atoms: S1_26  and  C8_27 
REMARK    8  A    between atoms: C8_27  and  C9_28 
REMARK    9  A    between atoms: C9_28  and  O1_29 
REMARK   10  A    between atoms: C9_28  and  C10_31 
REMARK   11  A    between atoms: C10_31  and  O2_32 
REMARK   12  A    between atoms: C10_31  and  C11_34 
REMARK   13  A    between atoms: C11_34  and  O3_35 
ROOT
HETATM    1  C1  UNL     1      60.481   7.453  26.655  1.00  0.00     0.130 A 
HETATM    2  N2  UNL     1      61.740   7.460  26.193  1.00  0.00    -0.175 N 
ATOM      3  H2  UNL     1      62.398   8.152  26.551  1.00  0.00     0.186 HD
HETATM    4  C2  UNL     1      62.157   6.567  25.261  1.00  0.00     0.699 A 
HETATM    5  N5  UNL     1      61.322   5.640  24.767  1.00  0.00    -0.173 N 
ATOM      6  H5  UNL     1      61.652   4.977  24.067  1.00  0.00     0.186 HD
HETATM    7  C3  UNL     1      60.040   5.589  25.199  1.00  0.00     0.151 A 
HETATM    8  N6  UNL     1      59.173   4.680  24.728  1.00  0.00    -0.284 N 
ATOM      9  H6  UNL     1      59.492   4.011  24.028  1.00  0.00     0.188 HD
HETATM   10  N7  UNL     1      57.912   4.621  25.144  1.00  0.00    -0.294 N 
ATOM     11  H7  UNL     1      57.296   3.908  24.753  1.00  0.00     0.187 HD
HETATM   12  C4  UNL     1      57.426   5.468  26.061  1.00  0.00     0.117 A 
HETATM   13  C13 UNL     1      58.282   6.413  26.567  1.00  0.00     0.096 A 
HETATM   14  N10 UNL     1      57.836   7.333  27.533  1.00  0.00    -0.099 NA
HETATM   15  C14 UNL     1      59.611   6.510  26.160  1.00  0.00     0.081 A 
ENDROOT
BRANCH  12  16
HETATM   16  C5  UNL     1      56.040   5.419  26.522  1.00  0.00     0.136 A 
HETATM   17  N8  UNL     1      55.256   6.387  26.976  1.00  0.00    -0.342 N 
HETATM   18  C6  UNL     1      54.027   5.883  27.292  1.00  0.00     0.035 A 
ATOM     19  H8  UNL     1      55.531   7.364  27.076  1.00  0.00     0.167 HD
HETATM   20  C12 UNL     1      54.074   4.554  27.014  1.00  0.00     0.115 A 
HETATM   21  N9  UNL     1      55.318   4.294  26.544  1.00  0.00    -0.348 N 
ATOM     22  H9  UNL     1      55.653   3.377  26.250  1.00  0.00     0.167 HD
BRANCH  18  23
HETATM   23  C7  UNL     1      52.894   6.736  27.843  1.00  0.00     0.132 C 
BRANCH  23  24
HETATM   24  S1  UNL     1      53.308   8.460  27.744  1.00  0.00    -0.160 SA
BRANCH  24  25
HETATM   25  C8  UNL     1      53.974   9.226  29.193  1.00  0.00     0.108 C 
BRANCH  25  26
HETATM   26  C9  UNL     1      55.430   9.487  29.239  1.00  0.00     0.158 C 
BRANCH  26  27
HETATM   27  O1  UNL     1      55.885   9.018  30.502  1.00  0.00    -0.392 OA
ATOM     28  H1  UNL     1      56.300   8.178  30.344  1.00  0.00     0.210 HD
ENDBRANCH  26  27
BRANCH  26  29
HETATM   29  C10 UNL     1      55.968  10.831  28.985  1.00  0.00     0.171 C 
BRANCH  29  30
HETATM   30  O2  UNL     1      55.129  11.413  27.971  1.00  0.00    -0.391 OA
ATOM     31  H2  UNL     1      55.051  12.334  28.190  1.00  0.00     0.210 HD
ENDBRANCH  29  30
BRANCH  29  32
HETATM   32  C11 UNL     1      57.359  10.854  28.362  1.00  0.00     0.198 C 
BRANCH  32  33
HETATM   33  O3  UNL     1      58.195  10.014  29.140  1.00  0.00    -0.398 OA
ATOM     34  H3  UNL     1      58.791  10.570  29.627  1.00  0.00     0.209 HD
ENDBRANCH  32  33
ENDBRANCH  29  32
ENDBRANCH  26  29
ENDBRANCH  25  26
ENDBRANCH  24  25
ENDBRANCH  23  24
ENDBRANCH  18  23
ENDBRANCH  12  16
BRANCH   1  35
HETATM   35  N1  UNL     1      60.053   8.281  27.534  1.00  0.00    -0.384 N 
ATOM     36  H12 UNL     1      60.036   7.990  28.512  1.00  0.00     0.157 HD
ATOM     37  H11 UNL     1      59.727   9.220  27.304  1.00  0.00     0.157 HD
ENDBRANCH   1  35
BRANCH   4  38
HETATM   38  N3  UNL     1      63.369   6.591  24.831  1.00  0.00    -0.138 N 
ATOM     39  H3  UNL     1      64.068   7.134  25.339  1.00  0.00     0.205 HD
BRANCH  38  40
HETATM   40  N4  UNL     1      63.746   5.897  23.692  1.00  0.00    -0.331 N 
ATOM     41  H42 UNL     1      63.062   5.787  22.944  1.00  0.00     0.177 HD
ATOM     42  H41 UNL     1      64.683   5.503  23.594  1.00  0.00     0.177 HD
ENDBRANCH  38  40
ENDBRANCH   4  38
TORSDOF 13
ENDMDL
MODEL 2
REMARK VINA RESULT: -5.968997485      2.077      4.119
REMARK  13 active torsions:
REMARK  status: ('A' for Active; 'I' for Inactive)
REMARK    1  A    between atoms: N1_1  and  C1_4 
REMARK    2  A    between atoms: C2_7  and  N3_8 
REMARK    3  A    between atoms: N3_8  and  N4_10 
REMARK    4  A    between atoms: C4_20  and  C5_21 
REMARK    5  A    between atoms: C6_24  and  C7_25 
REMARK    6  A    between atoms: C7_25  and  S1_26 
REMARK    7  A    between atoms: S1_26  and  C8_27 
REMARK    8  A    between atoms: C8_27  and  C9_28 
REMARK    9  A    between atoms: C9_28  and  O1_29 
REMARK   10  A    between atoms: C9_28  and  C10_31 
REMARK   11  A    between atoms: C10_31  and  O2_32 
REMARK   12  A    between atoms: C10_31  and  C11_34 
REMARK   13  A    between atoms: C11_34  and  O3_35 
ROOT
HETATM    1  C1  UNL     1      60.396   5.887  25.908  1.00  0.00     0.130 A 
HETATM    2  N2  UNL     1      61.495   5.443  25.282  1.00  0.00    -0.175 N 
ATOM      3  H2  UNL     1      61.529   4.476  24.958  1.00  0.00     0.186 HD
HETATM    4  C2  UNL     1      62.565   6.251  25.071  1.00  0.00     0.699 A 
HETATM    5  N5  UNL     1      62.560   7.528  25.482  1.00  0.00    -0.173 N 
ATOM      6  H5  UNL     1      63.372   8.122  25.315  1.00  0.00     0.186 HD
HETATM    7  C3  UNL     1      61.474   8.028  26.118  1.00  0.00     0.151 A 
HETATM    8  N6  UNL     1      61.430   9.299  26.547  1.00  0.00    -0.284 N 
ATOM      9  H6  UNL     1      62.237   9.901  26.385  1.00  0.00     0.188 HD
HETATM   10  N7  UNL     1      60.371   9.799  27.174  1.00  0.00    -0.294 N 
ATOM     11  H7  UNL     1      60.390  10.773  27.477  1.00  0.00     0.187 HD
HETATM   12  C4  UNL     1      59.277   9.064  27.419  1.00  0.00     0.117 A 
HETATM   13  C13 UNL     1      59.283   7.759  26.997  1.00  0.00     0.096 A 
HETATM   14  N10 UNL     1      58.168   6.932  27.222  1.00  0.00    -0.099 NA
HETATM   15  C14 UNL     1      60.372   7.194  26.335  1.00  0.00     0.081 A 
ENDROOT
BRANCH  12  16
HETATM   16  C5  UNL     1      58.109   9.599  28.114  1.00  0.00     0.136 A 
HETATM   17  N8  UNL     1      57.330   9.041  29.031  1.00  0.00    -0.342 N 
HETATM   18  C6  UNL     1      56.350   9.914  29.406  1.00  0.00     0.035 A 
ATOM     19  H8  UNL     1      57.445   8.097  29.400  1.00  0.00     0.167 HD
HETATM   20  C12 UNL     1      56.550  11.048  28.685  1.00  0.00     0.115 A 
HETATM   21  N9  UNL     1      57.633  10.830  27.901  1.00  0.00    -0.348 N 
ATOM     22  H9  UNL     1      58.027  11.505  27.245  1.00  0.00     0.167 HD
BRANCH  18  23
HETATM   23  C7  UNL     1      55.289   9.580  30.443  1.00  0.00     0.132 C 
BRANCH  23  24
HETATM   24  S1  UNL     1      53.741   9.213  29.654  1.00  0.00    -0.160 SA
BRANCH  24  25
HETATM   25  C8  UNL     1      53.755   8.960  27.903  1.00  0.00     0.108 C 
BRANCH  25  26
HETATM   26  C9  UNL     1      53.438   7.610  27.390  1.00  0.00     0.158 C 
BRANCH  26  27
HETATM   27  O1  UNL     1      52.103   7.327  27.791  1.00  0.00    -0.392 OA
ATOM     28  H1  UNL     1      52.009   6.382  27.773  1.00  0.00     0.210 HD
ENDBRANCH  26  27
BRANCH  26  29
HETATM   29  C10 UNL     1      54.301   6.460  27.696  1.00  0.00     0.171 C 
BRANCH  29  30
HETATM   30  O2  UNL     1      55.631   6.988  27.846  1.00  0.00    -0.391 OA
ATOM     31  H2  UNL     1      56.147   6.295  28.242  1.00  0.00     0.210 HD
ENDBRANCH  29  30
BRANCH  29  32
HETATM   32  C11 UNL     1      54.438   5.447  26.565  1.00  0.00     0.198 C 
BRANCH  32  33
HETATM   33  O3  UNL     1      55.501   5.874  25.729  1.00  0.00    -0.398 OA
ATOM     34  H3  UNL     1      55.419   5.417  24.900  1.00  0.00     0.209 HD
ENDBRANCH  32  33
ENDBRANCH  29  32
ENDBRANCH  26  29
ENDBRANCH  25  26
ENDBRANCH  24  25
ENDBRANCH  23  24
ENDBRANCH  18  23
ENDBRANCH  12  16
BRANCH   1  35
HETATM   35  N1  UNL     1      59.368   5.152  26.124  1.00  0.00    -0.384 N 
ATOM     36  H12 UNL     1      59.451   4.144  25.990  1.00  0.00     0.157 HD
ATOM     37  H11 UNL     1      58.468   5.527  26.426  1.00  0.00     0.157 HD
ENDBRANCH   1  35
BRANCH   4  38
HETATM   38  N3  UNL     1      63.610   5.805  24.470  1.00  0.00    -0.138 N 
ATOM     39  H3  UNL     1      64.373   5.410  25.021  1.00  0.00     0.205 HD
BRANCH  38  40
HETATM   40  N4  UNL     1      63.725   5.849  23.089  1.00  0.00    -0.331 N 
ATOM     41  H42 UNL     1      64.121   6.687  22.664  1.00  0.00     0.177 HD
ATOM     42  H41 UNL     1      63.423   5.069  22.504  1.00  0.00     0.177 HD
ENDBRANCH  38  40
ENDBRANCH   4  38
TORSDOF 13
ENDMDL
MODEL 3
REMARK VINA RESULT: -5.968281969      1.987      4.151
REMARK  13 active torsions:
REMARK  status: ('A' for Active; 'I' for Inactive)
REMARK    1  A    between atoms: N1_1  and  C1_4 
REMARK    2  A    between atoms: C2_7  and  N3_8 
REMARK    3  A    between atoms: N3_8  and  N4_10 
REMARK    4  A    between atoms: C4_20  and  C5_21 
REMARK    5  A    between atoms: C6_24  and  C7_25 
REMARK    6  A    between atoms: C7_25  and  S1_26 
REMARK    7  A    between atoms: S1_26  and  C8_27 
REMARK    8  A    between atoms: C8_27  and  C9_28 
REMARK    9  A    between atoms: C9_28  and  O1_29 
REMARK   10  A    between atoms: C9_28  and  C10_31 
REMARK   11  A    between atoms: C10_31  and  O2_32 
REMARK   12  A    between atoms: C10_31  and  C11_34 
REMARK   13  A    between atoms: C11_34  and  O3_35 
ROOT
HETATM    1  C1  UNL     1      60.264   5.777  25.943  1.00  0.00     0.130 A 
HETATM    2  N2  UNL     1      61.273   5.184  25.290  1.00  0.00    -0.175 N 
ATOM      3  H2  UNL     1      61.177   4.210  25.002  1.00  0.00     0.186 HD
HETATM    4  C2  UNL     1      62.419   5.851  25.002  1.00  0.00     0.699 A 
HETATM    5  N5  UNL     1      62.583   7.133  25.362  1.00  0.00    -0.173 N 
ATOM      6  H5  UNL     1      63.451   7.619  25.138  1.00  0.00     0.186 HD
HETATM    7  C3  UNL     1      61.595   7.780  26.023  1.00  0.00     0.151 A 
HETATM    8  N6  UNL     1      61.720   9.061  26.403  1.00  0.00    -0.284 N 
ATOM      9  H6  UNL     1      62.584   9.556  26.184  1.00  0.00     0.188 HD
HETATM   10  N7  UNL     1      60.758   9.704  27.054  1.00  0.00    -0.294 N 
ATOM     11  H7  UNL     1      60.906  10.679  27.318  1.00  0.00     0.187 HD
HETATM   12  C4  UNL     1      59.598   9.114  27.374  1.00  0.00     0.117 A 
HETATM   13  C13 UNL     1      59.431   7.804  27.004  1.00  0.00     0.096 A 
HETATM   14  N10 UNL     1      58.238   7.125  27.309  1.00  0.00    -0.099 NA
HETATM   15  C14 UNL     1      60.414   7.091  26.319  1.00  0.00     0.081 A 
ENDROOT
BRANCH  12  16
HETATM   16  C5  UNL     1      58.535   9.808  28.097  1.00  0.00     0.136 A 
HETATM   17  N8  UNL     1      57.536  10.551  27.641  1.00  0.00    -0.342 N 
HETATM   18  C6  UNL     1      56.776  11.002  28.682  1.00  0.00     0.035 A 
ATOM     19  H8  UNL     1      57.361  10.757  26.658  1.00  0.00     0.167 HD
HETATM   20  C12 UNL     1      57.342  10.506  29.814  1.00  0.00     0.115 A 
HETATM   21  N9  UNL     1      58.418   9.778  29.429  1.00  0.00    -0.348 N 
ATOM     22  H9  UNL     1      59.046   9.281  30.061  1.00  0.00     0.167 HD
BRANCH  18  23
HETATM   23  C7  UNL     1      55.550  11.884  28.498  1.00  0.00     0.132 C 
BRANCH  23  24
HETATM   24  S1  UNL     1      54.236  10.971  27.729  1.00  0.00    -0.160 SA
BRANCH  24  25
HETATM   25  C8  UNL     1      53.448   9.709  28.684  1.00  0.00     0.108 C 
BRANCH  25  26
HETATM   26  C9  UNL     1      53.895   8.311  28.500  1.00  0.00     0.158 C 
BRANCH  26  27
HETATM   27  O1  UNL     1      55.305   8.358  28.318  1.00  0.00    -0.392 OA
ATOM     28  H1  UNL     1      55.467   8.143  27.407  1.00  0.00     0.210 HD
ENDBRANCH  26  27
BRANCH  26  29
HETATM   29  C10 UNL     1      53.291   7.450  27.473  1.00  0.00     0.171 C 
BRANCH  29  30
HETATM   30  O2  UNL     1      51.971   7.129  27.947  1.00  0.00    -0.391 OA
ATOM     31  H2  UNL     1      51.908   7.494  28.822  1.00  0.00     0.210 HD
ENDBRANCH  29  30
BRANCH  29  32
HETATM   32  C11 UNL     1      53.958   6.089  27.309  1.00  0.00     0.198 C 
BRANCH  32  33
HETATM   33  O3  UNL     1      55.119   6.270  26.516  1.00  0.00    -0.398 OA
ATOM     34  H3  UNL     1      55.698   6.862  26.980  1.00  0.00     0.209 HD
ENDBRANCH  32  33
ENDBRANCH  29  32
ENDBRANCH  26  29
ENDBRANCH  25  26
ENDBRANCH  24  25
ENDBRANCH  23  24
ENDBRANCH  18  23
ENDBRANCH  12  16
BRANCH   1  35
HETATM   35  N1  UNL     1      59.168   5.178  26.232  1.00  0.00    -0.384 N 
ATOM     36  H12 UNL     1      58.995   4.256  25.830  1.00  0.00     0.157 HD
ATOM     37  H11 UNL     1      58.458   5.579  26.845  1.00  0.00     0.157 HD
ENDBRANCH   1  35
BRANCH   4  38
HETATM   38  N3  UNL     1      63.376   5.263  24.375  1.00  0.00    -0.138 N 
ATOM     39  H3  UNL     1      63.733   4.375  24.728  1.00  0.00     0.205 HD
BRANCH  38  40
HETATM   40  N4  UNL     1      63.933   5.810  23.229  1.00  0.00    -0.331 N 
ATOM     41  H42 UNL     1      63.767   6.797  23.035  1.00  0.00     0.177 HD
ATOM     42  H41 UNL     1      64.495   5.247  22.590  1.00  0.00     0.177 HD
ENDBRANCH  38  40
ENDBRANCH   4  38
TORSDOF 13
ENDMDL
MODEL 4
REMARK VINA RESULT: -5.491644466      2.435      3.695
REMARK  13 active torsions:
REMARK  status: ('A' for Active; 'I' for Inactive)
REMARK    1  A    between atoms: N1_1  and  C1_4 
REMARK    2  A    between atoms: C2_7  and  N3_8 
REMARK    3  A    between atoms: N3_8  and  N4_10 
REMARK    4  A    between atoms: C4_20  and  C5_21 
REMARK    5  A    between atoms: C6_24  and  C7_25 
REMARK    6  A    between atoms: C7_25  and  S1_26 
REMARK    7  A    between atoms: S1_26  and  C8_27 
REMARK    8  A    between atoms: C8_27  and  C9_28 
REMARK    9  A    between atoms: C9_28  and  O1_29 
REMARK   10  A    between atoms: C9_28  and  C10_31 
REMARK   11  A    between atoms: C10_31  and  O2_32 
REMARK   12  A    between atoms: C10_31  and  C11_34 
REMARK   13  A    between atoms: C11_34  and  O3_35 
ROOT
HETATM    1  C1  UNL     1      60.217   5.922  25.973  1.00  0.00     0.130 A 
HETATM    2  N2  UNL     1      61.298   5.617  25.241  1.00  0.00    -0.175 N 
ATOM      3  H2  UNL     1      61.350   4.707  24.782  1.00  0.00     0.186 HD
HETATM    4  C2  UNL     1      62.324   6.493  25.095  1.00  0.00     0.699 A 
HETATM    5  N5  UNL     1      62.293   7.699  25.680  1.00  0.00    -0.173 N 
ATOM      6  H5  UNL     1      63.073   8.345  25.561  1.00  0.00     0.186 HD
HETATM    7  C3  UNL     1      61.225   8.058  26.431  1.00  0.00     0.151 A 
HETATM    8  N6  UNL     1      61.156   9.254  27.035  1.00  0.00    -0.284 N 
ATOM      9  H6  UNL     1      61.930   9.908  26.922  1.00  0.00     0.188 HD
HETATM   10  N7  UNL     1      60.114   9.616  27.775  1.00  0.00    -0.294 N 
ATOM     11  H7  UNL     1      60.113  10.538  28.211  1.00  0.00     0.187 HD
HETATM   12  C4  UNL     1      59.062   8.807  27.966  1.00  0.00     0.117 A 
HETATM   13  C13 UNL     1      59.095   7.574  27.365  1.00  0.00     0.096 A 
HETATM   14  N10 UNL     1      58.024   6.676  27.525  1.00  0.00    -0.099 NA
HETATM   15  C14 UNL     1      60.168   7.154  26.580  1.00  0.00     0.081 A 
ENDROOT
BRANCH  12  16
HETATM   16  C5  UNL     1      57.914   9.188  28.784  1.00  0.00     0.136 A 
HETATM   17  N8  UNL     1      56.651   8.788  28.724  1.00  0.00    -0.342 N 
HETATM   18  C6  UNL     1      55.917   9.410  29.692  1.00  0.00     0.035 A 
ATOM     19  H8  UNL     1      56.282   8.114  28.052  1.00  0.00     0.167 HD
HETATM   20  C12 UNL     1      56.776  10.219  30.365  1.00  0.00     0.115 A 
HETATM   21  N9  UNL     1      57.993  10.065  29.790  1.00  0.00    -0.348 N 
ATOM     22  H9  UNL     1      58.844  10.547  30.081  1.00  0.00     0.167 HD
BRANCH  18  23
HETATM   23  C7  UNL     1      54.428   9.170  29.891  1.00  0.00     0.132 C 
BRANCH  23  24
HETATM   24  S1  UNL     1      53.502   9.843  28.535  1.00  0.00    -0.160 SA
BRANCH  24  25
HETATM   25  C8  UNL     1      54.402  10.692  27.270  1.00  0.00     0.108 C 
BRANCH  25  26
HETATM   26  C9  UNL     1      54.339  12.169  27.239  1.00  0.00     0.158 C 
BRANCH  26  27
HETATM   27  O1  UNL     1      53.385  12.513  26.241  1.00  0.00    -0.392 OA
ATOM     28  H1  UNL     1      53.287  11.748  25.687  1.00  0.00     0.210 HD
ENDBRANCH  26  27
BRANCH  26  29
HETATM   29  C10 UNL     1      55.554  12.977  27.064  1.00  0.00     0.171 C 
BRANCH  29  30
HETATM   30  O2  UNL     1      55.601  13.332  25.670  1.00  0.00    -0.391 OA
ATOM     31  H2  UNL     1      56.378  12.915  25.318  1.00  0.00     0.210 HD
ENDBRANCH  29  30
BRANCH  29  32
HETATM   32  C11 UNL     1      56.859  12.224  27.290  1.00  0.00     0.198 C 
BRANCH  32  33
HETATM   33  O3  UNL     1      57.536  12.845  28.370  1.00  0.00    -0.398 OA
ATOM     34  H3  UNL     1      58.468  12.722  28.238  1.00  0.00     0.209 HD
ENDBRANCH  32  33
ENDBRANCH  29  32
ENDBRANCH  26  29
ENDBRANCH  25  26
ENDBRANCH  24  25
ENDBRANCH  23  24
ENDBRANCH  18  23
ENDBRANCH  12  16
BRANCH   1  35
HETATM   35  N1  UNL     1      59.230   5.119  26.133  1.00  0.00    -0.384 N 
ATOM     36  H12 UNL     1      59.331   4.153  25.822  1.00  0.00     0.157 HD
ATOM     37  H11 UNL     1      58.345   5.401  26.556  1.00  0.00     0.157 HD
ENDBRANCH   1  35
BRANCH   4  38
HETATM   38  N3  UNL     1      63.352   6.181  24.388  1.00  0.00    -0.138 N 
ATOM     39  H3  UNL     1      63.904   6.922  23.955  1.00  0.00     0.205 HD
BRANCH  38  40
HETATM   40  N4  UNL     1      63.728   4.860  24.202  1.00  0.00    -0.331 N 
ATOM     41  H42 UNL     1      64.255   4.621  23.363  1.00  0.00     0.177 HD
ATOM     42  H41 UNL     1      63.488   4.137  24.882  1.00  0.00     0.177 HD
ENDBRANCH  38  40
ENDBRANCH   4  38
TORSDOF 13
ENDMDL
MODEL 5
REMARK VINA RESULT: -5.410822279      3.234      4.652
REMARK  13 active torsions:
REMARK  status: ('A' for Active; 'I' for Inactive)
REMARK    1  A    between atoms: N1_1  and  C1_4 
REMARK    2  A    between atoms: C2_7  and  N3_8 
REMARK    3  A    between atoms: N3_8  and  N4_10 
REMARK    4  A    between atoms: C4_20  and  C5_21 
REMARK    5  A    between atoms: C6_24  and  C7_25 
REMARK    6  A    between atoms: C7_25  and  S1_26 
REMARK    7  A    between atoms: S1_26  and  C8_27 
REMARK    8  A    between atoms: C8_27  and  C9_28 
REMARK    9  A    between atoms: C9_28  and  O1_29 
REMARK   10  A    between atoms: C9_28  and  C10_31 
REMARK   11  A    between atoms: C10_31  and  O2_32 
REMARK   12  A    between atoms: C10_31  and  C11_34 
REMARK   13  A    between atoms: C11_34  and  O3_35 
ROOT
HETATM    1  C1  UNL     1      60.429   5.821  24.859  1.00  0.00     0.130 A 
HETATM    2  N2  UNL     1      61.501   5.478  24.132  1.00  0.00    -0.175 N 
ATOM      3  H2  UNL     1      61.430   4.702  23.473  1.00  0.00     0.186 HD
HETATM    4  C2  UNL     1      62.680   6.140  24.252  1.00  0.00     0.699 A 
HETATM    5  N5  UNL     1      62.813   7.166  25.106  1.00  0.00    -0.173 N 
ATOM      6  H5  UNL     1      63.706   7.653  25.184  1.00  0.00     0.186 HD
HETATM    7  C3  UNL     1      61.761   7.554  25.864  1.00  0.00     0.151 A 
HETATM    8  N6  UNL     1      61.853   8.574  26.732  1.00  0.00    -0.284 N 
ATOM      9  H6  UNL     1      62.741   9.067  26.817  1.00  0.00     0.188 HD
HETATM   10  N7  UNL     1      60.828   8.962  27.481  1.00  0.00    -0.294 N 
ATOM     11  H7  UNL     1      60.954   9.744  28.124  1.00  0.00     0.187 HD
HETATM   12  C4  UNL     1      59.633   8.358  27.420  1.00  0.00     0.117 A 
HETATM   13  C13 UNL     1      59.498   7.310  26.545  1.00  0.00     0.096 A 
HETATM   14  N10 UNL     1      58.271   6.632  26.430  1.00  0.00    -0.099 NA
HETATM   15  C14 UNL     1      60.547   6.871  25.739  1.00  0.00     0.081 A 
ENDROOT
BRANCH  12  16
HETATM   16  C5  UNL     1      58.499   8.769  28.244  1.00  0.00     0.136 A 
HETATM   17  N8  UNL     1      57.923   9.956  28.375  1.00  0.00    -0.342 N 
HETATM   18  C6  UNL     1      56.887   9.878  29.260  1.00  0.00     0.035 A 
ATOM     19  H8  UNL     1      58.213  10.804  27.886  1.00  0.00     0.167 HD
HETATM   20  C12 UNL     1      56.836   8.587  29.678  1.00  0.00     0.115 A 
HETATM   21  N9  UNL     1      57.834   7.927  29.042  1.00  0.00    -0.348 N 
ATOM     22  H9  UNL     1      58.047   6.936  29.155  1.00  0.00     0.167 HD
BRANCH  18  23
HETATM   23  C7  UNL     1      56.019  11.070  29.633  1.00  0.00     0.132 C 
BRANCH  23  24
HETATM   24  S1  UNL     1      57.025  12.497  29.951  1.00  0.00    -0.160 SA
BRANCH  24  25
HETATM   25  C8  UNL     1      58.455  12.281  30.971  1.00  0.00     0.108 C 
BRANCH  25  26
HETATM   26  C9  UNL     1      58.617  13.167  32.144  1.00  0.00     0.158 C 
BRANCH  26  27
HETATM   27  O1  UNL     1      57.308  13.433  32.634  1.00  0.00    -0.392 OA
ATOM     28  H1  UNL     1      57.301  13.167  33.546  1.00  0.00     0.210 HD
ENDBRANCH  26  27
BRANCH  26  29
HETATM   29  C10 UNL     1      59.375  14.423  32.048  1.00  0.00     0.171 C 
BRANCH  29  30
HETATM   30  O2  UNL     1      60.460  14.307  32.986  1.00  0.00    -0.391 OA
ATOM     31  H2  UNL     1      61.139  14.895  32.677  1.00  0.00     0.210 HD
ENDBRANCH  29  30
BRANCH  29  32
HETATM   32  C11 UNL     1      58.620  15.661  32.516  1.00  0.00     0.198 C 
BRANCH  32  33
HETATM   33  O3  UNL     1      59.205  16.788  31.886  1.00  0.00    -0.398 OA
ATOM     34  H3  UNL     1      59.917  17.092  32.436  1.00  0.00     0.209 HD
ENDBRANCH  32  33
ENDBRANCH  29  32
ENDBRANCH  26  29
ENDBRANCH  25  26
ENDBRANCH  24  25
ENDBRANCH  23  24
ENDBRANCH  18  23
ENDBRANCH  12  16
BRANCH   1  35
HETATM   35  N1  UNL     1      59.301   5.218  24.772  1.00  0.00    -0.384 N 
ATOM     36  H12 UNL     1      59.135   4.606  23.972  1.00  0.00     0.157 HD
ATOM     37  H11 UNL     1      58.559   5.319  25.465  1.00  0.00     0.157 HD
ENDBRANCH   1  35
BRANCH   4  38
HETATM   38  N3  UNL     1      63.697   5.794  23.546  1.00  0.00    -0.138 N 
ATOM     39  H3  UNL     1      64.250   6.515  23.081  1.00  0.00     0.205 HD
BRANCH  38  40
HETATM   40  N4  UNL     1      64.060   4.464  23.402  1.00  0.00    -0.331 N 
ATOM     41  H42 UNL     1      63.567   3.767  23.960  1.00  0.00     0.177 HD
ATOM     42  H41 UNL     1      64.798   4.180  22.758  1.00  0.00     0.177 HD
ENDBRANCH  38  40
ENDBRANCH   4  38
TORSDOF 13
ENDMDL
