MODEL 1
REMARK VINA RESULT: -5.249041905      0.000      0.000
REMARK  12 active torsions:
REMARK  status: ('A' for Active; 'I' for Inactive)
REMARK    1  A    between atoms: N1_1  and  C1_4 
REMARK    2  A    between atoms: C2_7  and  N3_8 
REMARK    3  A    between atoms: C4_14  and  N5_15 
REMARK    4  A    between atoms: N5_15  and  C5_16 
REMARK    5  A    between atoms: N5_15  and  C7_20 
REMARK    6  A    between atoms: C5_16  and  C6_17 
REMARK    7  A    between atoms: C6_17  and  O1_18 
REMARK    8  A    between atoms: C10_23  and  N6_24 
REMARK    9  A    between atoms: N6_24  and  N7_25 
REMARK   10  A    between atoms: N6_24  and  C11_28 
REMARK   11  A    between atoms: C11_28  and  O2_29 
REMARK   12  A    between atoms: C15_34  and  N8_35 
REMARK       I    between atoms: N8_35  and  C16_37 
REMARK       I    between atoms: C16_37  and  N9_38 
REMARK       I    between atoms: C16_37  and  N10_42 
ROOT
HETATM    1  C1  UNL     1      53.580   9.310  28.448  1.00  0.00     0.692 A 
HETATM    2  N2  UNL     1      53.658   8.157  27.761  1.00  0.00    -0.172 N 
ATOM      3  H2  UNL     1      52.822   7.770  27.322  1.00  0.00     0.186 HD
HETATM    4  C2  UNL     1      54.835   7.507  27.649  1.00  0.00     0.161 A 
HETATM    5  C3  UNL     1      55.981   8.007  28.233  1.00  0.00     0.175 A 
HETATM    6  N4  UNL     1      57.171   7.341  28.116  1.00  0.00    -0.324 N 
ATOM      7  H4  UNL     1      57.210   6.467  27.592  1.00  0.00     0.169 HD
HETATM    8  C4  UNL     1      58.286   7.822  28.682  1.00  0.00     0.113 A 
HETATM    9  C14 UNL     1      58.194   9.002  29.383  1.00  0.00     0.099 A 
HETATM   10  C15 UNL     1      56.970   9.676  29.496  1.00  0.00     0.132 A 
HETATM   11  N11 UNL     1      55.875   9.162  28.914  1.00  0.00    -0.206 N 
HETATM   12  N12 UNL     1      54.693   9.788  29.010  1.00  0.00    -0.122 N 
ATOM     13  H12 UNL     1      54.641  10.662  29.533  1.00  0.00     0.206 HD
ENDROOT
BRANCH   8  14
HETATM   14  N5  UNL     1      59.516   7.139  28.562  1.00  0.00    -0.331 N 
BRANCH  14  15
HETATM   15  C5  UNL     1      60.193   6.692  29.771  1.00  0.00     0.156 C 
BRANCH  15  16
HETATM   16  C6  UNL     1      61.090   7.812  30.302  1.00  0.00     0.184 C 
BRANCH  16  17
HETATM   17  O1  UNL     1      60.675   8.194  31.582  1.00  0.00    -0.399 OA
ATOM     18  H1  UNL     1      61.402   8.577  32.060  1.00  0.00     0.209 HD
ENDBRANCH  16  17
ENDBRANCH  15  16
ENDBRANCH  14  15
BRANCH  14  19
HETATM   19  C7  UNL     1      60.114   6.875  27.276  1.00  0.00     0.036 A 
HETATM   20  C8  UNL     1      59.763   5.749  26.565  1.00  0.00     0.032 A 
HETATM   21  C9  UNL     1      60.331   5.472  25.321  1.00  0.00     0.033 A 
HETATM   22  C10 UNL     1      61.264   6.312  24.759  1.00  0.00     0.052 A 
HETATM   23  C12 UNL     1      61.609   7.437  25.479  1.00  0.00     0.033 A 
HETATM   24  C13 UNL     1      61.049   7.714  26.709  1.00  0.00     0.032 A 
BRANCH  22  25
HETATM   25  N6  UNL     1      61.857   6.036  23.480  1.00  0.00    -0.275 N 
BRANCH  25  26
HETATM   26  N7  UNL     1      61.062   6.069  22.316  1.00  0.00    -0.341 N 
ATOM     27  H72 UNL     1      61.313   5.467  21.531  1.00  0.00     0.177 HD
ATOM     28  H71 UNL     1      60.255   6.689  22.269  1.00  0.00     0.177 HD
ENDBRANCH  25  26
BRANCH  25  29
HETATM   29  C11 UNL     1      63.251   5.727  23.359  1.00  0.00     0.312 C 
BRANCH  29  30
HETATM   30  O2  UNL     1      63.730   4.900  24.369  1.00  0.00    -0.380 OA
ATOM     31  H2  UNL     1      63.291   5.021  25.202  1.00  0.00     0.211 HD
ENDBRANCH  29  30
ENDBRANCH  25  29
ENDBRANCH  22  25
ENDBRANCH  14  19
ENDBRANCH   8  14
BRANCH  10  32
HETATM   32  N8  UNL     1      56.850  10.780  30.139  1.00  0.00    -0.326 N 
HETATM   33  C16 UNL     1      57.589  11.988  29.861  1.00  0.00     0.481 C 
HETATM   34  N9  UNL     1      57.244  12.924  30.945  1.00  0.00    -0.033 N 
HETATM   35  N10 UNL     1      57.155  12.535  28.585  1.00  0.00    -0.033 N 
ATOM     36  H93 UNL     1      56.241  13.074  31.052  1.00  0.00     0.278 HD
ATOM     37  H92 UNL     1      57.412  12.548  31.878  1.00  0.00     0.278 HD
ATOM     38  H91 UNL     1      57.766  13.778  30.748  1.00  0.00     0.278 HD
ATOM     39 3H10 UNL     1      57.228  11.855  27.829  1.00  0.00     0.278 HD
ATOM     40 2H10 UNL     1      56.146  12.683  28.551  1.00  0.00     0.278 HD
ATOM     41 1H10 UNL     1      57.677  13.389  28.389  1.00  0.00     0.278 HD
ATOM     42  H8  UNL     1      56.180  10.806  30.907  1.00  0.00     0.165 HD
ENDBRANCH  10  32
BRANCH   4  43
HETATM   43  N3  UNL     1      54.907   6.403  26.993  1.00  0.00    -0.382 N 
ATOM     44  H32 UNL     1      54.771   6.424  25.982  1.00  0.00     0.157 HD
ATOM     45  H31 UNL     1      55.098   5.527  27.479  1.00  0.00     0.157 HD
ENDBRANCH   4  43
BRANCH   1  46
HETATM   46  N1  UNL     1      52.471   9.955  28.574  1.00  0.00    -0.233 N 
ATOM     47  H12 UNL     1      51.600   9.530  28.257  1.00  0.00     0.174 HD
ATOM     48  H11 UNL     1      52.434  10.888  28.985  1.00  0.00     0.174 HD
ENDBRANCH   1  46
TORSDOF 12
ENDMDL
MODEL 2
REMARK VINA RESULT: -5.132326530      0.853      1.268
REMARK  12 active torsions:
REMARK  status: ('A' for Active; 'I' for Inactive)
REMARK    1  A    between atoms: N1_1  and  C1_4 
REMARK    2  A    between atoms: C2_7  and  N3_8 
REMARK    3  A    between atoms: C4_14  and  N5_15 
REMARK    4  A    between atoms: N5_15  and  C5_16 
REMARK    5  A    between atoms: N5_15  and  C7_20 
REMARK    6  A    between atoms: C5_16  and  C6_17 
REMARK    7  A    between atoms: C6_17  and  O1_18 
REMARK    8  A    between atoms: C10_23  and  N6_24 
REMARK    9  A    between atoms: N6_24  and  N7_25 
REMARK   10  A    between atoms: N6_24  and  C11_28 
REMARK   11  A    between atoms: C11_28  and  O2_29 
REMARK   12  A    between atoms: C15_34  and  N8_35 
REMARK       I    between atoms: N8_35  and  C16_37 
REMARK       I    between atoms: C16_37  and  N9_38 
REMARK       I    between atoms: C16_37  and  N10_42 
ROOT
HETATM    1  C1  UNL     1      53.649   9.179  28.373  1.00  0.00     0.692 A 
HETATM    2  N2  UNL     1      53.747   8.023  27.695  1.00  0.00    -0.172 N 
ATOM      3  H2  UNL     1      52.920   7.622  27.252  1.00  0.00     0.186 HD
HETATM    4  C2  UNL     1      54.933   7.388  27.596  1.00  0.00     0.161 A 
HETATM    5  C3  UNL     1      56.068   7.908  28.184  1.00  0.00     0.175 A 
HETATM    6  N4  UNL     1      57.268   7.257  28.081  1.00  0.00    -0.324 N 
ATOM      7  H4  UNL     1      57.323   6.380  27.563  1.00  0.00     0.169 HD
HETATM    8  C4  UNL     1      58.372   7.757  28.651  1.00  0.00     0.113 A 
HETATM    9  C14 UNL     1      58.259   8.941  29.343  1.00  0.00     0.099 A 
HETATM   10  C15 UNL     1      57.025   9.599  29.443  1.00  0.00     0.132 A 
HETATM   11  N11 UNL     1      55.942   9.066  28.857  1.00  0.00    -0.206 N 
HETATM   12  N12 UNL     1      54.750   9.676  28.940  1.00  0.00    -0.122 N 
ATOM     13  H12 UNL     1      54.683  10.553  29.457  1.00  0.00     0.206 HD
ENDROOT
BRANCH   8  14
HETATM   14  N5  UNL     1      59.613   7.090  28.544  1.00  0.00    -0.331 N 
BRANCH  14  15
HETATM   15  C5  UNL     1      60.285   6.657  29.762  1.00  0.00     0.156 C 
BRANCH  15  16
HETATM   16  C6  UNL     1      61.104   7.815  30.335  1.00  0.00     0.184 C 
BRANCH  16  17
HETATM   17  O1  UNL     1      60.636   8.150  31.611  1.00  0.00    -0.399 OA
ATOM     18  H1  UNL     1      60.118   8.946  31.569  1.00  0.00     0.209 HD
ENDBRANCH  16  17
ENDBRANCH  15  16
ENDBRANCH  14  15
BRANCH  14  19
HETATM   19  C7  UNL     1      60.225   6.829  27.265  1.00  0.00     0.036 A 
HETATM   20  C8  UNL     1      61.182   7.683  26.765  1.00  0.00     0.032 A 
HETATM   21  C9  UNL     1      61.785   7.452  25.528  1.00  0.00     0.033 A 
HETATM   22  C10 UNL     1      61.445   6.362  24.762  1.00  0.00     0.052 A 
HETATM   23  C12 UNL     1      60.486   5.512  25.271  1.00  0.00     0.033 A 
HETATM   24  C13 UNL     1      59.888   5.737  26.493  1.00  0.00     0.032 A 
BRANCH  22  25
HETATM   25  N6  UNL     1      62.058   6.115  23.487  1.00  0.00    -0.275 N 
BRANCH  25  26
HETATM   26  N7  UNL     1      63.448   5.891  23.406  1.00  0.00    -0.341 N 
ATOM     27  H72 UNL     1      64.031   6.118  24.211  1.00  0.00     0.177 HD
ATOM     28  H71 UNL     1      63.852   5.509  22.552  1.00  0.00     0.177 HD
ENDBRANCH  25  26
BRANCH  25  29
HETATM   29  C11 UNL     1      61.281   6.088  22.282  1.00  0.00     0.312 C 
BRANCH  29  30
HETATM   30  O2  UNL     1      61.933   5.492  21.209  1.00  0.00    -0.380 OA
ATOM     31  H2  UNL     1      61.399   4.863  20.739  1.00  0.00     0.211 HD
ENDBRANCH  29  30
ENDBRANCH  25  29
ENDBRANCH  22  25
ENDBRANCH  14  19
ENDBRANCH   8  14
BRANCH  10  32
HETATM   32  N8  UNL     1      56.886  10.705  30.078  1.00  0.00    -0.326 N 
HETATM   33  C16 UNL     1      57.603  11.924  29.791  1.00  0.00     0.481 C 
HETATM   34  N9  UNL     1      57.241  12.862  30.868  1.00  0.00    -0.033 N 
HETATM   35  N10 UNL     1      57.159  12.454  28.511  1.00  0.00    -0.033 N 
ATOM     36  H93 UNL     1      56.236  12.994  30.974  1.00  0.00     0.278 HD
ATOM     37  H92 UNL     1      57.416  12.496  31.803  1.00  0.00     0.278 HD
ATOM     38  H91 UNL     1      57.748  13.723  30.665  1.00  0.00     0.278 HD
ATOM     39 3H10 UNL     1      57.244  11.769  27.759  1.00  0.00     0.278 HD
ATOM     40 2H10 UNL     1      56.148  12.583  28.476  1.00  0.00     0.278 HD
ATOM     41 1H10 UNL     1      57.666  13.315  28.308  1.00  0.00     0.278 HD
ATOM     42  H8  UNL     1      56.215  10.725  30.846  1.00  0.00     0.165 HD
ENDBRANCH  10  32
BRANCH   4  43
HETATM   43  N3  UNL     1      55.025   6.281  26.947  1.00  0.00    -0.382 N 
ATOM     44  H32 UNL     1      55.885   5.738  27.025  1.00  0.00     0.157 HD
ATOM     45  H31 UNL     1      54.249   5.957  26.371  1.00  0.00     0.157 HD
ENDBRANCH   4  43
BRANCH   1  46
HETATM   46  N1  UNL     1      52.530   9.810  28.487  1.00  0.00    -0.233 N 
ATOM     47  H12 UNL     1      51.741   9.551  27.895  1.00  0.00     0.174 HD
ATOM     48  H11 UNL     1      52.405  10.569  29.156  1.00  0.00     0.174 HD
ENDBRANCH   1  46
TORSDOF 12
ENDMDL
MODEL 3
REMARK VINA RESULT: -3.978347192      1.770      3.594
REMARK  12 active torsions:
REMARK  status: ('A' for Active; 'I' for Inactive)
REMARK    1  A    between atoms: N1_1  and  C1_4 
REMARK    2  A    between atoms: C2_7  and  N3_8 
REMARK    3  A    between atoms: C4_14  and  N5_15 
REMARK    4  A    between atoms: N5_15  and  C5_16 
REMARK    5  A    between atoms: N5_15  and  C7_20 
REMARK    6  A    between atoms: C5_16  and  C6_17 
REMARK    7  A    between atoms: C6_17  and  O1_18 
REMARK    8  A    between atoms: C10_23  and  N6_24 
REMARK    9  A    between atoms: N6_24  and  N7_25 
REMARK   10  A    between atoms: N6_24  and  C11_28 
REMARK   11  A    between atoms: C11_28  and  O2_29 
REMARK   12  A    between atoms: C15_34  and  N8_35 
REMARK       I    between atoms: N8_35  and  C16_37 
REMARK       I    between atoms: C16_37  and  N9_38 
REMARK       I    between atoms: C16_37  and  N10_42 
ROOT
HETATM    1  C1  UNL     1      54.203  12.177  27.389  1.00  0.00     0.692 A 
HETATM    2  N2  UNL     1      55.386  12.799  27.250  1.00  0.00    -0.172 N 
ATOM      3  H2  UNL     1      55.415  13.771  26.939  1.00  0.00     0.186 HD
HETATM    4  C2  UNL     1      56.536  12.147  27.518  1.00  0.00     0.161 A 
HETATM    5  C3  UNL     1      56.526  10.834  27.940  1.00  0.00     0.175 A 
HETATM    6  N4  UNL     1      57.697  10.178  28.209  1.00  0.00    -0.324 N 
ATOM      7  H4  UNL     1      58.585  10.667  28.097  1.00  0.00     0.169 HD
HETATM    8  C4  UNL     1      57.692   8.903  28.618  1.00  0.00     0.113 A 
HETATM    9  C14 UNL     1      56.475   8.275  28.756  1.00  0.00     0.099 A 
HETATM   10  C15 UNL     1      55.282   8.956  28.478  1.00  0.00     0.132 A 
HETATM   11  N11 UNL     1      55.328  10.235  28.071  1.00  0.00    -0.206 N 
HETATM   12  N12 UNL     1      54.200  10.906  27.797  1.00  0.00    -0.122 N 
ATOM     13  H12 UNL     1      53.305  10.427  27.904  1.00  0.00     0.206 HD
ENDROOT
BRANCH   8  14
HETATM   14  N5  UNL     1      58.899   8.224  28.899  1.00  0.00    -0.331 N 
BRANCH  14  15
HETATM   15  C5  UNL     1      59.286   8.028  30.289  1.00  0.00     0.156 C 
BRANCH  15  16
HETATM   16  C6  UNL     1      60.558   8.826  30.585  1.00  0.00     0.184 C 
BRANCH  16  17
HETATM   17  O1  UNL     1      60.243   9.978  31.314  1.00  0.00    -0.399 OA
ATOM     18  H1  UNL     1      60.895  10.651  31.157  1.00  0.00     0.209 HD
ENDBRANCH  16  17
ENDBRANCH  15  16
ENDBRANCH  14  15
BRANCH  14  19
HETATM   19  C7  UNL     1      59.749   7.723  27.848  1.00  0.00     0.036 A 
HETATM   20  C8  UNL     1      60.497   8.592  27.085  1.00  0.00     0.032 A 
HETATM   21  C9  UNL     1      61.324   8.130  26.062  1.00  0.00     0.033 A 
HETATM   22  C10 UNL     1      61.423   6.788  25.775  1.00  0.00     0.052 A 
HETATM   23  C12 UNL     1      60.671   5.925  26.544  1.00  0.00     0.033 A 
HETATM   24  C13 UNL     1      59.853   6.379  27.557  1.00  0.00     0.032 A 
BRANCH  22  25
HETATM   25  N6  UNL     1      62.269   6.301  24.722  1.00  0.00    -0.275 N 
BRANCH  25  26
HETATM   26  N7  UNL     1      63.665   6.237  24.914  1.00  0.00    -0.341 N 
ATOM     27  H72 UNL     1      64.035   5.623  25.640  1.00  0.00     0.177 HD
ATOM     28  H71 UNL     1      64.284   6.801  24.333  1.00  0.00     0.177 HD
ENDBRANCH  25  26
BRANCH  25  29
HETATM   29  C11 UNL     1      61.723   5.872  23.468  1.00  0.00     0.312 C 
BRANCH  29  30
HETATM   30  O2  UNL     1      60.396   6.239  23.282  1.00  0.00    -0.380 OA
ATOM     31  H2  UNL     1      60.205   6.550  22.405  1.00  0.00     0.211 HD
ENDBRANCH  29  30
ENDBRANCH  25  29
ENDBRANCH  22  25
ENDBRANCH  14  19
ENDBRANCH   8  14
BRANCH  10  32
HETATM   32  N8  UNL     1      54.130   8.403  28.599  1.00  0.00    -0.326 N 
HETATM   33  C16 UNL     1      53.420   7.722  27.544  1.00  0.00     0.481 C 
HETATM   34  N9  UNL     1      52.093   7.404  28.097  1.00  0.00    -0.033 N 
HETATM   35  N10 UNL     1      54.119   6.492  27.209  1.00  0.00    -0.033 N 
ATOM     36  H93 UNL     1      52.130   6.878  28.970  1.00  0.00     0.278 HD
ATOM     37  H92 UNL     1      51.598   8.216  28.465  1.00  0.00     0.278 HD
ATOM     38  H91 UNL     1      51.591   6.923  27.351  1.00  0.00     0.278 HD
ATOM     39 3H10 UNL     1      55.098   6.655  26.973  1.00  0.00     0.278 HD
ATOM     40 2H10 UNL     1      54.264   5.895  28.023  1.00  0.00     0.278 HD
ATOM     41 1H10 UNL     1      53.617   6.011  26.462  1.00  0.00     0.278 HD
ATOM     42  H8  UNL     1      53.682   8.447  29.514  1.00  0.00     0.165 HD
ENDBRANCH  10  32
BRANCH   4  43
HETATM   43  N3  UNL     1      57.667  12.744  27.383  1.00  0.00    -0.382 N 
ATOM     44  H32 UNL     1      58.390  12.590  28.086  1.00  0.00     0.157 HD
ATOM     45  H31 UNL     1      57.833  13.358  26.586  1.00  0.00     0.157 HD
ENDBRANCH   4  43
BRANCH   1  46
HETATM   46  N1  UNL     1      53.086  12.771  27.139  1.00  0.00    -0.233 N 
ATOM     47  H12 UNL     1      52.955  13.248  26.248  1.00  0.00     0.174 HD
ATOM     48  H11 UNL     1      52.319  12.782  27.812  1.00  0.00     0.174 HD
ENDBRANCH   1  46
TORSDOF 12
ENDMDL
MODEL 4
REMARK VINA RESULT: -3.882931481      1.949      3.819
REMARK  12 active torsions:
REMARK  status: ('A' for Active; 'I' for Inactive)
REMARK    1  A    between atoms: N1_1  and  C1_4 
REMARK    2  A    between atoms: C2_7  and  N3_8 
REMARK    3  A    between atoms: C4_14  and  N5_15 
REMARK    4  A    between atoms: N5_15  and  C5_16 
REMARK    5  A    between atoms: N5_15  and  C7_20 
REMARK    6  A    between atoms: C5_16  and  C6_17 
REMARK    7  A    between atoms: C6_17  and  O1_18 
REMARK    8  A    between atoms: C10_23  and  N6_24 
REMARK    9  A    between atoms: N6_24  and  N7_25 
REMARK   10  A    between atoms: N6_24  and  C11_28 
REMARK   11  A    between atoms: C11_28  and  O2_29 
REMARK   12  A    between atoms: C15_34  and  N8_35 
REMARK       I    between atoms: N8_35  and  C16_37 
REMARK       I    between atoms: C16_37  and  N9_38 
REMARK       I    between atoms: C16_37  and  N10_42 
ROOT
HETATM    1  C1  UNL     1      53.583  12.466  26.804  1.00  0.00     0.692 A 
HETATM    2  N2  UNL     1      54.713  13.182  26.671  1.00  0.00    -0.172 N 
ATOM      3  H2  UNL     1      54.680  14.109  26.247  1.00  0.00     0.186 HD
HETATM    4  C2  UNL     1      55.892  12.682  27.096  1.00  0.00     0.161 A 
HETATM    5  C3  UNL     1      55.966  11.431  27.674  1.00  0.00     0.175 A 
HETATM    6  N4  UNL     1      57.166  10.929  28.100  1.00  0.00    -0.324 N 
ATOM      7  H4  UNL     1      58.012  11.487  27.991  1.00  0.00     0.169 HD
HETATM    8  C4  UNL     1      57.243   9.715  28.661  1.00  0.00     0.113 A 
HETATM    9  C14 UNL     1      56.080   8.991  28.791  1.00  0.00     0.099 A 
HETATM   10  C15 UNL     1      54.856   9.514  28.350  1.00  0.00     0.132 A 
HETATM   11  N11 UNL     1      54.820  10.736  27.794  1.00  0.00    -0.206 N 
HETATM   12  N12 UNL     1      53.662  11.256  27.363  1.00  0.00    -0.122 N 
ATOM     13  H12 UNL     1      52.808  10.708  27.467  1.00  0.00     0.206 HD
ENDROOT
BRANCH   8  14
HETATM   14  N5  UNL     1      58.479   9.195  29.105  1.00  0.00    -0.331 N 
BRANCH  14  15
HETATM   15  C5  UNL     1      58.939   9.528  30.446  1.00  0.00     0.156 C 
BRANCH  15  16
HETATM   16  C6  UNL     1      60.392   9.078  30.617  1.00  0.00     0.184 C 
BRANCH  16  17
HETATM   17  O1  UNL     1      60.500   8.208  31.708  1.00  0.00    -0.399 OA
ATOM     18  H1  UNL     1      59.636   7.993  32.040  1.00  0.00     0.209 HD
ENDBRANCH  16  17
ENDBRANCH  15  16
ENDBRANCH  14  15
BRANCH  14  19
HETATM   19  C7  UNL     1      59.290   8.347  28.267  1.00  0.00     0.036 A 
HETATM   20  C8  UNL     1      60.054   8.892  27.259  1.00  0.00     0.032 A 
HETATM   21  C9  UNL     1      60.843   8.090  26.434  1.00  0.00     0.033 A 
HETATM   22  C10 UNL     1      60.887   6.725  26.596  1.00  0.00     0.052 A 
HETATM   23  C12 UNL     1      60.119   6.189  27.608  1.00  0.00     0.033 A 
HETATM   24  C13 UNL     1      59.338   6.979  28.426  1.00  0.00     0.032 A 
BRANCH  22  25
HETATM   25  N6  UNL     1      61.694   5.890  25.752  1.00  0.00    -0.275 N 
BRANCH  25  26
HETATM   26  N7  UNL     1      61.778   4.506  26.006  1.00  0.00    -0.341 N 
ATOM     27  H72 UNL     1      60.974   4.029  26.414  1.00  0.00     0.177 HD
ATOM     28  H71 UNL     1      62.635   3.999  25.783  1.00  0.00     0.177 HD
ENDBRANCH  25  26
BRANCH  25  29
HETATM   29  C11 UNL     1      62.422   6.436  24.644  1.00  0.00     0.312 C 
BRANCH  29  30
HETATM   30  O2  UNL     1      63.702   5.913  24.504  1.00  0.00    -0.380 OA
ATOM     31  H2  UNL     1      63.762   5.217  23.861  1.00  0.00     0.211 HD
ENDBRANCH  29  30
ENDBRANCH  25  29
ENDBRANCH  22  25
ENDBRANCH  14  19
ENDBRANCH   8  14
BRANCH  10  32
HETATM   32  N8  UNL     1      53.753   8.868  28.459  1.00  0.00    -0.326 N 
HETATM   33  C16 UNL     1      53.204   7.987  27.457  1.00  0.00     0.481 C 
HETATM   34  N9  UNL     1      51.867   7.611  27.946  1.00  0.00    -0.033 N 
HETATM   35  N10 UNL     1      54.038   6.800  27.351  1.00  0.00    -0.033 N 
ATOM     36  H93 UNL     1      51.873   7.210  28.884  1.00  0.00     0.278 HD
ATOM     37  H92 UNL     1      51.270   8.410  28.158  1.00  0.00     0.278 HD
ATOM     38  H91 UNL     1      51.479   6.988  27.238  1.00  0.00     0.278 HD
ATOM     39 3H10 UNL     1      55.015   7.030  27.170  1.00  0.00     0.278 HD
ATOM     40 2H10 UNL     1      54.163   6.333  28.249  1.00  0.00     0.278 HD
ATOM     41 1H10 UNL     1      53.650   6.177  26.642  1.00  0.00     0.278 HD
ATOM     42  H8  UNL     1      53.222   8.986  29.322  1.00  0.00     0.165 HD
ENDBRANCH  10  32
BRANCH   4  43
HETATM   43  N3  UNL     1      56.972  13.368  26.967  1.00  0.00    -0.382 N 
ATOM     44  H32 UNL     1      56.973  14.342  27.270  1.00  0.00     0.157 HD
ATOM     45  H31 UNL     1      57.809  12.940  26.570  1.00  0.00     0.157 HD
ENDBRANCH   4  43
BRANCH   1  46
HETATM   46  N1  UNL     1      52.441  12.914  26.408  1.00  0.00    -0.233 N 
ATOM     47  H12 UNL     1      51.960  12.459  25.633  1.00  0.00     0.174 HD
ATOM     48  H11 UNL     1      51.996  13.721  26.847  1.00  0.00     0.174 HD
ENDBRANCH   1  46
TORSDOF 12
ENDMDL
MODEL 5
REMARK VINA RESULT: -3.527697406      1.444      3.653
REMARK  12 active torsions:
REMARK  status: ('A' for Active; 'I' for Inactive)
REMARK    1  A    between atoms: N1_1  and  C1_4 
REMARK    2  A    between atoms: C2_7  and  N3_8 
REMARK    3  A    between atoms: C4_14  and  N5_15 
REMARK    4  A    between atoms: N5_15  and  C5_16 
REMARK    5  A    between atoms: N5_15  and  C7_20 
REMARK    6  A    between atoms: C5_16  and  C6_17 
REMARK    7  A    between atoms: C6_17  and  O1_18 
REMARK    8  A    between atoms: C10_23  and  N6_24 
REMARK    9  A    between atoms: N6_24  and  N7_25 
REMARK   10  A    between atoms: N6_24  and  C11_28 
REMARK   11  A    between atoms: C11_28  and  O2_29 
REMARK   12  A    between atoms: C15_34  and  N8_35 
REMARK       I    between atoms: N8_35  and  C16_37 
REMARK       I    between atoms: C16_37  and  N9_38 
REMARK       I    between atoms: C16_37  and  N10_42 
ROOT
HETATM    1  C1  UNL     1      53.870   9.301  28.683  1.00  0.00     0.692 A 
HETATM    2  N2  UNL     1      54.730  10.134  29.293  1.00  0.00    -0.172 N 
ATOM      3  H2  UNL     1      54.382  10.978  29.748  1.00  0.00     0.186 HD
HETATM    4  C2  UNL     1      56.051   9.859  29.308  1.00  0.00     0.161 A 
HETATM    5  C3  UNL     1      56.548   8.724  28.702  1.00  0.00     0.175 A 
HETATM    6  N4  UNL     1      57.889   8.454  28.720  1.00  0.00    -0.324 N 
ATOM      7  H4  UNL     1      58.527   9.098  29.187  1.00  0.00     0.169 HD
HETATM    8  C4  UNL     1      58.377   7.354  28.131  1.00  0.00     0.113 A 
HETATM    9  C14 UNL     1      57.487   6.509  27.509  1.00  0.00     0.099 A 
HETATM   10  C15 UNL     1      56.115   6.796  27.496  1.00  0.00     0.132 A 
HETATM   11  N11 UNL     1      55.665   7.908  28.098  1.00  0.00    -0.206 N 
HETATM   12  N12 UNL     1      54.357   8.204  28.097  1.00  0.00    -0.122 N 
ATOM     13  H12 UNL     1      53.710   7.568  27.632  1.00  0.00     0.206 HD
ENDROOT
BRANCH   8  14
HETATM   14  N5  UNL     1      59.760   7.070  28.150  1.00  0.00    -0.331 N 
BRANCH  14  15
HETATM   15  C5  UNL     1      60.452   7.033  29.431  1.00  0.00     0.156 C 
BRANCH  15  16
HETATM   16  C6  UNL     1      60.694   8.461  29.925  1.00  0.00     0.184 C 
BRANCH  16  17
HETATM   17  O1  UNL     1      60.668   8.497  31.324  1.00  0.00    -0.399 OA
ATOM     18  H1  UNL     1      59.823   8.808  31.627  1.00  0.00     0.209 HD
ENDBRANCH  16  17
ENDBRANCH  15  16
ENDBRANCH  14  15
BRANCH  14  19
HETATM   19  C7  UNL     1      60.499   6.816  26.938  1.00  0.00     0.036 A 
HETATM   20  C8  UNL     1      60.289   5.656  26.227  1.00  0.00     0.032 A 
HETATM   21  C9  UNL     1      60.995   5.388  25.053  1.00  0.00     0.033 A 
HETATM   22  C10 UNL     1      61.928   6.272  24.564  1.00  0.00     0.052 A 
HETATM   23  C12 UNL     1      62.131   7.431  25.283  1.00  0.00     0.033 A 
HETATM   24  C13 UNL     1      61.435   7.699  26.443  1.00  0.00     0.032 A 
BRANCH  22  25
HETATM   25  N6  UNL     1      62.661   6.006  23.358  1.00  0.00    -0.275 N 
BRANCH  25  26
HETATM   26  N7  UNL     1      64.004   5.582  23.432  1.00  0.00    -0.341 N 
ATOM     27  H72 UNL     1      64.379   5.284  24.334  1.00  0.00     0.177 HD
ATOM     28  H71 UNL     1      64.582   5.577  22.593  1.00  0.00     0.177 HD
ENDBRANCH  25  26
BRANCH  25  29
HETATM   29  C11 UNL     1      62.054   6.161  22.069  1.00  0.00     0.312 C 
BRANCH  29  30
HETATM   30  O2  UNL     1      62.222   5.061  21.237  1.00  0.00    -0.380 OA
ATOM     31  H2  UNL     1      63.068   5.034  20.806  1.00  0.00     0.211 HD
ENDBRANCH  29  30
ENDBRANCH  25  29
ENDBRANCH  22  25
ENDBRANCH  14  19
ENDBRANCH   8  14
BRANCH  10  32
HETATM   32  N8  UNL     1      55.257   6.028  26.928  1.00  0.00    -0.326 N 
HETATM   33  C16 UNL     1      55.545   5.118  25.846  1.00  0.00     0.481 C 
HETATM   34  N9  UNL     1      54.241   4.584  25.417  1.00  0.00    -0.033 N 
HETATM   35  N10 UNL     1      56.381   4.034  26.338  1.00  0.00    -0.033 N 
ATOM     36  H93 UNL     1      53.704   4.162  26.174  1.00  0.00     0.278 HD
ATOM     37  H92 UNL     1      53.564   5.306  25.174  1.00  0.00     0.278 HD
ATOM     38  H91 UNL     1      54.445   3.940  24.653  1.00  0.00     0.278 HD
ATOM     39 3H10 UNL     1      57.228   4.375  26.792  1.00  0.00     0.278 HD
ATOM     40 2H10 UNL     1      55.967   3.561  27.141  1.00  0.00     0.278 HD
ATOM     41 1H10 UNL     1      56.584   3.391  25.574  1.00  0.00     0.278 HD
ATOM     42  H8  UNL     1      54.296   6.064  27.268  1.00  0.00     0.165 HD
ENDBRANCH  10  32
BRANCH   4  43
HETATM   43  N3  UNL     1      56.873  10.659  29.892  1.00  0.00    -0.382 N 
ATOM     44  H32 UNL     1      57.814  10.757  29.512  1.00  0.00     0.157 HD
ATOM     45  H31 UNL     1      56.582  11.182  30.718  1.00  0.00     0.157 HD
ENDBRANCH   4  43
BRANCH   1  46
HETATM   46  N1  UNL     1      52.602   9.534  28.649  1.00  0.00    -0.233 N 
ATOM     47  H12 UNL     1      52.189  10.180  29.321  1.00  0.00     0.174 HD
ATOM     48  H11 UNL     1      51.989   9.088  27.966  1.00  0.00     0.174 HD
ENDBRANCH   1  46
TORSDOF 12
ENDMDL
