MODEL 1
REMARK VINA RESULT: -10.138542140      0.000      0.000
REMARK  3 active torsions:
REMARK  status: ('A' for Active; 'I' for Inactive)
REMARK    1  A    between atoms: C9_9  and  C10_10 
REMARK    2  A    between atoms: C10_10  and  C11_11 
REMARK    3  A    between atoms: C11_11  and  C13_13 
ROOT
HETATM    1  C1  UNL     1      38.535  23.193 101.202  1.00  0.00     0.012 C 
HETATM    2  C2  UNL     1      39.469  22.498 102.162  1.00  0.00     0.004 C 
HETATM    3  C3  UNL     1      39.885  23.402 103.301  1.00  0.00     0.006 C 
HETATM    4  C4  UNL     1      40.494  24.672 102.763  1.00  0.00     0.001 C 
HETATM    5  C5  UNL     1      41.558  24.416 101.725  1.00  0.00     0.007 C 
HETATM    6  C6  UNL     1      41.886  22.948 101.687  1.00  0.00     0.013 C 
HETATM    7  C7  UNL     1      42.975  22.688 100.679  1.00  0.00     0.050 C 
HETATM    8  C8  UNL     1      43.038  21.233 100.292  1.00  0.00     0.006 C 
HETATM    9  C9  UNL     1      43.670  20.864  99.218  1.00  0.00    -0.014 C 
HETATM   10  C23 UNL     1      42.366  20.324 101.206  1.00  0.00     0.247 C 
HETATM   11  O1  UNL     1      42.921  19.246 101.511  1.00  0.00    -0.268 OA
HETATM   12  N1  UNL     1      41.094  20.703 101.720  1.00  0.00    -0.352 N 
ATOM     13  H1  UNL     1      40.505  20.067 102.257  1.00  0.00     0.163 HD
HETATM   14  C24 UNL     1      40.696  22.086 101.414  1.00  0.00     0.092 C 
ENDROOT
BRANCH   9  15
HETATM   15  C10 UNL     1      43.834  19.515  98.690  1.00  0.00     0.033 C 
BRANCH  15  16
HETATM   16  C11 UNL     1      44.521  19.568  97.324  1.00  0.00    -0.007 C 
HETATM   17  C12 UNL     1      44.491  18.190  96.749  1.00  0.00     0.011 C 
BRANCH  16  18
HETATM   18  C13 UNL     1      45.918  20.117  97.432  1.00  0.00    -0.036 C 
HETATM   19  C14 UNL     1      45.983  21.484  98.042  1.00  0.00     0.014 C 
HETATM   20  C15 UNL     1      47.441  21.889  98.113  1.00  0.00    -0.013 C 
HETATM   21  C16 UNL     1      48.244  20.978  99.009  1.00  0.00     0.009 C 
HETATM   22  C20 UNL     1      48.104  21.926  96.768  1.00  0.00     0.009 C 
HETATM   23  C17 UNL     1      48.152  19.576  98.430  1.00  0.00    -0.013 C 
HETATM   24  C18 UNL     1      48.739  19.524  97.049  1.00  0.00     0.009 C 
HETATM   25  C22 UNL     1      46.699  19.177  98.328  1.00  0.00     0.014 C 
HETATM   26  C19 UNL     1      48.025  20.529  96.182  1.00  0.00    -0.013 C 
HETATM   27  C21 UNL     1      46.550  20.186  96.064  1.00  0.00     0.014 C 
ENDBRANCH  16  18
ENDBRANCH  15  16
ENDBRANCH   9  15
TORSDOF 3
ENDMDL
MODEL 2
REMARK VINA RESULT: -10.033859841      1.509      3.020
REMARK  3 active torsions:
REMARK  status: ('A' for Active; 'I' for Inactive)
REMARK    1  A    between atoms: C9_9  and  C10_10 
REMARK    2  A    between atoms: C10_10  and  C11_11 
REMARK    3  A    between atoms: C11_11  and  C13_13 
ROOT
HETATM    1  C1  UNL     1      40.019  21.339  99.773  1.00  0.00     0.012 C 
HETATM    2  C2  UNL     1      40.884  21.310 101.008  1.00  0.00     0.004 C 
HETATM    3  C3  UNL     1      40.272  22.097 102.146  1.00  0.00     0.006 C 
HETATM    4  C4  UNL     1      39.985  23.511 101.708  1.00  0.00     0.001 C 
HETATM    5  C5  UNL     1      41.168  24.166 101.037  1.00  0.00     0.007 C 
HETATM    6  C6  UNL     1      42.388  23.302 101.206  1.00  0.00     0.013 C 
HETATM    7  C7  UNL     1      43.582  23.967 100.572  1.00  0.00     0.050 C 
HETATM    8  C8  UNL     1      44.701  22.986 100.332  1.00  0.00     0.006 C 
HETATM    9  C9  UNL     1      45.667  23.277  99.513  1.00  0.00    -0.014 C 
HETATM   10  C23 UNL     1      44.604  21.745 101.084  1.00  0.00     0.247 C 
HETATM   11  O1  UNL     1      45.632  21.274 101.616  1.00  0.00    -0.268 OA
HETATM   12  N1  UNL     1      43.331  21.116 101.184  1.00  0.00    -0.352 N 
ATOM     13  H1  UNL     1      43.207  20.184 101.579  1.00  0.00     0.163 HD
HETATM   14  C24 UNL     1      42.208  21.918 100.673  1.00  0.00     0.092 C 
ENDROOT
BRANCH   9  15
HETATM   15  C10 UNL     1      46.822  22.460  99.158  1.00  0.00     0.033 C 
BRANCH  15  16
HETATM   16  C11 UNL     1      46.783  22.121  97.667  1.00  0.00    -0.007 C 
HETATM   17  C12 UNL     1      46.058  23.225  96.970  1.00  0.00     0.011 C 
BRANCH  16  18
HETATM   18  C13 UNL     1      46.153  20.776  97.425  1.00  0.00    -0.036 C 
HETATM   19  C14 UNL     1      46.498  20.179  96.095  1.00  0.00     0.014 C 
HETATM   20  C15 UNL     1      45.824  18.826  96.007  1.00  0.00    -0.013 C 
HETATM   21  C16 UNL     1      46.332  17.866  97.055  1.00  0.00     0.009 C 
HETATM   22  C20 UNL     1      44.332  18.906  96.130  1.00  0.00     0.009 C 
HETATM   23  C17 UNL     1      46.031  18.476  98.413  1.00  0.00    -0.013 C 
HETATM   24  C18 UNL     1      44.553  18.655  98.608  1.00  0.00     0.009 C 
HETATM   25  C22 UNL     1      46.675  19.840  98.497  1.00  0.00     0.014 C 
HETATM   26  C19 UNL     1      44.018  19.508  97.487  1.00  0.00    -0.013 C 
HETATM   27  C21 UNL     1      44.651  20.889  97.511  1.00  0.00     0.014 C 
ENDBRANCH  16  18
ENDBRANCH  15  16
ENDBRANCH   9  15
TORSDOF 3
ENDMDL
MODEL 3
REMARK VINA RESULT: -10.017788429      0.531      1.681
REMARK  3 active torsions:
REMARK  status: ('A' for Active; 'I' for Inactive)
REMARK    1  A    between atoms: C9_9  and  C10_10 
REMARK    2  A    between atoms: C10_10  and  C11_11 
REMARK    3  A    between atoms: C11_11  and  C13_13 
ROOT
HETATM    1  C1  UNL     1      38.651  23.201 101.146  1.00  0.00     0.012 C 
HETATM    2  C2  UNL     1      39.588  22.523 102.116  1.00  0.00     0.004 C 
HETATM    3  C3  UNL     1      40.050  23.463 103.207  1.00  0.00     0.006 C 
HETATM    4  C4  UNL     1      40.679  24.694 102.604  1.00  0.00     0.001 C 
HETATM    5  C5  UNL     1      41.715  24.366 101.556  1.00  0.00     0.007 C 
HETATM    6  C6  UNL     1      42.005  22.890 101.575  1.00  0.00     0.013 C 
HETATM    7  C7  UNL     1      43.066  22.560 100.558  1.00  0.00     0.050 C 
HETATM    8  C8  UNL     1      43.084  21.088 100.233  1.00  0.00     0.006 C 
HETATM    9  C9  UNL     1      43.684  20.658  99.163  1.00  0.00    -0.014 C 
HETATM   10  C23 UNL     1      42.409  20.236 101.198  1.00  0.00     0.247 C 
HETATM   11  O1  UNL     1      42.943  19.158 101.537  1.00  0.00    -0.268 OA
HETATM   12  N1  UNL     1      41.157  20.670 101.719  1.00  0.00    -0.352 N 
ATOM     13  H1  UNL     1      40.564  20.072 102.294  1.00  0.00     0.163 HD
HETATM   14  C24 UNL     1      40.788  22.049 101.363  1.00  0.00     0.092 C 
ENDROOT
BRANCH   9  15
HETATM   15  C10 UNL     1      43.803  19.284  98.690  1.00  0.00     0.033 C 
BRANCH  15  16
HETATM   16  C11 UNL     1      44.498  19.259  97.327  1.00  0.00    -0.007 C 
HETATM   17  C12 UNL     1      44.392  17.868  96.792  1.00  0.00     0.011 C 
BRANCH  16  18
HETATM   18  C13 UNL     1      45.922  19.732  97.427  1.00  0.00    -0.036 C 
HETATM   19  C14 UNL     1      46.923  18.743  96.911  1.00  0.00     0.014 C 
HETATM   20  C15 UNL     1      48.298  19.365  97.047  1.00  0.00    -0.013 C 
HETATM   21  C16 UNL     1      48.448  20.608  96.205  1.00  0.00     0.009 C 
HETATM   22  C20 UNL     1      48.646  19.713  98.463  1.00  0.00     0.009 C 
HETATM   23  C17 UNL     1      47.408  21.608  96.684  1.00  0.00    -0.013 C 
HETATM   24  C18 UNL     1      47.637  21.976  98.122  1.00  0.00     0.009 C 
HETATM   25  C22 UNL     1      46.037  20.984  96.581  1.00  0.00     0.014 C 
HETATM   26  C19 UNL     1      47.618  20.717  98.951  1.00  0.00    -0.013 C 
HETATM   27  C21 UNL     1      46.263  20.035  98.865  1.00  0.00     0.014 C 
ENDBRANCH  16  18
ENDBRANCH  15  16
ENDBRANCH   9  15
TORSDOF 3
ENDMDL
MODEL 4
REMARK VINA RESULT: -9.922726724      1.524      3.054
REMARK  3 active torsions:
REMARK  status: ('A' for Active; 'I' for Inactive)
REMARK    1  A    between atoms: C9_9  and  C10_10 
REMARK    2  A    between atoms: C10_10  and  C11_11 
REMARK    3  A    between atoms: C11_11  and  C13_13 
ROOT
HETATM    1  C1  UNL     1      40.012  21.348  99.828  1.00  0.00     0.012 C 
HETATM    2  C2  UNL     1      40.883  21.350 101.060  1.00  0.00     0.004 C 
HETATM    3  C3  UNL     1      40.274  22.164 102.180  1.00  0.00     0.006 C 
HETATM    4  C4  UNL     1      39.984  23.566 101.709  1.00  0.00     0.001 C 
HETATM    5  C5  UNL     1      41.163  24.206 101.018  1.00  0.00     0.007 C 
HETATM    6  C6  UNL     1      42.385  23.349 101.203  1.00  0.00     0.013 C 
HETATM    7  C7  UNL     1      43.576  23.999 100.548  1.00  0.00     0.050 C 
HETATM    8  C8  UNL     1      44.695  23.014 100.328  1.00  0.00     0.006 C 
HETATM    9  C9  UNL     1      45.657  23.287  99.498  1.00  0.00    -0.014 C 
HETATM   10  C23 UNL     1      44.603  21.792 101.110  1.00  0.00     0.247 C 
HETATM   11  O1  UNL     1      45.634  21.335 101.649  1.00  0.00    -0.268 OA
HETATM   12  N1  UNL     1      43.331  21.164 101.231  1.00  0.00    -0.352 N 
ATOM     13  H1  UNL     1      43.210  20.241 101.649  1.00  0.00     0.163 HD
HETATM   14  C24 UNL     1      42.205  21.951 100.705  1.00  0.00     0.092 C 
ENDROOT
BRANCH   9  15
HETATM   15  C10 UNL     1      46.811  22.463  99.158  1.00  0.00     0.033 C 
BRANCH  15  16
HETATM   16  C11 UNL     1      46.736  22.037  97.691  1.00  0.00    -0.007 C 
HETATM   17  C12 UNL     1      46.021  23.116  96.944  1.00  0.00     0.011 C 
BRANCH  16  18
HETATM   18  C13 UNL     1      46.073  20.695  97.540  1.00  0.00    -0.036 C 
HETATM   19  C14 UNL     1      44.577  20.751  97.603  1.00  0.00     0.014 C 
HETATM   20  C15 UNL     1      44.054  19.343  97.407  1.00  0.00    -0.013 C 
HETATM   21  C16 UNL     1      44.408  18.785  96.051  1.00  0.00     0.009 C 
HETATM   22  C20 UNL     1      44.547  18.386  98.451  1.00  0.00     0.009 C 
HETATM   23  C17 UNL     1      45.925  18.763  95.951  1.00  0.00    -0.013 C 
HETATM   24  C18 UNL     1      46.521  17.872  97.003  1.00  0.00     0.009 C 
HETATM   25  C22 UNL     1      46.456  20.159  96.176  1.00  0.00     0.014 C 
HETATM   26  C19 UNL     1      46.061  18.349  98.357  1.00  0.00    -0.013 C 
HETATM   27  C21 UNL     1      46.551  19.762  98.625  1.00  0.00     0.014 C 
ENDBRANCH  16  18
ENDBRANCH  15  16
ENDBRANCH   9  15
TORSDOF 3
ENDMDL
MODEL 5
REMARK VINA RESULT: -9.916951424      1.088      2.044
REMARK  3 active torsions:
REMARK  status: ('A' for Active; 'I' for Inactive)
REMARK    1  A    between atoms: C9_9  and  C10_10 
REMARK    2  A    between atoms: C10_10  and  C11_11 
REMARK    3  A    between atoms: C11_11  and  C13_13 
ROOT
HETATM    1  C1  UNL     1      39.223  22.807 100.436  1.00  0.00     0.012 C 
HETATM    2  C2  UNL     1      40.014  21.905 101.351  1.00  0.00     0.004 C 
HETATM    3  C3  UNL     1      40.348  22.582 102.661  1.00  0.00     0.006 C 
HETATM    4  C4  UNL     1      41.073  23.880 102.408  1.00  0.00     0.001 C 
HETATM    5  C5  UNL     1      42.229  23.726 101.451  1.00  0.00     0.007 C 
HETATM    6  C6  UNL     1      42.487  22.265 101.198  1.00  0.00     0.013 C 
HETATM    7  C7  UNL     1      43.664  22.102 100.273  1.00  0.00     0.050 C 
HETATM    8  C8  UNL     1      43.697  20.728  99.655  1.00  0.00     0.006 C 
HETATM    9  C9  UNL     1      44.422  20.498  98.601  1.00  0.00    -0.014 C 
HETATM   10  C23 UNL     1      42.887  19.728 100.332  1.00  0.00     0.247 C 
HETATM   11  O1  UNL     1      43.352  18.581 100.503  1.00  0.00    -0.268 OA
HETATM   12  N1  UNL     1      41.586  20.103 100.774  1.00  0.00    -0.352 N 
ATOM     13  H1  UNL     1      40.913  19.428 101.136  1.00  0.00     0.163 HD
HETATM   14  C24 UNL     1      41.292  21.540 100.669  1.00  0.00     0.092 C 
ENDROOT
BRANCH   9  15
HETATM   15  C10 UNL     1      44.576  19.245  97.872  1.00  0.00     0.033 C 
BRANCH  15  16
HETATM   16  C11 UNL     1      45.764  19.340  96.912  1.00  0.00    -0.007 C 
HETATM   17  C12 UNL     1      46.495  18.039  96.967  1.00  0.00     0.011 C 
BRANCH  16  18
HETATM   18  C13 UNL     1      46.647  20.512  97.245  1.00  0.00    -0.036 C 
HETATM   19  C14 UNL     1      47.924  20.546  96.464  1.00  0.00     0.014 C 
HETATM   20  C15 UNL     1      48.688  21.785  96.880  1.00  0.00    -0.013 C 
HETATM   21  C16 UNL     1      47.944  23.054  96.544  1.00  0.00     0.009 C 
HETATM   22  C20 UNL     1      49.015  21.808  98.343  1.00  0.00     0.009 C 
HETATM   23  C17 UNL     1      46.622  23.017  97.293  1.00  0.00    -0.013 C 
HETATM   24  C18 UNL     1      46.846  22.976  98.778  1.00  0.00     0.009 C 
HETATM   25  C22 UNL     1      45.869  21.767  96.906  1.00  0.00     0.014 C 
HETATM   26  C19 UNL     1      47.701  21.779  99.104  1.00  0.00    -0.013 C 
HETATM   27  C21 UNL     1      46.997  20.491  98.713  1.00  0.00     0.014 C 
ENDBRANCH  16  18
ENDBRANCH  15  16
ENDBRANCH   9  15
TORSDOF 3
ENDMDL
