MODEL 1
REMARK VINA RESULT: -10.866859125      0.000      0.000
REMARK  3 active torsions:
REMARK  status: ('A' for Active; 'I' for Inactive)
REMARK    1  A    between atoms: C14_15  and  C15_16 
REMARK       I    between atoms: C15_16  and  N1_18 
REMARK    2  A    between atoms: N1_18  and  C16_20 
REMARK    3  A    between atoms: C16_20  and  C17_21 
ROOT
HETATM    1  O1  UNL     1      46.075  21.987 100.847  1.00  0.00    -0.297 OA
HETATM    2  C1  UNL     1      45.100  21.998 100.119  1.00  0.00     0.140 C 
HETATM    3  C2  UNL     1      45.336  22.371  98.703  1.00  0.00     0.079 C 
HETATM    4  C3  UNL     1      46.809  22.186  98.333  1.00  0.00     0.007 C 
HETATM    5  C4  UNL     1      47.296  20.833  98.719  1.00  0.00     0.000 C 
HETATM    6  C5  UNL     1      47.839  20.020  97.566  1.00  0.00     0.000 C 
HETATM    7  C6  UNL     1      46.816  19.348  96.745  1.00  0.00     0.000 C 
HETATM    8  C7  UNL     1      46.427  17.950  97.085  1.00  0.00     0.000 C 
HETATM    9  C8  UNL     1      46.603  17.472  98.447  1.00  0.00     0.000 C 
HETATM   10  C9  UNL     1      45.432  17.317  99.344  1.00  0.00     0.000 C 
HETATM   11  C10 UNL     1      44.079  17.367  98.765  1.00  0.00     0.000 C 
HETATM   12  C11 UNL     1      43.436  18.725  98.690  1.00  0.00     0.000 C 
HETATM   13  C12 UNL     1      43.093  19.328 100.024  1.00  0.00     0.001 C 
HETATM   14  C13 UNL     1      42.913  20.818  99.797  1.00  0.00     0.022 C 
HETATM   15  C14 UNL     1      43.799  21.652 100.682  1.00  0.00     0.147 C 
ENDROOT
BRANCH  15  16
HETATM   16  C15 UNL     1      43.061  22.901 101.040  1.00  0.00     0.229 C 
HETATM   17  O2  UNL     1      43.727  23.846 101.526  1.00  0.00    -0.273 OA
HETATM   18  N1  UNL     1      41.680  23.052 100.854  1.00  0.00    -0.360 N 
ATOM     19  H1  UNL     1      41.128  22.290 100.460  1.00  0.00     0.162 HD
BRANCH  18  20
HETATM   20  C16 UNL     1      41.045  24.296 101.227  1.00  0.00     0.127 C 
BRANCH  20  21
HETATM   21  C17 UNL     1      39.786  24.033 102.008  1.00  0.00     0.003 C 
HETATM   22  C18 UNL     1      39.236  25.340 102.538  1.00  0.00     0.006 C 
HETATM   23  C19 UNL     1      37.911  25.037 103.195  1.00  0.00     0.000 C 
HETATM   24  C20 UNL     1      37.678  23.560 103.371  1.00  0.00     0.000 C 
HETATM   25  C21 UNL     1      38.872  22.839 103.942  1.00  0.00     0.000 C 
HETATM   26  C22 UNL     1      40.155  23.200 103.241  1.00  0.00     0.006 C 
ENDBRANCH  20  21
ENDBRANCH  18  20
ENDBRANCH  15  16
TORSDOF 3
ENDMDL
MODEL 2
REMARK VINA RESULT: -10.120393662      1.523      2.525
REMARK  3 active torsions:
REMARK  status: ('A' for Active; 'I' for Inactive)
REMARK    1  A    between atoms: C14_15  and  C15_16 
REMARK       I    between atoms: C15_16  and  N1_18 
REMARK    2  A    between atoms: N1_18  and  C16_20 
REMARK    3  A    between atoms: C16_20  and  C17_21 
ROOT
HETATM    1  O1  UNL     1      45.115  21.778 101.296  1.00  0.00    -0.297 OA
HETATM    2  C1  UNL     1      44.325  21.499 100.413  1.00  0.00     0.140 C 
HETATM    3  C2  UNL     1      44.164  22.498  99.328  1.00  0.00     0.079 C 
HETATM    4  C3  UNL     1      45.371  23.439  99.277  1.00  0.00     0.007 C 
HETATM    5  C4  UNL     1      46.648  22.675  99.247  1.00  0.00     0.000 C 
HETATM    6  C5  UNL     1      47.512  22.964  98.041  1.00  0.00     0.000 C 
HETATM    7  C6  UNL     1      47.127  22.244  96.814  1.00  0.00     0.000 C 
HETATM    8  C7  UNL     1      47.771  20.933  96.519  1.00  0.00     0.000 C 
HETATM    9  C8  UNL     1      48.308  20.139  97.614  1.00  0.00     0.000 C 
HETATM   10  C9  UNL     1      47.587  18.933  98.089  1.00  0.00     0.000 C 
HETATM   11  C10 UNL     1      46.496  18.384  97.265  1.00  0.00     0.000 C 
HETATM   12  C11 UNL     1      45.119  18.922  97.540  1.00  0.00     0.000 C 
HETATM   13  C12 UNL     1      44.554  18.538  98.881  1.00  0.00     0.001 C 
HETATM   14  C13 UNL     1      43.429  19.513  99.176  1.00  0.00     0.022 C 
HETATM   15  C14 UNL     1      43.609  20.229 100.486  1.00  0.00     0.147 C 
ENDROOT
BRANCH  15  16
HETATM   16  C15 UNL     1      42.260  20.451 101.089  1.00  0.00     0.229 C 
HETATM   17  O2  UNL     1      41.469  19.476 101.109  1.00  0.00    -0.273 OA
HETATM   18  N1  UNL     1      41.853  21.682 101.620  1.00  0.00    -0.360 N 
ATOM     19  H1  UNL     1      42.487  22.482 101.608  1.00  0.00     0.162 HD
BRANCH  18  20
HETATM   20  C16 UNL     1      40.529  21.810 102.185  1.00  0.00     0.127 C 
BRANCH  20  21
HETATM   21  C17 UNL     1      40.142  23.259 102.301  1.00  0.00     0.003 C 
HETATM   22  C18 UNL     1      38.672  23.365 102.649  1.00  0.00     0.006 C 
HETATM   23  C19 UNL     1      38.370  24.825 102.885  1.00  0.00     0.000 C 
HETATM   24  C20 UNL     1      39.493  25.726 102.447  1.00  0.00     0.000 C 
HETATM   25  C21 UNL     1      40.027  25.380 101.080  1.00  0.00     0.000 C 
HETATM   26  C22 UNL     1      40.295  23.906 100.920  1.00  0.00     0.006 C 
ENDBRANCH  20  21
ENDBRANCH  18  20
ENDBRANCH  15  16
TORSDOF 3
ENDMDL
MODEL 3
REMARK VINA RESULT: -10.089175491      0.464      1.046
REMARK  3 active torsions:
REMARK  status: ('A' for Active; 'I' for Inactive)
REMARK    1  A    between atoms: C14_15  and  C15_16 
REMARK       I    between atoms: C15_16  and  N1_18 
REMARK    2  A    between atoms: N1_18  and  C16_20 
REMARK    3  A    between atoms: C16_20  and  C17_21 
ROOT
HETATM    1  O1  UNL     1      46.286  21.901 100.803  1.00  0.00    -0.297 OA
HETATM    2  C1  UNL     1      45.303  21.956 100.087  1.00  0.00     0.140 C 
HETATM    3  C2  UNL     1      45.536  22.311  98.666  1.00  0.00     0.079 C 
HETATM    4  C3  UNL     1      46.994  22.053  98.278  1.00  0.00     0.007 C 
HETATM    5  C4  UNL     1      47.419  20.679  98.664  1.00  0.00     0.000 C 
HETATM    6  C5  UNL     1      47.906  19.836  97.508  1.00  0.00     0.000 C 
HETATM    7  C6  UNL     1      46.840  19.211  96.704  1.00  0.00     0.000 C 
HETATM    8  C7  UNL     1      46.388  17.836  97.055  1.00  0.00     0.000 C 
HETATM    9  C8  UNL     1      46.559  17.355  98.417  1.00  0.00     0.000 C 
HETATM   10  C9  UNL     1      45.395  17.262  99.332  1.00  0.00     0.000 C 
HETATM   11  C10 UNL     1      44.038  17.375  98.770  1.00  0.00     0.000 C 
HETATM   12  C11 UNL     1      43.461  18.762  98.697  1.00  0.00     0.000 C 
HETATM   13  C12 UNL     1      43.166  19.387 100.033  1.00  0.00     0.001 C 
HETATM   14  C13 UNL     1      43.056  20.883  99.802  1.00  0.00     0.022 C 
HETATM   15  C14 UNL     1      43.994  21.677 100.670  1.00  0.00     0.147 C 
ENDROOT
BRANCH  15  16
HETATM   16  C15 UNL     1      43.322  22.962 101.031  1.00  0.00     0.229 C 
HETATM   17  O2  UNL     1      44.048  23.893 101.458  1.00  0.00    -0.273 OA
HETATM   18  N1  UNL     1      41.940  23.162 100.913  1.00  0.00    -0.360 N 
ATOM     19  H1  UNL     1      41.341  22.412 100.568  1.00  0.00     0.162 HD
BRANCH  18  20
HETATM   20  C16 UNL     1      41.373  24.438 101.284  1.00  0.00     0.127 C 
BRANCH  20  21
HETATM   21  C17 UNL     1      40.289  24.255 102.311  1.00  0.00     0.003 C 
HETATM   22  C18 UNL     1      39.529  22.977 102.024  1.00  0.00     0.006 C 
HETATM   23  C19 UNL     1      38.548  22.773 103.154  1.00  0.00     0.000 C 
HETATM   24  C20 UNL     1      38.423  23.986 104.035  1.00  0.00     0.000 C 
HETATM   25  C21 UNL     1      38.268  25.268 103.257  1.00  0.00     0.000 C 
HETATM   26  C22 UNL     1      39.276  25.393 102.144  1.00  0.00     0.006 C 
ENDBRANCH  20  21
ENDBRANCH  18  20
ENDBRANCH  15  16
TORSDOF 3
ENDMDL
MODEL 4
REMARK VINA RESULT: -9.945438352      1.636      3.339
REMARK  3 active torsions:
REMARK  status: ('A' for Active; 'I' for Inactive)
REMARK    1  A    between atoms: C14_15  and  C15_16 
REMARK       I    between atoms: C15_16  and  N1_18 
REMARK    2  A    between atoms: N1_18  and  C16_20 
REMARK    3  A    between atoms: C16_20  and  C17_21 
ROOT
HETATM    1  O1  UNL     1      42.972  19.995  98.091  1.00  0.00    -0.297 OA
HETATM    2  C1  UNL     1      43.454  20.199  99.190  1.00  0.00     0.140 C 
HETATM    3  C2  UNL     1      44.315  19.127  99.746  1.00  0.00     0.079 C 
HETATM    4  C3  UNL     1      44.819  18.207  98.631  1.00  0.00     0.007 C 
HETATM    5  C4  UNL     1      45.424  18.989  97.519  1.00  0.00     0.000 C 
HETATM    6  C5  UNL     1      46.864  18.635  97.227  1.00  0.00     0.000 C 
HETATM    7  C6  UNL     1      47.851  19.265  98.121  1.00  0.00     0.000 C 
HETATM    8  C7  UNL     1      48.459  20.564  97.718  1.00  0.00     0.000 C 
HETATM    9  C8  UNL     1      47.736  21.438  96.808  1.00  0.00     0.000 C 
HETATM   10  C9  UNL     1      47.067  22.661  97.316  1.00  0.00     0.000 C 
HETATM   11  C10 UNL     1      47.384  23.134  98.675  1.00  0.00     0.000 C 
HETATM   12  C11 UNL     1      46.528  22.592  99.786  1.00  0.00     0.000 C 
HETATM   13  C12 UNL     1      45.097  23.055  99.754  1.00  0.00     0.001 C 
HETATM   14  C13 UNL     1      44.304  22.082 100.608  1.00  0.00     0.022 C 
HETATM   15  C14 UNL     1      43.154  21.459  99.865  1.00  0.00     0.147 C 
ENDROOT
BRANCH  15  16
HETATM   16  C15 UNL     1      42.030  21.254 100.827  1.00  0.00     0.229 C 
HETATM   17  O2  UNL     1      41.815  20.083 101.224  1.00  0.00    -0.273 OA
HETATM   18  N1  UNL     1      41.223  22.301 101.292  1.00  0.00    -0.360 N 
ATOM     19  H1  UNL     1      41.388  23.257 100.976  1.00  0.00     0.162 HD
BRANCH  18  20
HETATM   20  C16 UNL     1      40.155  22.015 102.224  1.00  0.00     0.127 C 
BRANCH  20  21
HETATM   21  C17 UNL     1      39.281  23.225 102.413  1.00  0.00     0.003 C 
HETATM   22  C18 UNL     1      40.140  24.472 102.441  1.00  0.00     0.006 C 
HETATM   23  C19 UNL     1      39.209  25.659 102.496  1.00  0.00     0.000 C 
HETATM   24  C20 UNL     1      37.785  25.263 102.782  1.00  0.00     0.000 C 
HETATM   25  C21 UNL     1      37.663  24.281 103.919  1.00  0.00     0.000 C 
HETATM   26  C22 UNL     1      38.629  23.132 103.797  1.00  0.00     0.006 C 
ENDBRANCH  20  21
ENDBRANCH  18  20
ENDBRANCH  15  16
TORSDOF 3
ENDMDL
MODEL 5
REMARK VINA RESULT: -9.880680644      1.596      3.357
REMARK  3 active torsions:
REMARK  status: ('A' for Active; 'I' for Inactive)
REMARK    1  A    between atoms: C14_15  and  C15_16 
REMARK       I    between atoms: C15_16  and  N1_18 
REMARK    2  A    between atoms: N1_18  and  C16_20 
REMARK    3  A    between atoms: C16_20  and  C17_21 
ROOT
HETATM    1  O1  UNL     1      42.793  20.078  98.246  1.00  0.00    -0.297 OA
HETATM    2  C1  UNL     1      43.364  20.210  99.313  1.00  0.00     0.140 C 
HETATM    3  C2  UNL     1      44.106  19.029  99.818  1.00  0.00     0.079 C 
HETATM    4  C3  UNL     1      44.415  18.057  98.677  1.00  0.00     0.007 C 
HETATM    5  C4  UNL     1      45.051  18.759  97.528  1.00  0.00     0.000 C 
HETATM    6  C5  UNL     1      46.411  18.218  97.150  1.00  0.00     0.000 C 
HETATM    7  C6  UNL     1      47.525  18.705  97.982  1.00  0.00     0.000 C 
HETATM    8  C7  UNL     1      48.275  19.915  97.541  1.00  0.00     0.000 C 
HETATM    9  C8  UNL     1      47.621  20.883  96.675  1.00  0.00     0.000 C 
HETATM   10  C9  UNL     1      47.153  22.181  97.220  1.00  0.00     0.000 C 
HETATM   11  C10 UNL     1      47.611  22.599  98.556  1.00  0.00     0.000 C 
HETATM   12  C11 UNL     1      46.759  22.169  99.718  1.00  0.00     0.000 C 
HETATM   13  C12 UNL     1      45.403  22.818  99.771  1.00  0.00     0.001 C 
HETATM   14  C13 UNL     1      44.540  21.955 100.673  1.00  0.00     0.022 C 
HETATM   15  C14 UNL     1      43.275  21.494 100.002  1.00  0.00     0.147 C 
ENDROOT
BRANCH  15  16
HETATM   16  C15 UNL     1      42.193  21.435 101.031  1.00  0.00     0.229 C 
HETATM   17  O2  UNL     1      41.779  20.300 101.369  1.00  0.00    -0.273 OA
HETATM   18  N1  UNL     1      41.637  22.578 101.621  1.00  0.00    -0.360 N 
ATOM     19  H1  UNL     1      41.966  23.506 101.354  1.00  0.00     0.162 HD
BRANCH  18  20
HETATM   20  C16 UNL     1      40.593  22.431 102.610  1.00  0.00     0.127 C 
BRANCH  20  21
HETATM   21  C17 UNL     1      39.837  23.720 102.775  1.00  0.00     0.003 C 
HETATM   22  C18 UNL     1      38.361  23.425 102.942  1.00  0.00     0.006 C 
HETATM   23  C19 UNL     1      37.670  24.735 103.237  1.00  0.00     0.000 C 
HETATM   24  C20 UNL     1      38.563  25.923 103.005  1.00  0.00     0.000 C 
HETATM   25  C21 UNL     1      39.308  25.855 101.696  1.00  0.00     0.000 C 
HETATM   26  C22 UNL     1      39.961  24.517 101.472  1.00  0.00     0.006 C 
ENDBRANCH  20  21
ENDBRANCH  18  20
ENDBRANCH  15  16
TORSDOF 3
ENDMDL
