MODEL 1
REMARK VINA RESULT: -7.463202965      0.000      0.000
REMARK  9 active torsions:
REMARK  status: ('A' for Active; 'I' for Inactive)
REMARK    1  A    between atoms: C4_4  and  S1_5 
REMARK    2  A    between atoms: S1_5  and  C5_6 
REMARK    3  A    between atoms: C5_6  and  C6_7 
REMARK    4  A    between atoms: N1_9  and  C8_10 
REMARK    5  A    between atoms: C8_10  and  C9_11 
REMARK    6  A    between atoms: C9_11  and  C10_12 
REMARK    7  A    between atoms: C10_12  and  N2_13 
REMARK    8  A    between atoms: C13_19  and  C14_20 
REMARK    9  A    between atoms: C17_23  and  N5_24 
ROOT
HETATM    1  C1  UNL     1      29.105  31.908  14.306  1.00  0.00     0.056 C 
HETATM    2  C2  UNL     1      29.705  31.594  15.657  1.00  0.00    -0.019 A 
HETATM    3  C3  UNL     1      29.065  31.493  16.860  1.00  0.00     0.034 A 
HETATM    4  C4  UNL     1      29.808  31.198  17.941  1.00  0.00     0.021 A 
HETATM    5  C13 UNL     1      31.141  31.022  17.764  1.00  0.00     0.049 A 
HETATM    6  S2  UNL     1      31.325  31.276  16.057  1.00  0.00    -0.092 SA
ENDROOT
BRANCH   5   7
HETATM    7  C14 UNL     1      32.231  30.697  18.707  1.00  0.00     0.053 A 
HETATM    8  C15 UNL     1      33.568  30.855  18.561  1.00  0.00     0.050 A 
HETATM    9  C16 UNL     1      34.235  30.408  19.714  1.00  0.00     0.054 A 
HETATM   10  C17 UNL     1      35.559  30.347  20.072  1.00  0.00     0.113 A 
HETATM   11  C19 UNL     1      33.221  29.979  20.545  1.00  0.00     0.120 A 
HETATM   12  N6  UNL     1      35.901  29.857  21.268  1.00  0.00    -0.338 N 
HETATM   13  C18 UNL     1      34.911  29.435  22.086  1.00  0.00     0.183 A 
ATOM     14  H6  UNL     1      36.880  29.802  21.554  1.00  0.00     0.168 HD
HETATM   15  N7  UNL     1      33.610  29.488  21.750  1.00  0.00    -0.338 N 
ATOM     16  H7  UNL     1      32.906  29.155  22.408  1.00  0.00     0.168 HD
HETATM   17  N8  UNL     1      32.048  30.157  19.939  1.00  0.00    -0.341 N 
ATOM     18  H8  UNL     1      31.141  29.920  20.344  1.00  0.00     0.167 HD
BRANCH  10  19
HETATM   19  N5  UNL     1      36.453  30.756  19.263  1.00  0.00    -0.385 N 
ATOM     20  H52 UNL     1      36.323  31.627  18.747  1.00  0.00     0.157 HD
ATOM     21  H51 UNL     1      37.305  30.211  19.130  1.00  0.00     0.157 HD
ENDBRANCH  10  19
ENDBRANCH   5   7
BRANCH   4  22
HETATM   22  S1  UNL     1      29.020  31.047  19.588  1.00  0.00    -0.122 SA
BRANCH  22  23
HETATM   23  C5  UNL     1      27.226  31.241  19.402  1.00  0.00     0.139 C 
BRANCH  23  24
HETATM   24  C6  UNL     1      26.502  30.031  19.876  1.00  0.00     0.050 A 
HETATM   25  C7  UNL     1      25.632  29.889  20.923  1.00  0.00     0.134 A 
HETATM   26  N1  UNL     1      25.217  28.610  20.986  1.00  0.00    -0.285 N 
HETATM   27  N3  UNL     1      25.829  27.973  19.985  1.00  0.00    -0.021 NA
HETATM   28  N4  UNL     1      26.603  28.816  19.312  1.00  0.00    -0.286 N 
ATOM     29  H4  UNL     1      27.178  28.581  18.503  1.00  0.00     0.184 HD
BRANCH  26  30
HETATM   30  C8  UNL     1      24.315  28.000  21.914  1.00  0.00     0.147 C 
BRANCH  30  31
HETATM   31  C9  UNL     1      22.933  28.609  21.841  1.00  0.00     0.052 C 
BRANCH  31  32
HETATM   32  C10 UNL     1      22.746  29.599  22.973  1.00  0.00     0.273 C 
BRANCH  32  33
HETATM   33  N2  UNL     1      21.676  29.210  23.879  1.00  0.00     0.080 N 
HETATM   34  C11 UNL     1      20.404  29.230  23.132  1.00  0.00     0.309 C 
HETATM   35  C12 UNL     1      21.645  30.214  24.931  1.00  0.00     0.309 C 
ENDBRANCH  32  33
ENDBRANCH  31  32
ENDBRANCH  30  31
ENDBRANCH  26  30
ENDBRANCH  23  24
ENDBRANCH  22  23
ENDBRANCH   4  22
TORSDOF 9
ENDMDL
MODEL 2
REMARK VINA RESULT: -7.355789171      1.249      1.494
REMARK  9 active torsions:
REMARK  status: ('A' for Active; 'I' for Inactive)
REMARK    1  A    between atoms: C4_4  and  S1_5 
REMARK    2  A    between atoms: S1_5  and  C5_6 
REMARK    3  A    between atoms: C5_6  and  C6_7 
REMARK    4  A    between atoms: N1_9  and  C8_10 
REMARK    5  A    between atoms: C8_10  and  C9_11 
REMARK    6  A    between atoms: C9_11  and  C10_12 
REMARK    7  A    between atoms: C10_12  and  N2_13 
REMARK    8  A    between atoms: C13_19  and  C14_20 
REMARK    9  A    between atoms: C17_23  and  N5_24 
ROOT
HETATM    1  C1  UNL     1      30.251  33.854  13.791  1.00  0.00     0.056 C 
HETATM    2  C2  UNL     1      30.614  33.039  15.010  1.00  0.00    -0.019 A 
HETATM    3  C3  UNL     1      29.798  32.241  15.763  1.00  0.00     0.034 A 
HETATM    4  C4  UNL     1      30.344  31.602  16.813  1.00  0.00     0.021 A 
HETATM    5  C13 UNL     1      31.665  31.793  17.053  1.00  0.00     0.049 A 
HETATM    6  S2  UNL     1      32.120  32.881  15.779  1.00  0.00    -0.092 SA
ENDROOT
BRANCH   5   7
HETATM    7  C14 UNL     1      32.570  31.263  18.093  1.00  0.00     0.053 A 
HETATM    8  C15 UNL     1      33.924  31.268  18.138  1.00  0.00     0.050 A 
HETATM    9  C16 UNL     1      34.369  30.651  19.320  1.00  0.00     0.054 A 
HETATM   10  C17 UNL     1      35.614  30.401  19.839  1.00  0.00     0.113 A 
HETATM   11  C19 UNL     1      33.207  30.282  19.966  1.00  0.00     0.120 A 
HETATM   12  N6  UNL     1      35.730  29.777  21.016  1.00  0.00    -0.338 N 
HETATM   13  C18 UNL     1      34.594  29.413  21.653  1.00  0.00     0.183 A 
ATOM     14  H6  UNL     1      36.646  29.581  21.421  1.00  0.00     0.168 HD
HETATM   15  N7  UNL     1      33.367  29.651  21.157  1.00  0.00    -0.338 N 
ATOM     16  H7  UNL     1      32.545  29.353  21.682  1.00  0.00     0.168 HD
HETATM   17  N8  UNL     1      32.157  30.649  19.232  1.00  0.00    -0.341 N 
ATOM     18  H8  UNL     1      31.183  30.492  19.490  1.00  0.00     0.167 HD
BRANCH  10  19
HETATM   19  N5  UNL     1      36.653  30.763  19.197  1.00  0.00    -0.385 N 
ATOM     20  H52 UNL     1      36.565  31.225  18.292  1.00  0.00     0.157 HD
ATOM     21  H51 UNL     1      37.578  30.592  19.591  1.00  0.00     0.157 HD
ENDBRANCH  10  19
ENDBRANCH   5   7
BRANCH   4  22
HETATM   22  S1  UNL     1      29.314  30.516  17.868  1.00  0.00    -0.122 SA
BRANCH  22  23
HETATM   23  C5  UNL     1      28.278  31.549  18.941  1.00  0.00     0.139 C 
BRANCH  23  24
HETATM   24  C6  UNL     1      27.345  30.719  19.749  1.00  0.00     0.050 A 
HETATM   25  C7  UNL     1      26.532  29.690  19.360  1.00  0.00     0.134 A 
HETATM   26  N1  UNL     1      25.856  29.229  20.430  1.00  0.00    -0.285 N 
HETATM   27  N3  UNL     1      26.252  29.971  21.466  1.00  0.00    -0.021 NA
HETATM   28  N4  UNL     1      27.147  30.869  21.069  1.00  0.00    -0.286 N 
ATOM     29  H4  UNL     1      27.606  31.556  21.667  1.00  0.00     0.184 HD
BRANCH  26  30
HETATM   30  C8  UNL     1      24.895  28.172  20.500  1.00  0.00     0.147 C 
BRANCH  30  31
HETATM   31  C9  UNL     1      24.348  27.999  21.899  1.00  0.00     0.052 C 
BRANCH  31  32
HETATM   32  C10 UNL     1      22.980  28.643  22.001  1.00  0.00     0.273 C 
BRANCH  32  33
HETATM   33  N2  UNL     1      22.910  29.631  23.068  1.00  0.00     0.080 N 
HETATM   34  C11 UNL     1      21.646  29.434  23.802  1.00  0.00     0.309 C 
HETATM   35  C12 UNL     1      22.907  30.933  22.421  1.00  0.00     0.309 C 
ENDBRANCH  32  33
ENDBRANCH  31  32
ENDBRANCH  30  31
ENDBRANCH  26  30
ENDBRANCH  23  24
ENDBRANCH  22  23
ENDBRANCH   4  22
TORSDOF 9
ENDMDL
MODEL 3
REMARK VINA RESULT: -7.319395913      1.450      1.742
REMARK  9 active torsions:
REMARK  status: ('A' for Active; 'I' for Inactive)
REMARK    1  A    between atoms: C4_4  and  S1_5 
REMARK    2  A    between atoms: S1_5  and  C5_6 
REMARK    3  A    between atoms: C5_6  and  C6_7 
REMARK    4  A    between atoms: N1_9  and  C8_10 
REMARK    5  A    between atoms: C8_10  and  C9_11 
REMARK    6  A    between atoms: C9_11  and  C10_12 
REMARK    7  A    between atoms: C10_12  and  N2_13 
REMARK    8  A    between atoms: C13_19  and  C14_20 
REMARK    9  A    between atoms: C17_23  and  N5_24 
ROOT
HETATM    1  C1  UNL     1      30.811  33.772  13.357  1.00  0.00     0.056 C 
HETATM    2  C2  UNL     1      31.036  33.171  14.725  1.00  0.00    -0.019 A 
HETATM    3  C3  UNL     1      30.132  33.019  15.738  1.00  0.00     0.034 A 
HETATM    4  C4  UNL     1      30.559  32.450  16.878  1.00  0.00     0.021 A 
HETATM    5  C13 UNL     1      31.858  32.064  16.946  1.00  0.00     0.049 A 
HETATM    6  S2  UNL     1      32.459  32.516  15.382  1.00  0.00    -0.092 SA
ENDROOT
BRANCH   5   7
HETATM    7  C14 UNL     1      32.646  31.423  18.017  1.00  0.00     0.053 A 
HETATM    8  C15 UNL     1      33.990  31.367  18.178  1.00  0.00     0.050 A 
HETATM    9  C16 UNL     1      34.306  30.648  19.344  1.00  0.00     0.054 A 
HETATM   10  C17 UNL     1      35.490  30.308  19.948  1.00  0.00     0.113 A 
HETATM   11  C19 UNL     1      33.079  30.284  19.859  1.00  0.00     0.120 A 
HETATM   12  N6  UNL     1      35.478  29.597  21.080  1.00  0.00    -0.338 N 
HETATM   13  C18 UNL     1      34.278  29.239  21.589  1.00  0.00     0.183 A 
ATOM     14  H6  UNL     1      36.347  29.334  21.546  1.00  0.00     0.168 HD
HETATM   15  N7  UNL     1      33.109  29.564  21.009  1.00  0.00    -0.338 N 
ATOM     16  H7  UNL     1      32.234  29.265  21.439  1.00  0.00     0.168 HD
HETATM   17  N8  UNL     1      32.112  30.748  19.068  1.00  0.00    -0.341 N 
ATOM     18  H8  UNL     1      31.114  30.616  19.229  1.00  0.00     0.167 HD
BRANCH  10  19
HETATM   19  N5  UNL     1      36.594  30.670  19.426  1.00  0.00    -0.385 N 
ATOM     20  H52 UNL     1      36.691  30.731  18.413  1.00  0.00     0.157 HD
ATOM     21  H51 UNL     1      37.387  30.902  20.025  1.00  0.00     0.157 HD
ENDBRANCH  10  19
ENDBRANCH   5   7
BRANCH   4  22
HETATM   22  S1  UNL     1      29.404  32.214  18.280  1.00  0.00    -0.122 SA
BRANCH  22  23
HETATM   23  C5  UNL     1      28.556  30.622  18.083  1.00  0.00     0.139 C 
BRANCH  23  24
HETATM   24  C6  UNL     1      27.593  30.384  19.191  1.00  0.00     0.050 A 
HETATM   25  C7  UNL     1      27.243  31.199  20.234  1.00  0.00     0.134 A 
HETATM   26  N1  UNL     1      26.332  30.571  21.001  1.00  0.00    -0.285 N 
HETATM   27  N3  UNL     1      26.126  29.381  20.433  1.00  0.00    -0.021 NA
HETATM   28  N4  UNL     1      26.878  29.258  19.345  1.00  0.00    -0.286 N 
ATOM     29  H4  UNL     1      26.907  28.445  18.731  1.00  0.00     0.184 HD
BRANCH  26  30
HETATM   30  C8  UNL     1      25.688  31.031  22.194  1.00  0.00     0.147 C 
BRANCH  30  31
HETATM   31  C9  UNL     1      24.241  31.392  21.950  1.00  0.00     0.052 C 
BRANCH  31  32
HETATM   32  C10 UNL     1      23.339  30.308  22.504  1.00  0.00     0.273 C 
BRANCH  32  33
HETATM   33  N2  UNL     1      22.403  30.817  23.495  1.00  0.00     0.080 N 
HETATM   34  C11 UNL     1      21.974  29.696  24.351  1.00  0.00     0.309 C 
HETATM   35  C12 UNL     1      21.263  31.336  22.754  1.00  0.00     0.309 C 
ENDBRANCH  32  33
ENDBRANCH  31  32
ENDBRANCH  30  31
ENDBRANCH  26  30
ENDBRANCH  23  24
ENDBRANCH  22  23
ENDBRANCH   4  22
TORSDOF 9
ENDMDL
MODEL 4
REMARK VINA RESULT: -7.315776738      1.262      1.504
REMARK  9 active torsions:
REMARK  status: ('A' for Active; 'I' for Inactive)
REMARK    1  A    between atoms: C4_4  and  S1_5 
REMARK    2  A    between atoms: S1_5  and  C5_6 
REMARK    3  A    between atoms: C5_6  and  C6_7 
REMARK    4  A    between atoms: N1_9  and  C8_10 
REMARK    5  A    between atoms: C8_10  and  C9_11 
REMARK    6  A    between atoms: C9_11  and  C10_12 
REMARK    7  A    between atoms: C10_12  and  N2_13 
REMARK    8  A    between atoms: C13_19  and  C14_20 
REMARK    9  A    between atoms: C17_23  and  N5_24 
ROOT
HETATM    1  C1  UNL     1      30.203  33.240  14.296  1.00  0.00     0.056 C 
HETATM    2  C2  UNL     1      30.618  32.619  15.609  1.00  0.00    -0.019 A 
HETATM    3  C3  UNL     1      29.817  32.211  16.639  1.00  0.00     0.034 A 
HETATM    4  C4  UNL     1      30.411  31.679  17.721  1.00  0.00     0.021 A 
HETATM    5  C13 UNL     1      31.764  31.584  17.718  1.00  0.00     0.049 A 
HETATM    6  S2  UNL     1      32.178  32.252  16.170  1.00  0.00    -0.092 SA
ENDROOT
BRANCH   5   7
HETATM    7  C14 UNL     1      32.723  31.065  18.714  1.00  0.00     0.053 A 
HETATM    8  C15 UNL     1      34.074  31.159  18.736  1.00  0.00     0.050 A 
HETATM    9  C16 UNL     1      34.584  30.515  19.877  1.00  0.00     0.054 A 
HETATM   10  C17 UNL     1      35.853  30.324  20.361  1.00  0.00     0.113 A 
HETATM   11  C19 UNL     1      33.463  30.037  20.523  1.00  0.00     0.120 A 
HETATM   12  N6  UNL     1      36.034  29.652  21.502  1.00  0.00    -0.338 N 
HETATM   13  C18 UNL     1      34.939  29.181  22.139  1.00  0.00     0.183 A 
ATOM     14  H6  UNL     1      36.970  29.498  21.880  1.00  0.00     0.168 HD
HETATM   15  N7  UNL     1      33.689  29.360  21.678  1.00  0.00    -0.338 N 
ATOM     16  H7  UNL     1      32.900  28.981  22.201  1.00  0.00     0.168 HD
HETATM   17  N8  UNL     1      32.376  30.369  19.827  1.00  0.00    -0.341 N 
ATOM     18  H8  UNL     1      31.420  30.134  20.094  1.00  0.00     0.167 HD
BRANCH  10  19
HETATM   19  N5  UNL     1      36.852  30.787  19.721  1.00  0.00    -0.385 N 
ATOM     20  H52 UNL     1      36.744  31.599  19.112  1.00  0.00     0.157 HD
ATOM     21  H51 UNL     1      37.766  30.345  19.816  1.00  0.00     0.157 HD
ENDBRANCH  10  19
ENDBRANCH   5   7
BRANCH   4  22
HETATM   22  S1  UNL     1      29.403  31.110  19.140  1.00  0.00    -0.122 SA
BRANCH  22  23
HETATM   23  C5  UNL     1      27.654  31.437  18.788  1.00  0.00     0.139 C 
BRANCH  23  24
HETATM   24  C6  UNL     1      26.804  31.159  19.977  1.00  0.00     0.050 A 
HETATM   25  C7  UNL     1      25.835  30.209  20.154  1.00  0.00     0.134 A 
HETATM   26  N1  UNL     1      25.321  30.324  21.393  1.00  0.00    -0.285 N 
HETATM   27  N3  UNL     1      25.970  31.337  21.970  1.00  0.00    -0.021 NA
HETATM   28  N4  UNL     1      26.863  31.846  21.129  1.00  0.00    -0.286 N 
ATOM     29  H4  UNL     1      27.488  32.627  21.325  1.00  0.00     0.184 HD
BRANCH  26  30
HETATM   30  C8  UNL     1      24.288  29.554  22.015  1.00  0.00     0.147 C 
BRANCH  30  31
HETATM   31  C9  UNL     1      23.290  30.429  22.740  1.00  0.00     0.052 C 
BRANCH  31  32
HETATM   32  C10 UNL     1      22.339  29.567  23.546  1.00  0.00     0.273 C 
BRANCH  32  33
HETATM   33  N2  UNL     1      21.070  29.358  22.867  1.00  0.00     0.080 N 
HETATM   34  C11 UNL     1      19.981  29.735  23.788  1.00  0.00     0.309 C 
HETATM   35  C12 UNL     1      20.994  27.936  22.570  1.00  0.00     0.309 C 
ENDBRANCH  32  33
ENDBRANCH  31  32
ENDBRANCH  30  31
ENDBRANCH  26  30
ENDBRANCH  23  24
ENDBRANCH  22  23
ENDBRANCH   4  22
TORSDOF 9
ENDMDL
MODEL 5
REMARK VINA RESULT: -6.992492006      3.190      5.006
REMARK  9 active torsions:
REMARK  status: ('A' for Active; 'I' for Inactive)
REMARK    1  A    between atoms: C4_4  and  S1_5 
REMARK    2  A    between atoms: S1_5  and  C5_6 
REMARK    3  A    between atoms: C5_6  and  C6_7 
REMARK    4  A    between atoms: N1_9  and  C8_10 
REMARK    5  A    between atoms: C8_10  and  C9_11 
REMARK    6  A    between atoms: C9_11  and  C10_12 
REMARK    7  A    between atoms: C10_12  and  N2_13 
REMARK    8  A    between atoms: C13_19  and  C14_20 
REMARK    9  A    between atoms: C17_23  and  N5_24 
ROOT
HETATM    1  C1  UNL     1      33.213  29.579  21.198  1.00  0.00     0.056 C 
HETATM    2  C2  UNL     1      32.466  30.328  20.120  1.00  0.00    -0.019 A 
HETATM    3  C3  UNL     1      31.135  30.260  19.815  1.00  0.00     0.034 A 
HETATM    4  C4  UNL     1      30.685  31.027  18.806  1.00  0.00     0.021 A 
HETATM    5  C13 UNL     1      31.580  31.814  18.160  1.00  0.00     0.049 A 
HETATM    6  S2  UNL     1      33.058  31.457  18.997  1.00  0.00    -0.092 SA
ENDROOT
BRANCH   5   7
HETATM    7  C14 UNL     1      31.437  32.759  17.034  1.00  0.00     0.053 A 
HETATM    8  C15 UNL     1      32.064  32.765  15.833  1.00  0.00     0.050 A 
HETATM    9  C16 UNL     1      31.623  33.856  15.065  1.00  0.00     0.054 A 
HETATM   10  C17 UNL     1      31.935  34.309  13.807  1.00  0.00     0.113 A 
HETATM   11  C19 UNL     1      30.706  34.491  15.876  1.00  0.00     0.120 A 
HETATM   12  N6  UNL     1      31.338  35.406  13.330  1.00  0.00    -0.338 N 
HETATM   13  C18 UNL     1      30.439  36.032  14.122  1.00  0.00     0.183 A 
ATOM     14  H6  UNL     1      31.555  35.760  12.398  1.00  0.00     0.168 HD
HETATM   15  N7  UNL     1      30.124  35.601  15.356  1.00  0.00    -0.338 N 
ATOM     16  H7  UNL     1      29.438  36.115  15.908  1.00  0.00     0.168 HD
HETATM   17  N8  UNL     1      30.607  33.834  17.031  1.00  0.00    -0.341 N 
ATOM     18  H8  UNL     1      29.995  34.100  17.803  1.00  0.00     0.167 HD
BRANCH  10  19
HETATM   19  N5  UNL     1      32.790  33.682  13.103  1.00  0.00    -0.385 N 
ATOM     20  H52 UNL     1      33.057  32.727  13.343  1.00  0.00     0.157 HD
ATOM     21  H51 UNL     1      33.211  34.136  12.292  1.00  0.00     0.157 HD
ENDBRANCH  10  19
ENDBRANCH   5   7
BRANCH   4  22
HETATM   22  S1  UNL     1      28.914  30.988  18.340  1.00  0.00    -0.122 SA
BRANCH  22  23
HETATM   23  C5  UNL     1      27.913  31.392  19.797  1.00  0.00     0.139 C 
BRANCH  23  24
HETATM   24  C6  UNL     1      26.935  30.311  20.095  1.00  0.00     0.050 A 
HETATM   25  C7  UNL     1      25.990  30.237  21.082  1.00  0.00     0.134 A 
HETATM   26  N1  UNL     1      25.327  29.069  20.975  1.00  0.00    -0.285 N 
HETATM   27  N3  UNL     1      25.863  28.433  19.931  1.00  0.00    -0.021 NA
HETATM   28  N4  UNL     1      26.829  29.170  19.395  1.00  0.00    -0.286 N 
ATOM     29  H4  UNL     1      27.396  28.912  18.587  1.00  0.00     0.184 HD
BRANCH  26  30
HETATM   30  C8  UNL     1      24.265  28.559  21.787  1.00  0.00     0.147 C 
BRANCH  30  31
HETATM   31  C9  UNL     1      23.009  29.391  21.663  1.00  0.00     0.052 C 
BRANCH  31  32
HETATM   32  C10 UNL     1      22.765  30.152  22.950  1.00  0.00     0.273 C 
BRANCH  32  33
HETATM   33  N2  UNL     1      22.002  29.376  23.917  1.00  0.00     0.080 N 
HETATM   34  C11 UNL     1      20.779  28.885  23.257  1.00  0.00     0.309 C 
HETATM   35  C12 UNL     1      21.650  30.292  24.990  1.00  0.00     0.309 C 
ENDBRANCH  32  33
ENDBRANCH  31  32
ENDBRANCH  30  31
ENDBRANCH  26  30
ENDBRANCH  23  24
ENDBRANCH  22  23
ENDBRANCH   4  22
TORSDOF 9
ENDMDL
