MODEL 1
REMARK VINA RESULT: -6.917088555      0.000      0.000
REMARK  11 active torsions:
REMARK  status: ('A' for Active; 'I' for Inactive)
REMARK    1  A    between atoms: C3_3  and  O1_5 
REMARK    2  A    between atoms: C3_3  and  C5_7 
REMARK    3  A    between atoms: C5_7  and  S1_8 
REMARK    4  A    between atoms: S1_8  and  C6_9 
REMARK    5  A    between atoms: N3_15  and  C8_16 
REMARK    6  A    between atoms: C9_18  and  C10_19 
REMARK    7  A    between atoms: C10_19  and  O2_20 
REMARK    8  A    between atoms: C10_19  and  N4_22 
REMARK    9  A    between atoms: N4_22  and  C11_24 
REMARK   10  A    between atoms: C11_24  and  C12_25 
REMARK   11  A    between atoms: C12_25  and  C13_26 
ROOT
HETATM    1  C1  UNL     1      32.496  25.717  14.723  1.00  0.00     0.015 C 
HETATM    2  C2  UNL     1      31.591  26.498  14.891  1.00  0.00    -0.079 C 
HETATM    3  C3  UNL     1      30.480  27.458  15.072  1.00  0.00     0.125 C 
HETATM    4  C4  UNL     1      29.548  26.934  16.111  1.00  0.00     0.061 C 
ENDROOT
BRANCH   3   5
HETATM    5  O1  UNL     1      29.722  27.442  13.855  1.00  0.00    -0.377 OA
ATOM      6  H1  UNL     1      29.207  28.240  13.845  1.00  0.00     0.211 HD
ENDBRANCH   3   5
BRANCH   3   7
HETATM    7  C5  UNL     1      30.977  28.847  15.220  1.00  0.00     0.133 C 
BRANCH   7   8
HETATM    8  S1  UNL     1      30.332  29.803  16.580  1.00  0.00    -0.088 SA
BRANCH   8   9
HETATM    9  C6  UNL     1      30.342  31.543  16.290  1.00  0.00     0.167 A 
HETATM   10  N1  UNL     1      29.408  32.403  15.852  1.00  0.00    -0.279 N 
HETATM   11  N2  UNL     1      29.892  33.637  15.796  1.00  0.00    -0.294 N 
ATOM     12  H1  UNL     1      28.456  32.142  15.596  1.00  0.00     0.189 HD
HETATM   13  C7  UNL     1      31.176  33.591  16.207  1.00  0.00     0.208 A 
ATOM     14  H2  UNL     1      29.385  34.470  15.498  1.00  0.00     0.187 HD
HETATM   15  N3  UNL     1      31.443  32.315  16.505  1.00  0.00    -0.279 N 
BRANCH  15  16
HETATM   16  C8  UNL     1      32.705  31.799  16.990  1.00  0.00     0.091 A 
HETATM   17  S2  UNL     1      33.206  31.509  18.587  1.00  0.00    -0.067 SA
HETATM   18  C9  UNL     1      34.814  30.904  18.277  1.00  0.00     0.064 A 
HETATM   19  C15 UNL     1      34.878  30.961  16.933  1.00  0.00    -0.028 A 
HETATM   20  C16 UNL     1      33.791  31.423  16.267  1.00  0.00    -0.016 A 
HETATM   21  C20 UNL     1      36.008  30.573  15.993  1.00  0.00     0.041 C 
HETATM   22  C17 UNL     1      33.900  31.476  14.755  1.00  0.00     0.042 C 
HETATM   23  C18 UNL     1      34.311  30.113  14.215  1.00  0.00     0.005 C 
HETATM   24  C19 UNL     1      35.509  29.578  14.957  1.00  0.00     0.005 C 
BRANCH  18  25
HETATM   25  C10 UNL     1      35.719  30.487  19.336  1.00  0.00     0.153 C 
BRANCH  25  26
HETATM   26  O2  UNL     1      36.860  31.138  19.397  1.00  0.00    -0.345 OA
ATOM     27  H2  UNL     1      36.938  31.761  20.110  1.00  0.00     0.219 HD
ENDBRANCH  25  26
BRANCH  25  28
HETATM   28  N4  UNL     1      35.588  29.508  20.306  1.00  0.00    -0.370 N 
ATOM     29  H4  UNL     1      36.037  28.604  20.160  1.00  0.00     0.161 HD
BRANCH  28  30
HETATM   30  C11 UNL     1      34.834  29.729  21.518  1.00  0.00     0.121 C 
BRANCH  30  31
HETATM   31  C12 UNL     1      33.897  28.622  21.838  1.00  0.00     0.019 C 
BRANCH  31  32
HETATM   32  C13 UNL     1      34.458  27.259  21.457  1.00  0.00    -0.003 C 
HETATM   33  C14 UNL     1      35.506  26.783  22.434  1.00  0.00     0.005 C 
ENDBRANCH  31  32
ENDBRANCH  30  31
ENDBRANCH  28  30
ENDBRANCH  25  28
ENDBRANCH  18  25
ENDBRANCH  15  16
ENDBRANCH   8   9
ENDBRANCH   7   8
ENDBRANCH   3   7
TORSDOF 11
ENDMDL
MODEL 2
REMARK VINA RESULT: -6.905833568      2.945      5.139
REMARK  11 active torsions:
REMARK  status: ('A' for Active; 'I' for Inactive)
REMARK    1  A    between atoms: C3_3  and  O1_5 
REMARK    2  A    between atoms: C3_3  and  C5_7 
REMARK    3  A    between atoms: C5_7  and  S1_8 
REMARK    4  A    between atoms: S1_8  and  C6_9 
REMARK    5  A    between atoms: N3_15  and  C8_16 
REMARK    6  A    between atoms: C9_18  and  C10_19 
REMARK    7  A    between atoms: C10_19  and  O2_20 
REMARK    8  A    between atoms: C10_19  and  N4_22 
REMARK    9  A    between atoms: N4_22  and  C11_24 
REMARK   10  A    between atoms: C11_24  and  C12_25 
REMARK   11  A    between atoms: C12_25  and  C13_26 
ROOT
HETATM    1  C1  UNL     1      32.791  37.355  14.648  1.00  0.00     0.015 C 
HETATM    2  C2  UNL     1      31.932  36.506  14.652  1.00  0.00    -0.079 C 
HETATM    3  C3  UNL     1      30.874  35.472  14.680  1.00  0.00     0.125 C 
HETATM    4  C4  UNL     1      30.212  35.418  13.345  1.00  0.00     0.061 C 
ENDROOT
BRANCH   3   5
HETATM    5  O1  UNL     1      29.861  35.948  15.575  1.00  0.00    -0.377 OA
ATOM      6  H1  UNL     1      29.803  35.316  16.281  1.00  0.00     0.211 HD
ENDBRANCH   3   5
BRANCH   3   7
HETATM    7  C5  UNL     1      31.366  34.202  15.265  1.00  0.00     0.133 C 
BRANCH   7   8
HETATM    8  S1  UNL     1      32.845  33.497  14.558  1.00  0.00    -0.088 SA
BRANCH   8   9
HETATM    9  C6  UNL     1      32.613  31.876  13.903  1.00  0.00     0.167 A 
HETATM   10  N1  UNL     1      32.208  31.423  12.705  1.00  0.00    -0.279 N 
HETATM   11  N2  UNL     1      32.192  30.096  12.684  1.00  0.00    -0.294 N 
ATOM     12  H1  UNL     1      31.948  32.018  11.919  1.00  0.00     0.189 HD
HETATM   13  C7  UNL     1      32.595  29.663  13.896  1.00  0.00     0.208 A 
ATOM     14  H2  UNL     1      31.924  29.510  11.893  1.00  0.00     0.187 HD
HETATM   15  N3  UNL     1      32.848  30.751  14.632  1.00  0.00    -0.279 N 
BRANCH  15  16
HETATM   16  C8  UNL     1      33.310  30.763  16.003  1.00  0.00     0.091 A 
HETATM   17  S2  UNL     1      34.900  30.750  16.603  1.00  0.00    -0.067 SA
HETATM   18  C9  UNL     1      34.559  30.781  18.316  1.00  0.00     0.064 A 
HETATM   19  C15 UNL     1      33.212  30.800  18.331  1.00  0.00    -0.028 A 
HETATM   20  C16 UNL     1      32.566  30.790  17.139  1.00  0.00    -0.016 A 
HETATM   21  C20 UNL     1      32.251  30.838  19.508  1.00  0.00     0.041 C 
HETATM   22  C17 UNL     1      31.050  30.808  17.195  1.00  0.00     0.042 C 
HETATM   23  C18 UNL     1      30.575  31.979  18.044  1.00  0.00     0.005 C 
HETATM   24  C19 UNL     1      31.297  32.013  19.367  1.00  0.00     0.005 C 
BRANCH  18  25
HETATM   25  C10 UNL     1      35.602  30.785  19.329  1.00  0.00     0.153 C 
BRANCH  25  26
HETATM   26  O2  UNL     1      36.835  30.741  18.874  1.00  0.00    -0.345 OA
ATOM     27  H2  UNL     1      37.454  31.313  19.312  1.00  0.00     0.219 HD
ENDBRANCH  25  26
BRANCH  25  28
HETATM   28  N4  UNL     1      35.523  30.826  20.710  1.00  0.00    -0.370 N 
ATOM     29  H4  UNL     1      35.025  31.598  21.154  1.00  0.00     0.161 HD
BRANCH  28  30
HETATM   30  C11 UNL     1      36.124  29.808  21.541  1.00  0.00     0.121 C 
BRANCH  30  31
HETATM   31  C12 UNL     1      35.140  29.082  22.385  1.00  0.00     0.019 C 
BRANCH  31  32
HETATM   32  C13 UNL     1      34.128  28.304  21.557  1.00  0.00    -0.003 C 
HETATM   33  C14 UNL     1      34.369  26.815  21.617  1.00  0.00     0.005 C 
ENDBRANCH  31  32
ENDBRANCH  30  31
ENDBRANCH  28  30
ENDBRANCH  25  28
ENDBRANCH  18  25
ENDBRANCH  15  16
ENDBRANCH   8   9
ENDBRANCH   7   8
ENDBRANCH   3   7
TORSDOF 11
ENDMDL
MODEL 3
REMARK VINA RESULT: -6.841989074      2.032      2.813
REMARK  11 active torsions:
REMARK  status: ('A' for Active; 'I' for Inactive)
REMARK    1  A    between atoms: C3_3  and  O1_5 
REMARK    2  A    between atoms: C3_3  and  C5_7 
REMARK    3  A    between atoms: C5_7  and  S1_8 
REMARK    4  A    between atoms: S1_8  and  C6_9 
REMARK    5  A    between atoms: N3_15  and  C8_16 
REMARK    6  A    between atoms: C9_18  and  C10_19 
REMARK    7  A    between atoms: C10_19  and  O2_20 
REMARK    8  A    between atoms: C10_19  and  N4_22 
REMARK    9  A    between atoms: N4_22  and  C11_24 
REMARK   10  A    between atoms: C11_24  and  C12_25 
REMARK   11  A    between atoms: C12_25  and  C13_26 
ROOT
HETATM    1  C1  UNL     1      28.022  31.375  19.717  1.00  0.00     0.015 C 
HETATM    2  C2  UNL     1      27.730  30.548  18.887  1.00  0.00    -0.079 C 
HETATM    3  C3  UNL     1      27.382  29.517  17.884  1.00  0.00     0.125 C 
HETATM    4  C4  UNL     1      26.048  29.839  17.300  1.00  0.00     0.061 C 
ENDROOT
BRANCH   3   5
HETATM    5  O1  UNL     1      27.183  28.295  18.606  1.00  0.00    -0.377 OA
ATOM      6  H1  UNL     1      27.000  27.624  17.959  1.00  0.00     0.211 HD
ENDBRANCH   3   5
BRANCH   3   7
HETATM    7  C5  UNL     1      28.506  29.259  16.953  1.00  0.00     0.133 C 
BRANCH   7   8
HETATM    8  S1  UNL     1      30.068  30.033  17.326  1.00  0.00    -0.088 SA
BRANCH   8   9
HETATM    9  C6  UNL     1      30.222  31.666  16.676  1.00  0.00     0.167 A 
HETATM   10  N1  UNL     1      29.353  32.500  16.082  1.00  0.00    -0.279 N 
HETATM   11  N2  UNL     1      29.942  33.645  15.761  1.00  0.00    -0.294 N 
ATOM     12  H1  UNL     1      28.373  32.283  15.902  1.00  0.00     0.189 HD
HETATM   13  C7  UNL     1      31.231  33.564  16.150  1.00  0.00     0.208 A 
ATOM     14  H2  UNL     1      29.500  34.441  15.302  1.00  0.00     0.187 HD
HETATM   15  N3  UNL     1      31.394  32.359  16.705  1.00  0.00    -0.279 N 
BRANCH  15  16
HETATM   16  C8  UNL     1      32.622  31.838  17.267  1.00  0.00     0.091 A 
HETATM   17  S2  UNL     1      33.061  31.642  18.897  1.00  0.00    -0.067 SA
HETATM   18  C9  UNL     1      34.658  30.968  18.683  1.00  0.00     0.064 A 
HETATM   19  C15 UNL     1      34.766  30.931  17.341  1.00  0.00    -0.028 A 
HETATM   20  C16 UNL     1      33.718  31.379  16.609  1.00  0.00    -0.016 A 
HETATM   21  C20 UNL     1      35.913  30.444  16.469  1.00  0.00     0.041 C 
HETATM   22  C17 UNL     1      33.877  31.326  15.101  1.00  0.00     0.042 C 
HETATM   23  C18 UNL     1      34.259  29.917  14.668  1.00  0.00     0.005 C 
HETATM   24  C19 UNL     1      35.414  29.397  15.486  1.00  0.00     0.005 C 
BRANCH  18  25
HETATM   25  C10 UNL     1      35.514  30.596  19.798  1.00  0.00     0.153 C 
BRANCH  25  26
HETATM   26  O2  UNL     1      36.806  30.645  19.562  1.00  0.00    -0.345 OA
ATOM     27  H2  UNL     1      37.366  30.536  20.322  1.00  0.00     0.219 HD
ENDBRANCH  25  26
BRANCH  25  28
HETATM   28  N4  UNL     1      35.201  30.192  21.085  1.00  0.00    -0.370 N 
ATOM     29  H4  UNL     1      34.258  30.353  21.438  1.00  0.00     0.161 HD
BRANCH  28  30
HETATM   30  C11 UNL     1      36.171  29.550  21.941  1.00  0.00     0.121 C 
BRANCH  30  31
HETATM   31  C12 UNL     1      35.570  28.564  22.875  1.00  0.00     0.019 C 
BRANCH  31  32
HETATM   32  C13 UNL     1      35.698  27.134  22.371  1.00  0.00    -0.003 C 
HETATM   33  C14 UNL     1      34.464  26.682  21.627  1.00  0.00     0.005 C 
ENDBRANCH  31  32
ENDBRANCH  30  31
ENDBRANCH  28  30
ENDBRANCH  25  28
ENDBRANCH  18  25
ENDBRANCH  15  16
ENDBRANCH   8   9
ENDBRANCH   7   8
ENDBRANCH   3   7
TORSDOF 11
ENDMDL
MODEL 4
REMARK VINA RESULT: -6.840272721      2.381      3.435
REMARK  11 active torsions:
REMARK  status: ('A' for Active; 'I' for Inactive)
REMARK    1  A    between atoms: C3_3  and  O1_5 
REMARK    2  A    between atoms: C3_3  and  C5_7 
REMARK    3  A    between atoms: C5_7  and  S1_8 
REMARK    4  A    between atoms: S1_8  and  C6_9 
REMARK    5  A    between atoms: N3_15  and  C8_16 
REMARK    6  A    between atoms: C9_18  and  C10_19 
REMARK    7  A    between atoms: C10_19  and  O2_20 
REMARK    8  A    between atoms: C10_19  and  N4_22 
REMARK    9  A    between atoms: N4_22  and  C11_24 
REMARK   10  A    between atoms: C11_24  and  C12_25 
REMARK   11  A    between atoms: C12_25  and  C13_26 
ROOT
HETATM    1  C1  UNL     1      26.845  31.760  21.697  1.00  0.00     0.015 C 
HETATM    2  C2  UNL     1      27.237  31.350  20.630  1.00  0.00    -0.079 C 
HETATM    3  C3  UNL     1      27.723  30.826  19.335  1.00  0.00     0.125 C 
HETATM    4  C4  UNL     1      26.833  31.322  18.246  1.00  0.00     0.061 C 
ENDROOT
BRANCH   3   5
HETATM    5  O1  UNL     1      27.514  29.408  19.363  1.00  0.00    -0.377 OA
ATOM      6  H1  UNL     1      28.185  29.046  19.930  1.00  0.00     0.211 HD
ENDBRANCH   3   5
BRANCH   3   7
HETATM    7  C5  UNL     1      29.184  31.017  19.181  1.00  0.00     0.133 C 
BRANCH   7   8
HETATM    8  S1  UNL     1      29.907  30.553  17.618  1.00  0.00    -0.088 SA
BRANCH   8   9
HETATM    9  C6  UNL     1      30.191  31.918  16.536  1.00  0.00     0.167 A 
HETATM   10  N1  UNL     1      29.369  32.714  15.833  1.00  0.00    -0.279 N 
HETATM   11  N2  UNL     1      30.059  33.620  15.152  1.00  0.00    -0.294 N 
ATOM     12  H1  UNL     1      28.352  32.634  15.824  1.00  0.00     0.189 HD
HETATM   13  C7  UNL     1      31.367  33.417  15.411  1.00  0.00     0.208 A 
ATOM     14  H2  UNL     1      29.671  34.341  14.544  1.00  0.00     0.187 HD
HETATM   15  N3  UNL     1      31.439  32.380  16.252  1.00  0.00    -0.279 N 
BRANCH  15  16
HETATM   16  C8  UNL     1      32.652  31.811  16.801  1.00  0.00     0.091 A 
HETATM   17  S2  UNL     1      33.150  31.700  18.422  1.00  0.00    -0.067 SA
HETATM   18  C9  UNL     1      34.683  30.895  18.195  1.00  0.00     0.064 A 
HETATM   19  C15 UNL     1      34.727  30.754  16.856  1.00  0.00    -0.028 A 
HETATM   20  C16 UNL     1      33.680  31.226  16.135  1.00  0.00    -0.016 A 
HETATM   21  C20 UNL     1      35.795  30.122  15.977  1.00  0.00     0.041 C 
HETATM   22  C17 UNL     1      33.766  31.052  14.631  1.00  0.00     0.042 C 
HETATM   23  C18 UNL     1      34.027  29.592  14.289  1.00  0.00     0.005 C 
HETATM   24  C19 UNL     1      35.178  29.047  15.096  1.00  0.00     0.005 C 
BRANCH  18  25
HETATM   25  C10 UNL     1      35.560  30.541  19.299  1.00  0.00     0.153 C 
BRANCH  25  26
HETATM   26  O2  UNL     1      36.821  30.885  19.154  1.00  0.00    -0.345 OA
ATOM     27  H2  UNL     1      37.041  31.763  19.441  1.00  0.00     0.219 HD
ENDBRANCH  25  26
BRANCH  25  28
HETATM   28  N4  UNL     1      35.297  29.894  20.494  1.00  0.00    -0.370 N 
ATOM     29  H4  UNL     1      36.054  29.767  21.165  1.00  0.00     0.161 HD
BRANCH  28  30
HETATM   30  C11 UNL     1      33.980  29.395  20.818  1.00  0.00     0.121 C 
BRANCH  30  31
HETATM   31  C12 UNL     1      33.976  28.453  21.967  1.00  0.00     0.019 C 
BRANCH  31  32
HETATM   32  C13 UNL     1      34.396  27.047  21.566  1.00  0.00    -0.003 C 
HETATM   33  C14 UNL     1      35.615  26.580  22.325  1.00  0.00     0.005 C 
ENDBRANCH  31  32
ENDBRANCH  30  31
ENDBRANCH  28  30
ENDBRANCH  25  28
ENDBRANCH  18  25
ENDBRANCH  15  16
ENDBRANCH   8   9
ENDBRANCH   7   8
ENDBRANCH   3   7
TORSDOF 11
ENDMDL
MODEL 5
REMARK VINA RESULT: -6.780105668      2.692      3.781
REMARK  11 active torsions:
REMARK  status: ('A' for Active; 'I' for Inactive)
REMARK    1  A    between atoms: C3_3  and  O1_5 
REMARK    2  A    between atoms: C3_3  and  C5_7 
REMARK    3  A    between atoms: C5_7  and  S1_8 
REMARK    4  A    between atoms: S1_8  and  C6_9 
REMARK    5  A    between atoms: N3_15  and  C8_16 
REMARK    6  A    between atoms: C9_18  and  C10_19 
REMARK    7  A    between atoms: C10_19  and  O2_20 
REMARK    8  A    between atoms: C10_19  and  N4_22 
REMARK    9  A    between atoms: N4_22  and  C11_24 
REMARK   10  A    between atoms: C11_24  and  C12_25 
REMARK   11  A    between atoms: C12_25  and  C13_26 
ROOT
HETATM    1  C1  UNL     1      32.711  24.687  15.109  1.00  0.00     0.015 C 
HETATM    2  C2  UNL     1      33.652  25.112  14.482  1.00  0.00    -0.079 C 
HETATM    3  C3  UNL     1      34.812  25.645  13.734  1.00  0.00     0.125 C 
HETATM    4  C4  UNL     1      35.347  24.576  12.842  1.00  0.00     0.061 C 
ENDROOT
BRANCH   3   5
HETATM    5  O1  UNL     1      35.849  25.874  14.697  1.00  0.00    -0.377 OA
ATOM      6  H1  UNL     1      35.963  26.814  14.755  1.00  0.00     0.211 HD
ENDBRANCH   3   5
BRANCH   3   7
HETATM    7  C5  UNL     1      34.516  26.968  13.136  1.00  0.00     0.133 C 
BRANCH   7   8
HETATM    8  S1  UNL     1      33.928  28.246  14.233  1.00  0.00    -0.088 SA
BRANCH   8   9
HETATM    9  C6  UNL     1      34.030  29.868  13.549  1.00  0.00     0.167 A 
HETATM   10  N1  UNL     1      33.978  30.336  12.291  1.00  0.00    -0.279 N 
HETATM   11  N2  UNL     1      34.102  31.657  12.273  1.00  0.00    -0.294 N 
ATOM     12  H1  UNL     1      33.859  29.754  11.461  1.00  0.00     0.189 HD
HETATM   13  C7  UNL     1      34.240  32.072  13.549  1.00  0.00     0.208 A 
ATOM     14  H2  UNL     1      34.093  32.251  11.444  1.00  0.00     0.187 HD
HETATM   15  N3  UNL     1      34.196  30.979  14.319  1.00  0.00    -0.279 N 
BRANCH  15  16
HETATM   16  C8  UNL     1      34.304  30.949  15.762  1.00  0.00     0.091 A 
HETATM   17  S2  UNL     1      35.676  30.699  16.733  1.00  0.00    -0.067 SA
HETATM   18  C9  UNL     1      34.935  30.821  18.310  1.00  0.00     0.064 A 
HETATM   19  C15 UNL     1      33.647  31.052  17.994  1.00  0.00    -0.028 A 
HETATM   20  C16 UNL     1      33.319  31.118  16.681  1.00  0.00    -0.016 A 
HETATM   21  C20 UNL     1      32.444  31.267  18.900  1.00  0.00     0.041 C 
HETATM   22  C17 UNL     1      31.858  31.375  16.363  1.00  0.00     0.042 C 
HETATM   23  C18 UNL     1      31.380  32.625  17.090  1.00  0.00     0.005 C 
HETATM   24  C19 UNL     1      31.752  32.574  18.550  1.00  0.00     0.005 C 
BRANCH  18  25
HETATM   25  C10 UNL     1      35.686  30.683  19.548  1.00  0.00     0.153 C 
BRANCH  25  26
HETATM   26  O2  UNL     1      36.994  30.672  19.420  1.00  0.00    -0.345 OA
ATOM     27  H2  UNL     1      37.394  29.812  19.374  1.00  0.00     0.219 HD
ENDBRANCH  25  26
BRANCH  25  28
HETATM   28  N4  UNL     1      35.256  30.557  20.858  1.00  0.00    -0.370 N 
ATOM     29  H4  UNL     1      34.868  31.373  21.331  1.00  0.00     0.161 HD
BRANCH  28  30
HETATM   30  C11 UNL     1      35.342  29.306  21.573  1.00  0.00     0.121 C 
BRANCH  30  31
HETATM   31  C12 UNL     1      34.085  28.516  21.529  1.00  0.00     0.019 C 
BRANCH  31  32
HETATM   32  C13 UNL     1      34.339  27.017  21.593  1.00  0.00    -0.003 C 
HETATM   33  C14 UNL     1      35.602  26.686  22.351  1.00  0.00     0.005 C 
ENDBRANCH  31  32
ENDBRANCH  30  31
ENDBRANCH  28  30
ENDBRANCH  25  28
ENDBRANCH  18  25
ENDBRANCH  15  16
ENDBRANCH   8   9
ENDBRANCH   7   8
ENDBRANCH   3   7
TORSDOF 11
ENDMDL
