MODEL 1
REMARK VINA RESULT: -6.900060136      0.000      0.000
REMARK  11 active torsions:
REMARK  status: ('A' for Active; 'I' for Inactive)
REMARK    1  A    between atoms: C2_2  and  C3_3 
REMARK    2  A    between atoms: C3_3  and  C4_4 
REMARK    3  A    between atoms: C3_3  and  C6_6 
REMARK    4  A    between atoms: C6_6  and  C7_7 
REMARK    5  A    between atoms: C7_7  and  N1_8 
REMARK    6  A    between atoms: C8_9  and  S1_10 
REMARK    7  A    between atoms: S1_10  and  C9_11 
REMARK    8  A    between atoms: C9_11  and  C10_12 
REMARK    9  A    between atoms: C12_19  and  N4_20 
REMARK   10  A    between atoms: C13_23  and  N5_24 
REMARK   11  A    between atoms: N5_24  and  O2_26 
ROOT
HETATM    1  N1  UNL     1      31.334  31.419  17.769  1.00  0.00    -0.293 N 
HETATM    2  C8  UNL     1      30.532  30.825  18.674  1.00  0.00     0.150 A 
HETATM    3  N6  UNL     1      31.004  30.226  19.756  1.00  0.00    -0.335 N 
ATOM      4  H6  UNL     1      30.333  29.799  20.394  1.00  0.00     0.168 HD
HETATM    5  C14 UNL     1      32.332  30.141  20.076  1.00  0.00     0.057 A 
HETATM    6  C15 UNL     1      32.897  29.552  21.155  1.00  0.00     0.038 A 
HETATM    7  C16 UNL     1      34.256  29.601  21.257  1.00  0.00     0.053 A 
HETATM    8  S2  UNL     1      34.716  30.458  19.857  1.00  0.00    -0.094 SA
HETATM    9  C17 UNL     1      33.174  30.734  19.180  1.00  0.00     0.099 A 
HETATM   10  C18 UNL     1      32.664  31.359  18.048  1.00  0.00     0.269 A 
HETATM   11  O3  UNL     1      33.490  31.883  17.266  1.00  0.00    -0.266 OA
ENDROOT
BRANCH   2  12
HETATM   12  S1  UNL     1      28.744  30.830  18.475  1.00  0.00    -0.087 SA
BRANCH  12  13
HETATM   13  C9  UNL     1      27.814  30.954  19.967  1.00  0.00     0.142 C 
BRANCH  13  14
HETATM   14  C10 UNL     1      26.732  29.980  20.181  1.00  0.00     0.055 A 
HETATM   15  N2  UNL     1      26.502  28.856  19.506  1.00  0.00    -0.309 N 
HETATM   16  C11 UNL     1      25.422  28.061  19.784  1.00  0.00     0.326 A 
ATOM     17  H2  UNL     1      27.146  28.581  18.765  1.00  0.00     0.170 HD
HETATM   18  O1  UNL     1      25.254  27.008  19.115  1.00  0.00    -0.247 OA
HETATM   19  N3  UNL     1      24.540  28.355  20.736  1.00  0.00    -0.293 N 
HETATM   20  C12 UNL     1      24.731  29.480  21.441  1.00  0.00     0.134 A 
ATOM     21  H3  UNL     1      23.744  27.745  20.924  1.00  0.00     0.172 HD
HETATM   22  C13 UNL     1      25.802  30.288  21.180  1.00  0.00     0.121 A 
BRANCH  20  23
HETATM   23  N4  UNL     1      23.849  29.743  22.368  1.00  0.00    -0.383 N 
ATOM     24  H42 UNL     1      23.665  29.119  23.154  1.00  0.00     0.157 HD
ATOM     25  H41 UNL     1      23.337  30.619  22.272  1.00  0.00     0.157 HD
ENDBRANCH  20  23
BRANCH  22  26
HETATM   26  N5  UNL     1      25.966  31.458  21.941  1.00  0.00    -0.264 N 
ATOM     27  H5  UNL     1      25.696  32.352  21.530  1.00  0.00     0.194 HD
BRANCH  26  28
HETATM   28  O2  UNL     1      26.425  31.446  23.091  1.00  0.00    -0.289 OA
ATOM     29  H2  UNL     1      26.272  32.151  23.710  1.00  0.00     0.244 HD
ENDBRANCH  26  28
ENDBRANCH  22  26
ENDBRANCH  13  14
ENDBRANCH  12  13
ENDBRANCH   2  12
BRANCH   1  30
HETATM   30  C7  UNL     1      30.838  32.047  16.580  1.00  0.00     0.135 C 
BRANCH  30  31
HETATM   31  C6  UNL     1      30.608  33.521  16.661  1.00  0.00     0.025 C 
BRANCH  31  32
HETATM   32  C3  UNL     1      31.380  34.260  15.589  1.00  0.00    -0.014 C 
BRANCH  32  33
HETATM   33  C2  UNL     1      31.735  33.439  14.414  1.00  0.00     0.000 C 
HETATM   34  C1  UNL     1      33.202  33.394  14.105  1.00  0.00     0.005 C 
ENDBRANCH  32  33
BRANCH  32  35
HETATM   35  C4  UNL     1      30.658  35.541  15.259  1.00  0.00     0.000 C 
HETATM   36  C5  UNL     1      31.643  36.608  14.808  1.00  0.00     0.005 C 
ENDBRANCH  32  35
ENDBRANCH  31  32
ENDBRANCH  30  31
ENDBRANCH   1  30
TORSDOF 11
ENDMDL
MODEL 2
REMARK VINA RESULT: -6.875307543      2.772      6.911
REMARK  11 active torsions:
REMARK  status: ('A' for Active; 'I' for Inactive)
REMARK    1  A    between atoms: C2_2  and  C3_3 
REMARK    2  A    between atoms: C3_3  and  C4_4 
REMARK    3  A    between atoms: C3_3  and  C6_6 
REMARK    4  A    between atoms: C6_6  and  C7_7 
REMARK    5  A    between atoms: C7_7  and  N1_8 
REMARK    6  A    between atoms: C8_9  and  S1_10 
REMARK    7  A    between atoms: S1_10  and  C9_11 
REMARK    8  A    between atoms: C9_11  and  C10_12 
REMARK    9  A    between atoms: C12_19  and  N4_20 
REMARK   10  A    between atoms: C13_23  and  N5_24 
REMARK   11  A    between atoms: N5_24  and  O2_26 
ROOT
HETATM    1  N1  UNL     1      29.082  30.851  17.837  1.00  0.00    -0.293 N 
HETATM    2  C8  UNL     1      29.394  30.977  19.141  1.00  0.00     0.150 A 
HETATM    3  N6  UNL     1      28.517  30.751  20.106  1.00  0.00    -0.335 N 
ATOM      4  H6  UNL     1      28.829  30.868  21.070  1.00  0.00     0.168 HD
HETATM    5  C14 UNL     1      27.218  30.372  19.897  1.00  0.00     0.057 A 
HETATM    6  C15 UNL     1      26.261  30.121  20.820  1.00  0.00     0.038 A 
HETATM    7  C16 UNL     1      25.030  29.752  20.363  1.00  0.00     0.053 A 
HETATM    8  S2  UNL     1      25.229  29.763  18.671  1.00  0.00    -0.094 SA
HETATM    9  C17 UNL     1      26.868  30.234  18.586  1.00  0.00     0.099 A 
HETATM   10  C18 UNL     1      27.800  30.475  17.583  1.00  0.00     0.269 A 
HETATM   11  O3  UNL     1      27.414  30.330  16.400  1.00  0.00    -0.266 OA
ENDROOT
BRANCH   2  12
HETATM   12  S1  UNL     1      31.053  31.444  19.658  1.00  0.00    -0.087 SA
BRANCH  12  13
HETATM   13  C9  UNL     1      32.065  30.126  20.245  1.00  0.00     0.142 C 
BRANCH  13  14
HETATM   14  C10 UNL     1      33.516  30.226  20.020  1.00  0.00     0.055 A 
HETATM   15  N2  UNL     1      34.144  30.645  18.923  1.00  0.00    -0.309 N 
HETATM   16  C11 UNL     1      35.510  30.643  18.833  1.00  0.00     0.326 A 
ATOM     17  H2  UNL     1      33.593  30.975  18.130  1.00  0.00     0.170 HD
HETATM   18  O1  UNL     1      36.051  31.050  17.773  1.00  0.00    -0.247 OA
HETATM   19  N3  UNL     1      36.294  30.226  19.826  1.00  0.00    -0.293 N 
HETATM   20  C12 UNL     1      35.704  29.794  20.950  1.00  0.00     0.134 A 
ATOM     21  H3  UNL     1      37.310  30.236  19.734  1.00  0.00     0.172 HD
HETATM   22  C13 UNL     1      34.342  29.788  21.060  1.00  0.00     0.121 A 
BRANCH  20  23
HETATM   23  N4  UNL     1      36.498  29.392  21.906  1.00  0.00    -0.383 N 
ATOM     24  H42 UNL     1      36.252  29.450  22.895  1.00  0.00     0.157 HD
ATOM     25  H41 UNL     1      37.398  29.009  21.618  1.00  0.00     0.157 HD
ENDBRANCH  20  23
BRANCH  22  26
HETATM   26  N5  UNL     1      33.763  29.327  22.255  1.00  0.00    -0.264 N 
ATOM     27  H5  UNL     1      33.111  28.544  22.214  1.00  0.00     0.194 HD
BRANCH  26  28
HETATM   28  O2  UNL     1      34.017  29.834  23.357  1.00  0.00    -0.289 OA
ATOM     29  H2  UNL     1      34.256  29.313  24.116  1.00  0.00     0.244 HD
ENDBRANCH  26  28
ENDBRANCH  22  26
ENDBRANCH  13  14
ENDBRANCH  12  13
ENDBRANCH   2  12
BRANCH   1  30
HETATM   30  C7  UNL     1      30.015  31.119  16.781  1.00  0.00     0.135 C 
BRANCH  30  31
HETATM   31  C6  UNL     1      29.980  32.497  16.206  1.00  0.00     0.025 C 
BRANCH  31  32
HETATM   32  C3  UNL     1      31.358  33.123  16.188  1.00  0.00    -0.014 C 
BRANCH  32  33
HETATM   33  C2  UNL     1      32.470  32.154  16.123  1.00  0.00     0.000 C 
HETATM   34  C1  UNL     1      33.467  32.421  15.035  1.00  0.00     0.005 C 
ENDBRANCH  32  33
BRANCH  32  35
HETATM   35  C4  UNL     1      31.398  34.190  15.124  1.00  0.00     0.000 C 
HETATM   36  C5  UNL     1      30.629  35.422  15.575  1.00  0.00     0.005 C 
ENDBRANCH  32  35
ENDBRANCH  31  32
ENDBRANCH  30  31
ENDBRANCH   1  30
TORSDOF 11
ENDMDL
MODEL 3
REMARK VINA RESULT: -6.849078137      0.307      1.170
REMARK  11 active torsions:
REMARK  status: ('A' for Active; 'I' for Inactive)
REMARK    1  A    between atoms: C2_2  and  C3_3 
REMARK    2  A    between atoms: C3_3  and  C4_4 
REMARK    3  A    between atoms: C3_3  and  C6_6 
REMARK    4  A    between atoms: C6_6  and  C7_7 
REMARK    5  A    between atoms: C7_7  and  N1_8 
REMARK    6  A    between atoms: C8_9  and  S1_10 
REMARK    7  A    between atoms: S1_10  and  C9_11 
REMARK    8  A    between atoms: C9_11  and  C10_12 
REMARK    9  A    between atoms: C12_19  and  N4_20 
REMARK   10  A    between atoms: C13_23  and  N5_24 
REMARK   11  A    between atoms: N5_24  and  O2_26 
ROOT
HETATM    1  N1  UNL     1      31.466  31.451  17.777  1.00  0.00    -0.293 N 
HETATM    2  C8  UNL     1      30.626  30.888  18.667  1.00  0.00     0.150 A 
HETATM    3  N6  UNL     1      31.054  30.270  19.756  1.00  0.00    -0.335 N 
ATOM      4  H6  UNL     1      30.355  29.870  20.381  1.00  0.00     0.168 HD
HETATM    5  C14 UNL     1      32.372  30.133  20.100  1.00  0.00     0.057 A 
HETATM    6  C15 UNL     1      32.893  29.521  21.188  1.00  0.00     0.038 A 
HETATM    7  C16 UNL     1      34.251  29.516  21.314  1.00  0.00     0.053 A 
HETATM    8  S2  UNL     1      34.770  30.355  19.924  1.00  0.00    -0.094 SA
HETATM    9  C17 UNL     1      33.252  30.692  19.220  1.00  0.00     0.099 A 
HETATM   10  C18 UNL     1      32.788  31.338  18.079  1.00  0.00     0.269 A 
HETATM   11  O3  UNL     1      33.648  31.830  17.313  1.00  0.00    -0.266 OA
ENDROOT
BRANCH   2  12
HETATM   12  S1  UNL     1      28.843  30.964  18.436  1.00  0.00    -0.087 SA
BRANCH  12  13
HETATM   13  C9  UNL     1      27.889  31.058  19.915  1.00  0.00     0.142 C 
BRANCH  13  14
HETATM   14  C10 UNL     1      26.812  30.071  20.096  1.00  0.00     0.055 A 
HETATM   15  N2  UNL     1      26.588  28.969  19.385  1.00  0.00    -0.309 N 
HETATM   16  C11 UNL     1      25.513  28.159  19.636  1.00  0.00     0.326 A 
ATOM     17  H2  UNL     1      27.233  28.721  18.634  1.00  0.00     0.170 HD
HETATM   18  O1  UNL     1      25.350  27.128  18.934  1.00  0.00    -0.247 OA
HETATM   19  N3  UNL     1      24.629  28.417  20.598  1.00  0.00    -0.293 N 
HETATM   20  C12 UNL     1      24.814  29.519  21.339  1.00  0.00     0.134 A 
ATOM     21  H3  UNL     1      23.837  27.796  20.766  1.00  0.00     0.172 HD
HETATM   22  C13 UNL     1      25.881  30.340  21.105  1.00  0.00     0.121 A 
BRANCH  20  23
HETATM   23  N4  UNL     1      23.932  29.746  22.275  1.00  0.00    -0.383 N 
ATOM     24  H42 UNL     1      23.436  29.001  22.766  1.00  0.00     0.157 HD
ATOM     25  H41 UNL     1      23.750  30.724  22.500  1.00  0.00     0.157 HD
ENDBRANCH  20  23
BRANCH  22  26
HETATM   26  N5  UNL     1      26.039  31.486  21.904  1.00  0.00    -0.264 N 
ATOM     27  H5  UNL     1      25.817  32.398  21.504  1.00  0.00     0.194 HD
BRANCH  26  28
HETATM   28  O2  UNL     1      26.437  31.431  23.076  1.00  0.00    -0.289 OA
ATOM     29  H2  UNL     1      27.240  30.987  23.322  1.00  0.00     0.244 HD
ENDBRANCH  26  28
ENDBRANCH  22  26
ENDBRANCH  13  14
ENDBRANCH  12  13
ENDBRANCH   2  12
BRANCH   1  30
HETATM   30  C7  UNL     1      31.017  32.099  16.580  1.00  0.00     0.135 C 
BRANCH  30  31
HETATM   31  C6  UNL     1      30.847  33.582  16.658  1.00  0.00     0.025 C 
BRANCH  31  32
HETATM   32  C3  UNL     1      30.901  34.217  15.285  1.00  0.00    -0.014 C 
BRANCH  32  33
HETATM   33  C2  UNL     1      30.621  35.666  15.270  1.00  0.00     0.000 C 
HETATM   34  C1  UNL     1      31.769  36.518  14.816  1.00  0.00     0.005 C 
ENDBRANCH  32  33
BRANCH  32  35
HETATM   35  C4  UNL     1      32.192  33.824  14.615  1.00  0.00     0.000 C 
HETATM   36  C5  UNL     1      31.920  33.239  13.237  1.00  0.00     0.005 C 
ENDBRANCH  32  35
ENDBRANCH  31  32
ENDBRANCH  30  31
ENDBRANCH   1  30
TORSDOF 11
ENDMDL
MODEL 4
REMARK VINA RESULT: -6.840796671      5.301     10.659
REMARK  11 active torsions:
REMARK  status: ('A' for Active; 'I' for Inactive)
REMARK    1  A    between atoms: C2_2  and  C3_3 
REMARK    2  A    between atoms: C3_3  and  C4_4 
REMARK    3  A    between atoms: C3_3  and  C6_6 
REMARK    4  A    between atoms: C6_6  and  C7_7 
REMARK    5  A    between atoms: C7_7  and  N1_8 
REMARK    6  A    between atoms: C8_9  and  S1_10 
REMARK    7  A    between atoms: S1_10  and  C9_11 
REMARK    8  A    between atoms: C9_11  and  C10_12 
REMARK    9  A    between atoms: C12_19  and  N4_20 
REMARK   10  A    between atoms: C13_23  and  N5_24 
REMARK   11  A    between atoms: N5_24  and  O2_26 
ROOT
HETATM    1  N1  UNL     1      33.598  31.557  18.233  1.00  0.00    -0.293 N 
HETATM    2  C8  UNL     1      34.188  31.293  17.050  1.00  0.00     0.150 A 
HETATM    3  N6  UNL     1      33.630  31.611  15.893  1.00  0.00    -0.335 N 
ATOM      4  H6  UNL     1      34.140  31.378  15.040  1.00  0.00     0.168 HD
HETATM    5  C14 UNL     1      32.417  32.230  15.762  1.00  0.00     0.057 A 
HETATM    6  C15 UNL     1      31.779  32.589  14.624  1.00  0.00     0.038 A 
HETATM    7  C16 UNL     1      30.568  33.202  14.751  1.00  0.00     0.053 A 
HETATM    8  S2  UNL     1      30.343  33.264  16.440  1.00  0.00    -0.094 SA
HETATM    9  C17 UNL     1      31.792  32.513  16.941  1.00  0.00     0.099 A 
HETATM   10  C18 UNL     1      32.388  32.173  18.150  1.00  0.00     0.269 A 
HETATM   11  O3  UNL     1      31.761  32.461  19.196  1.00  0.00    -0.266 OA
ENDROOT
BRANCH   2  12
HETATM   12  S1  UNL     1      35.802  30.503  16.974  1.00  0.00    -0.087 SA
BRANCH  12  13
HETATM   13  C9  UNL     1      36.493  30.341  15.361  1.00  0.00     0.142 C 
BRANCH  13  14
HETATM   14  C10 UNL     1      37.244  31.485  14.821  1.00  0.00     0.055 A 
HETATM   15  N2  UNL     1      37.208  32.751  15.232  1.00  0.00    -0.309 N 
HETATM   16  C11 UNL     1      37.930  33.730  14.604  1.00  0.00     0.326 A 
ATOM     17  H2  UNL     1      36.628  32.997  16.034  1.00  0.00     0.170 HD
HETATM   18  O1  UNL     1      37.860  34.910  15.035  1.00  0.00    -0.247 OA
HETATM   19  N3  UNL     1      38.709  33.485  13.552  1.00  0.00    -0.293 N 
HETATM   20  C12 UNL     1      38.774  32.224  13.102  1.00  0.00     0.134 A 
ATOM     21  H3  UNL     1      39.238  34.232  13.103  1.00  0.00     0.172 HD
HETATM   22  C13 UNL     1      38.062  31.231  13.715  1.00  0.00     0.121 A 
BRANCH  20  23
HETATM   23  N4  UNL     1      39.545  32.013  12.069  1.00  0.00    -0.383 N 
ATOM     24  H42 UNL     1      39.740  32.726  11.365  1.00  0.00     0.157 HD
ATOM     25  H41 UNL     1      39.955  31.083  11.990  1.00  0.00     0.157 HD
ENDBRANCH  20  23
BRANCH  22  26
HETATM   26  N5  UNL     1      38.158  29.922  13.212  1.00  0.00    -0.264 N 
ATOM     27  H5  UNL     1      37.370  29.538  12.690  1.00  0.00     0.194 HD
BRANCH  26  28
HETATM   28  O2  UNL     1      39.163  29.217  13.378  1.00  0.00    -0.289 OA
ATOM     29  H2  UNL     1      39.137  28.394  13.854  1.00  0.00     0.244 HD
ENDBRANCH  26  28
ENDBRANCH  22  26
ENDBRANCH  13  14
ENDBRANCH  12  13
ENDBRANCH   2  12
BRANCH   1  30
HETATM   30  C7  UNL     1      34.177  31.194  19.492  1.00  0.00     0.135 C 
BRANCH  30  31
HETATM   31  C6  UNL     1      33.596  29.992  20.163  1.00  0.00     0.025 C 
BRANCH  31  32
HETATM   32  C3  UNL     1      34.674  29.134  20.789  1.00  0.00    -0.014 C 
BRANCH  32  33
HETATM   33  C2  UNL     1      35.864  29.880  21.244  1.00  0.00     0.000 C 
HETATM   34  C1  UNL     1      36.391  29.457  22.583  1.00  0.00     0.005 C 
ENDBRANCH  32  33
BRANCH  32  35
HETATM   35  C4  UNL     1      34.050  28.254  21.842  1.00  0.00     0.000 C 
HETATM   36  C5  UNL     1      34.394  26.794  21.589  1.00  0.00     0.005 C 
ENDBRANCH  32  35
ENDBRANCH  31  32
ENDBRANCH  30  31
ENDBRANCH   1  30
TORSDOF 11
ENDMDL
MODEL 5
REMARK VINA RESULT: -6.775821137      1.866      4.718
REMARK  11 active torsions:
REMARK  status: ('A' for Active; 'I' for Inactive)
REMARK    1  A    between atoms: C2_2  and  C3_3 
REMARK    2  A    between atoms: C3_3  and  C4_4 
REMARK    3  A    between atoms: C3_3  and  C6_6 
REMARK    4  A    between atoms: C6_6  and  C7_7 
REMARK    5  A    between atoms: C7_7  and  N1_8 
REMARK    6  A    between atoms: C8_9  and  S1_10 
REMARK    7  A    between atoms: S1_10  and  C9_11 
REMARK    8  A    between atoms: C9_11  and  C10_12 
REMARK    9  A    between atoms: C12_19  and  N4_20 
REMARK   10  A    between atoms: C13_23  and  N5_24 
REMARK   11  A    between atoms: N5_24  and  O2_26 
ROOT
HETATM    1  N1  UNL     1      31.519  31.519  18.394  1.00  0.00    -0.293 N 
HETATM    2  C8  UNL     1      30.212  31.452  18.075  1.00  0.00     0.150 A 
HETATM    3  N6  UNL     1      29.771  31.639  16.842  1.00  0.00    -0.335 N 
ATOM      4  H6  UNL     1      28.766  31.571  16.680  1.00  0.00     0.168 HD
HETATM    5  C14 UNL     1      30.573  31.917  15.768  1.00  0.00     0.057 A 
HETATM    6  C15 UNL     1      30.207  32.121  14.481  1.00  0.00     0.038 A 
HETATM    7  C16 UNL     1      31.198  32.383  13.582  1.00  0.00     0.053 A 
HETATM    8  S2  UNL     1      32.608  32.342  14.539  1.00  0.00    -0.094 SA
HETATM    9  C17 UNL     1      31.905  31.993  16.055  1.00  0.00     0.099 A 
HETATM   10  C18 UNL     1      32.353  31.794  17.356  1.00  0.00     0.269 A 
HETATM   11  O3  UNL     1      33.588  31.877  17.551  1.00  0.00    -0.266 OA
ENDROOT
BRANCH   2  12
HETATM   12  S1  UNL     1      28.971  31.074  19.322  1.00  0.00    -0.087 SA
BRANCH  12  13
HETATM   13  C9  UNL     1      27.346  30.774  18.710  1.00  0.00     0.142 C 
BRANCH  13  14
HETATM   14  C10 UNL     1      26.502  29.820  19.448  1.00  0.00     0.055 A 
HETATM   15  N2  UNL     1      26.357  28.517  19.223  1.00  0.00    -0.309 N 
HETATM   16  C11 UNL     1      25.496  27.752  19.964  1.00  0.00     0.326 A 
ATOM     17  H2  UNL     1      26.899  28.077  18.479  1.00  0.00     0.170 HD
HETATM   18  O1  UNL     1      25.399  26.523  19.709  1.00  0.00    -0.247 OA
HETATM   19  N3  UNL     1      24.756  28.255  20.950  1.00  0.00    -0.293 N 
HETATM   20  C12 UNL     1      24.869  29.565  21.211  1.00  0.00     0.134 A 
ATOM     21  H3  UNL     1      24.124  27.664  21.489  1.00  0.00     0.172 HD
HETATM   22  C13 UNL     1      25.722  30.346  20.483  1.00  0.00     0.121 A 
BRANCH  20  23
HETATM   23  N4  UNL     1      24.131  30.031  22.183  1.00  0.00    -0.383 N 
ATOM     24  H42 UNL     1      24.522  30.411  23.046  1.00  0.00     0.157 HD
ATOM     25  H41 UNL     1      23.122  29.997  22.043  1.00  0.00     0.157 HD
ENDBRANCH  20  23
BRANCH  22  26
HETATM   26  N5  UNL     1      25.811  31.716  20.789  1.00  0.00    -0.264 N 
ATOM     27  H5  UNL     1      25.342  32.386  20.180  1.00  0.00     0.194 HD
BRANCH  26  28
HETATM   28  O2  UNL     1      26.437  32.140  21.770  1.00  0.00    -0.289 OA
ATOM     29  H2  UNL     1      26.032  32.262  22.621  1.00  0.00     0.244 HD
ENDBRANCH  26  28
ENDBRANCH  22  26
ENDBRANCH  13  14
ENDBRANCH  12  13
ENDBRANCH   2  12
BRANCH   1  30
HETATM   30  C7  UNL     1      32.007  31.346  19.731  1.00  0.00     0.135 C 
BRANCH  30  31
HETATM   31  C6  UNL     1      32.295  29.940  20.149  1.00  0.00     0.025 C 
BRANCH  31  32
HETATM   32  C3  UNL     1      33.608  29.845  20.895  1.00  0.00    -0.014 C 
BRANCH  32  33
HETATM   33  C2  UNL     1      33.658  28.777  21.913  1.00  0.00     0.000 C 
HETATM   34  C1  UNL     1      34.375  27.533  21.478  1.00  0.00     0.005 C 
ENDBRANCH  32  33
BRANCH  32  35
HETATM   35  C4  UNL     1      34.737  29.806  19.896  1.00  0.00     0.000 C 
HETATM   36  C5  UNL     1      35.768  30.877  20.216  1.00  0.00     0.005 C 
ENDBRANCH  32  35
ENDBRANCH  31  32
ENDBRANCH  30  31
ENDBRANCH   1  30
TORSDOF 11
ENDMDL
