MODEL 1
REMARK VINA RESULT: -6.777346274      0.000      0.000
REMARK  11 active torsions:
REMARK  status: ('A' for Active; 'I' for Inactive)
REMARK    1  A    between atoms: C2_2  and  C3_3 
REMARK    2  A    between atoms: C4_4  and  C5_5 
REMARK    3  A    between atoms: C5_5  and  C6_6 
REMARK    4  A    between atoms: C6_6  and  C7_7 
REMARK    5  A    between atoms: C6_6  and  O5_26 
REMARK    6  A    between atoms: C7_7  and  S1_8 
REMARK    7  A    between atoms: S1_8  and  C8_9 
REMARK    8  A    between atoms: C15_18  and  O3_19 
REMARK    9  A    between atoms: C18_23  and  O4_24 
REMARK   10  A    between atoms: O5_26  and  C19_27 
REMARK       I    between atoms: C19_27  and  N1_29 
REMARK   11  A    between atoms: N1_29  and  C20_31 
ROOT
HETATM    1  C8  UNL     1      30.176  30.704  17.156  1.00  0.00     0.169 C 
HETATM    2  C9  UNL     1      29.968  29.312  16.685  1.00  0.00     0.065 C 
HETATM    3  O1  UNL     1      29.189  31.583  16.707  1.00  0.00    -0.215 OA
HETATM    4  O2  UNL     1      29.642  32.161  15.630  1.00  0.00    -0.225 OA
HETATM    5  C10 UNL     1      30.978  32.443  15.830  1.00  0.00     0.131 C 
HETATM    6  C11 UNL     1      31.195  33.681  16.669  1.00  0.00     0.045 C 
HETATM    7  C12 UNL     1      30.457  34.832  16.006  1.00  0.00     0.010 C 
HETATM    8  C13 UNL     1      31.114  35.075  14.671  1.00  0.00     0.011 C 
HETATM    9  C14 UNL     1      30.281  36.120  13.945  1.00  0.00     0.012 C 
HETATM   10  C15 UNL     1      31.201  33.860  13.802  1.00  0.00     0.128 C 
HETATM   11  C16 UNL     1      31.699  32.631  14.538  1.00  0.00     0.051 C 
HETATM   12  C17 UNL     1      33.187  32.803  14.721  1.00  0.00     0.016 C 
HETATM   13  C18 UNL     1      31.478  31.255  16.582  1.00  0.00     0.204 C 
ENDROOT
BRANCH   1  14
HETATM   14  S1  UNL     1      30.177  30.821  18.953  1.00  0.00    -0.123 SA
BRANCH  14  15
HETATM   15  C7  UNL     1      31.731  31.383  19.659  1.00  0.00     0.110 C 
BRANCH  15  16
HETATM   16  C6  UNL     1      32.830  30.383  19.715  1.00  0.00     0.146 C 
BRANCH  16  17
HETATM   17  C5  UNL     1      32.624  29.477  20.940  1.00  0.00     0.060 C 
BRANCH  17  18
HETATM   18  C4  UNL     1      33.804  29.564  21.795  1.00  0.00    -0.028 C 
HETATM   19  C3  UNL     1      34.586  28.552  22.058  1.00  0.00    -0.031 C 
BRANCH  19  20
HETATM   20  C2  UNL     1      34.473  27.161  21.583  1.00  0.00     0.022 C 
HETATM   21  C1  UNL     1      35.443  26.245  22.344  1.00  0.00     0.009 C 
ENDBRANCH  19  20
ENDBRANCH  17  18
ENDBRANCH  16  17
BRANCH  16  22
HETATM   22  O5  UNL     1      34.112  30.960  19.778  1.00  0.00    -0.298 OA
BRANCH  22  23
HETATM   23  C19 UNL     1      35.113  30.917  18.868  1.00  0.00     0.360 C 
HETATM   24  O6  UNL     1      36.287  30.905  19.248  1.00  0.00    -0.239 OA
HETATM   25  N1  UNL     1      34.883  30.885  17.455  1.00  0.00    -0.337 N 
ATOM     26  H1  UNL     1      33.920  30.895  17.120  1.00  0.00     0.164 HD
BRANCH  25  27
HETATM   27  C20 UNL     1      35.937  30.839  16.490  1.00  0.00     0.120 C 
HETATM   28  C21 UNL     1      36.288  29.441  16.033  1.00  0.00     0.026 C 
ENDBRANCH  25  27
ENDBRANCH  22  23
ENDBRANCH  16  22
ENDBRANCH  15  16
ENDBRANCH  14  15
ENDBRANCH   1  14
BRANCH  13  29
HETATM   29  O4  UNL     1      32.081  30.362  15.711  1.00  0.00    -0.388 OA
ATOM     30  H4  UNL     1      32.402  29.589  16.160  1.00  0.00     0.210 HD
ENDBRANCH  13  29
BRANCH  10  31
HETATM   31  O3  UNL     1      32.133  34.132  12.784  1.00  0.00    -0.395 OA
ATOM     32  H3  UNL     1      31.645  34.390  12.010  1.00  0.00     0.210 HD
ENDBRANCH  10  31
TORSDOF 11
ENDMDL
MODEL 2
REMARK VINA RESULT: -6.502237724      2.479      4.251
REMARK  11 active torsions:
REMARK  status: ('A' for Active; 'I' for Inactive)
REMARK    1  A    between atoms: C2_2  and  C3_3 
REMARK    2  A    between atoms: C4_4  and  C5_5 
REMARK    3  A    between atoms: C5_5  and  C6_6 
REMARK    4  A    between atoms: C6_6  and  C7_7 
REMARK    5  A    between atoms: C6_6  and  O5_26 
REMARK    6  A    between atoms: C7_7  and  S1_8 
REMARK    7  A    between atoms: S1_8  and  C8_9 
REMARK    8  A    between atoms: C15_18  and  O3_19 
REMARK    9  A    between atoms: C18_23  and  O4_24 
REMARK   10  A    between atoms: O5_26  and  C19_27 
REMARK       I    between atoms: C19_27  and  N1_29 
REMARK   11  A    between atoms: N1_29  and  C20_31 
ROOT
HETATM    1  C8  UNL     1      31.290  30.795  16.951  1.00  0.00     0.169 C 
HETATM    2  C9  UNL     1      31.941  30.018  15.869  1.00  0.00     0.065 C 
HETATM    3  O1  UNL     1      31.011  30.025  18.082  1.00  0.00    -0.215 OA
HETATM    4  O2  UNL     1      29.774  29.625  17.986  1.00  0.00    -0.225 OA
HETATM    5  C10 UNL     1      29.027  30.675  17.490  1.00  0.00     0.131 C 
HETATM    6  C11 UNL     1      28.686  31.701  18.546  1.00  0.00     0.045 C 
HETATM    7  C12 UNL     1      27.985  30.984  19.687  1.00  0.00     0.010 C 
HETATM    8  C13 UNL     1      26.683  30.449  19.146  1.00  0.00     0.011 C 
HETATM    9  C14 UNL     1      26.056  29.602  20.244  1.00  0.00     0.012 C 
HETATM   10  C15 UNL     1      26.832  29.596  17.926  1.00  0.00     0.128 C 
HETATM   11  C16 UNL     1      27.750  30.200  16.881  1.00  0.00     0.051 C 
HETATM   12  C17 UNL     1      26.979  31.308  16.208  1.00  0.00     0.016 C 
HETATM   13  C18 UNL     1      29.929  31.300  16.480  1.00  0.00     0.204 C 
ENDROOT
BRANCH   1  14
HETATM   14  S1  UNL     1      32.313  32.166  17.515  1.00  0.00    -0.123 SA
BRANCH  14  15
HETATM   15  C7  UNL     1      33.307  31.803  18.967  1.00  0.00     0.110 C 
BRANCH  15  16
HETATM   16  C6  UNL     1      34.306  30.711  18.825  1.00  0.00     0.146 C 
BRANCH  16  17
HETATM   17  C5  UNL     1      34.750  30.250  20.223  1.00  0.00     0.060 C 
BRANCH  17  18
HETATM   18  C4  UNL     1      33.610  29.643  20.904  1.00  0.00    -0.028 C 
HETATM   19  C3  UNL     1      33.685  28.546  21.608  1.00  0.00    -0.031 C 
BRANCH  19  20
HETATM   20  C2  UNL     1      34.868  27.704  21.867  1.00  0.00     0.022 C 
HETATM   21  C1  UNL     1      34.474  26.222  21.950  1.00  0.00     0.009 C 
ENDBRANCH  19  20
ENDBRANCH  17  18
ENDBRANCH  16  17
BRANCH  16  22
HETATM   22  O5  UNL     1      35.442  31.082  18.079  1.00  0.00    -0.298 OA
BRANCH  22  23
HETATM   23  C19 UNL     1      35.804  30.705  16.832  1.00  0.00     0.360 C 
HETATM   24  O6  UNL     1      35.525  31.424  15.868  1.00  0.00    -0.239 OA
HETATM   25  N1  UNL     1      36.509  29.489  16.557  1.00  0.00    -0.337 N 
ATOM     26  H1  UNL     1      36.749  28.880  17.340  1.00  0.00     0.164 HD
BRANCH  25  27
HETATM   27  C20 UNL     1      36.894  29.086  15.241  1.00  0.00     0.120 C 
HETATM   28  C21 UNL     1      36.091  27.925  14.698  1.00  0.00     0.026 C 
ENDBRANCH  25  27
ENDBRANCH  22  23
ENDBRANCH  16  22
ENDBRANCH  15  16
ENDBRANCH  14  15
ENDBRANCH   1  14
BRANCH  13  29
HETATM   29  O4  UNL     1      29.615  30.837  15.212  1.00  0.00    -0.388 OA
ATOM     30  H4  UNL     1      28.732  31.074  14.956  1.00  0.00     0.210 HD
ENDBRANCH  13  29
BRANCH  10  31
HETATM   31  O3  UNL     1      25.561  29.476  17.334  1.00  0.00    -0.395 OA
ATOM     32  H3  UNL     1      25.561  28.681  16.814  1.00  0.00     0.210 HD
ENDBRANCH  10  31
TORSDOF 11
ENDMDL
MODEL 3
REMARK VINA RESULT: -6.501928549      1.759      3.022
REMARK  11 active torsions:
REMARK  status: ('A' for Active; 'I' for Inactive)
REMARK    1  A    between atoms: C2_2  and  C3_3 
REMARK    2  A    between atoms: C4_4  and  C5_5 
REMARK    3  A    between atoms: C5_5  and  C6_6 
REMARK    4  A    between atoms: C6_6  and  C7_7 
REMARK    5  A    between atoms: C6_6  and  O5_26 
REMARK    6  A    between atoms: C7_7  and  S1_8 
REMARK    7  A    between atoms: S1_8  and  C8_9 
REMARK    8  A    between atoms: C15_18  and  O3_19 
REMARK    9  A    between atoms: C18_23  and  O4_24 
REMARK   10  A    between atoms: O5_26  and  C19_27 
REMARK       I    between atoms: C19_27  and  N1_29 
REMARK   11  A    between atoms: N1_29  and  C20_31 
ROOT
HETATM    1  C8  UNL     1      30.854  32.246  17.055  1.00  0.00     0.169 C 
HETATM    2  C9  UNL     1      30.473  33.678  17.118  1.00  0.00     0.065 C 
HETATM    3  O1  UNL     1      32.219  32.056  16.831  1.00  0.00    -0.215 OA
HETATM    4  O2  UNL     1      32.383  31.883  15.549  1.00  0.00    -0.225 OA
HETATM    5  C10 UNL     1      31.348  31.093  15.092  1.00  0.00     0.131 C 
HETATM    6  C11 UNL     1      31.557  29.626  15.387  1.00  0.00     0.045 C 
HETATM    7  C12 UNL     1      32.896  29.216  14.799  1.00  0.00     0.010 C 
HETATM    8  C13 UNL     1      32.791  29.360  13.302  1.00  0.00     0.011 C 
HETATM    9  C14 UNL     1      34.175  29.099  12.728  1.00  0.00     0.012 C 
HETATM   10  C15 UNL     1      32.346  30.715  12.849  1.00  0.00     0.128 C 
HETATM   11  C16 UNL     1      31.152  31.243  13.621  1.00  0.00     0.051 C 
HETATM   12  C17 UNL     1      29.940  30.500  13.116  1.00  0.00     0.016 C 
HETATM   13  C18 UNL     1      30.169  31.580  15.866  1.00  0.00     0.204 C 
ENDROOT
BRANCH   1  14
HETATM   14  S1  UNL     1      30.466  31.371  18.581  1.00  0.00    -0.123 SA
BRANCH  14  15
HETATM   15  C7  UNL     1      31.756  31.447  19.829  1.00  0.00     0.110 C 
BRANCH  15  16
HETATM   16  C6  UNL     1      32.830  30.422  19.729  1.00  0.00     0.146 C 
BRANCH  16  17
HETATM   17  C5  UNL     1      32.673  29.415  20.880  1.00  0.00     0.060 C 
BRANCH  17  18
HETATM   18  C4  UNL     1      33.833  29.520  21.760  1.00  0.00    -0.028 C 
HETATM   19  C3  UNL     1      34.612  28.515  22.057  1.00  0.00    -0.031 C 
BRANCH  19  20
HETATM   20  C2  UNL     1      34.513  27.115  21.603  1.00  0.00     0.022 C 
HETATM   21  C1  UNL     1      35.483  26.218  22.387  1.00  0.00     0.009 C 
ENDBRANCH  19  20
ENDBRANCH  17  18
ENDBRANCH  16  17
BRANCH  16  22
HETATM   22  O5  UNL     1      34.129  30.965  19.764  1.00  0.00    -0.298 OA
BRANCH  22  23
HETATM   23  C19 UNL     1      35.099  30.916  18.823  1.00  0.00     0.360 C 
HETATM   24  O6  UNL     1      36.285  30.895  19.164  1.00  0.00    -0.239 OA
HETATM   25  N1  UNL     1      34.824  30.888  17.417  1.00  0.00    -0.337 N 
ATOM     26  H1  UNL     1      33.850  30.905  17.113  1.00  0.00     0.164 HD
BRANCH  25  27
HETATM   27  C20 UNL     1      35.845  30.836  16.419  1.00  0.00     0.120 C 
HETATM   28  C21 UNL     1      36.300  29.434  16.081  1.00  0.00     0.026 C 
ENDBRANCH  25  27
ENDBRANCH  22  23
ENDBRANCH  16  22
ENDBRANCH  15  16
ENDBRANCH  14  15
ENDBRANCH   1  14
BRANCH  13  29
HETATM   29  O4  UNL     1      29.446  32.487  15.108  1.00  0.00    -0.388 OA
ATOM     30  H4  UNL     1      28.513  32.305  15.129  1.00  0.00     0.210 HD
ENDBRANCH  13  29
BRANCH  10  31
HETATM   31  O3  UNL     1      31.946  30.603  11.504  1.00  0.00    -0.395 OA
ATOM     32  H3  UNL     1      32.521  31.154  10.987  1.00  0.00     0.210 HD
ENDBRANCH  10  31
TORSDOF 11
ENDMDL
MODEL 4
REMARK VINA RESULT: -6.428534826      1.901      3.816
REMARK  11 active torsions:
REMARK  status: ('A' for Active; 'I' for Inactive)
REMARK    1  A    between atoms: C2_2  and  C3_3 
REMARK    2  A    between atoms: C4_4  and  C5_5 
REMARK    3  A    between atoms: C5_5  and  C6_6 
REMARK    4  A    between atoms: C6_6  and  C7_7 
REMARK    5  A    between atoms: C6_6  and  O5_26 
REMARK    6  A    between atoms: C7_7  and  S1_8 
REMARK    7  A    between atoms: S1_8  and  C8_9 
REMARK    8  A    between atoms: C15_18  and  O3_19 
REMARK    9  A    between atoms: C18_23  and  O4_24 
REMARK   10  A    between atoms: O5_26  and  C19_27 
REMARK       I    between atoms: C19_27  and  N1_29 
REMARK   11  A    between atoms: N1_29  and  C20_31 
ROOT
HETATM    1  C8  UNL     1      30.869  31.583  18.457  1.00  0.00     0.169 C 
HETATM    2  C9  UNL     1      29.669  31.026  19.127  1.00  0.00     0.065 C 
HETATM    3  O1  UNL     1      30.639  32.836  17.884  1.00  0.00    -0.215 OA
HETATM    4  O2  UNL     1      30.353  32.643  16.627  1.00  0.00    -0.225 OA
HETATM    5  C10 UNL     1      31.185  31.651  16.150  1.00  0.00     0.131 C 
HETATM    6  C11 UNL     1      32.572  32.156  15.828  1.00  0.00     0.045 C 
HETATM    7  C12 UNL     1      32.435  33.310  14.851  1.00  0.00     0.010 C 
HETATM    8  C13 UNL     1      31.855  32.752  13.576  1.00  0.00     0.011 C 
HETATM    9  C14 UNL     1      31.575  33.932  12.657  1.00  0.00     0.012 C 
HETATM   10  C15 UNL     1      30.578  31.995  13.765  1.00  0.00     0.128 C 
HETATM   11  C16 UNL     1      30.629  31.014  14.921  1.00  0.00     0.051 C 
HETATM   12  C17 UNL     1      31.447  29.834  14.457  1.00  0.00     0.016 C 
HETATM   13  C18 UNL     1      31.271  30.690  17.287  1.00  0.00     0.204 C 
ENDROOT
BRANCH   1  14
HETATM   14  S1  UNL     1      32.248  31.794  19.596  1.00  0.00    -0.123 SA
BRANCH  14  15
HETATM   15  C7  UNL     1      33.552  30.570  19.416  1.00  0.00     0.110 C 
BRANCH  15  16
HETATM   16  C6  UNL     1      34.947  31.072  19.534  1.00  0.00     0.146 C 
BRANCH  16  17
HETATM   17  C5  UNL     1      35.845  30.297  18.556  1.00  0.00     0.060 C 
BRANCH  17  18
HETATM   18  C4  UNL     1      35.653  30.833  17.212  1.00  0.00    -0.028 C 
HETATM   19  C3  UNL     1      35.964  30.187  16.121  1.00  0.00    -0.031 C 
BRANCH  19  20
HETATM   20  C2  UNL     1      36.549  28.840  15.991  1.00  0.00     0.022 C 
HETATM   21  C1  UNL     1      37.535  28.785  14.814  1.00  0.00     0.009 C 
ENDBRANCH  19  20
ENDBRANCH  17  18
ENDBRANCH  16  17
BRANCH  16  22
HETATM   22  O5  UNL     1      35.476  30.960  20.834  1.00  0.00    -0.298 OA
BRANCH  22  23
HETATM   23  C19 UNL     1      35.777  29.846  21.539  1.00  0.00     0.360 C 
HETATM   24  O6  UNL     1      36.672  29.880  22.389  1.00  0.00    -0.239 OA
HETATM   25  N1  UNL     1      35.100  28.597  21.353  1.00  0.00    -0.337 N 
ATOM     26  H1  UNL     1      34.357  28.547  20.656  1.00  0.00     0.164 HD
BRANCH  25  27
HETATM   27  C20 UNL     1      35.414  27.417  22.096  1.00  0.00     0.120 C 
HETATM   28  C21 UNL     1      34.433  26.285  21.889  1.00  0.00     0.026 C 
ENDBRANCH  25  27
ENDBRANCH  22  23
ENDBRANCH  16  22
ENDBRANCH  15  16
ENDBRANCH  14  15
ENDBRANCH   1  14
BRANCH  13  29
HETATM   29  O4  UNL     1      30.375  29.649  17.098  1.00  0.00    -0.388 OA
ATOM     30  H4  UNL     1      29.486  29.961  16.983  1.00  0.00     0.210 HD
ENDBRANCH  13  29
BRANCH  10  31
HETATM   31  O3  UNL     1      30.353  31.242  12.598  1.00  0.00    -0.395 OA
ATOM     32  H3  UNL     1      29.629  30.653  12.773  1.00  0.00     0.210 HD
ENDBRANCH  10  31
TORSDOF 11
ENDMDL
MODEL 5
REMARK VINA RESULT: -6.362082868      2.043      4.397
REMARK  11 active torsions:
REMARK  status: ('A' for Active; 'I' for Inactive)
REMARK    1  A    between atoms: C2_2  and  C3_3 
REMARK    2  A    between atoms: C4_4  and  C5_5 
REMARK    3  A    between atoms: C5_5  and  C6_6 
REMARK    4  A    between atoms: C6_6  and  C7_7 
REMARK    5  A    between atoms: C6_6  and  O5_26 
REMARK    6  A    between atoms: C7_7  and  S1_8 
REMARK    7  A    between atoms: S1_8  and  C8_9 
REMARK    8  A    between atoms: C15_18  and  O3_19 
REMARK    9  A    between atoms: C18_23  and  O4_24 
REMARK   10  A    between atoms: O5_26  and  C19_27 
REMARK       I    between atoms: C19_27  and  N1_29 
REMARK   11  A    between atoms: N1_29  and  C20_31 
ROOT
HETATM    1  C8  UNL     1      30.993  32.339  16.386  1.00  0.00     0.169 C 
HETATM    2  C9  UNL     1      30.816  33.793  16.149  1.00  0.00     0.065 C 
HETATM    3  O1  UNL     1      30.439  31.552  15.375  1.00  0.00    -0.215 OA
HETATM    4  O2  UNL     1      29.246  31.200  15.765  1.00  0.00    -0.225 OA
HETATM    5  C10 UNL     1      29.311  30.901  17.110  1.00  0.00     0.131 C 
HETATM    6  C11 UNL     1      29.878  29.526  17.377  1.00  0.00     0.045 C 
HETATM    7  C12 UNL     1      29.046  28.518  16.603  1.00  0.00     0.010 C 
HETATM    8  C13 UNL     1      27.654  28.547  17.181  1.00  0.00     0.011 C 
HETATM    9  C14 UNL     1      26.787  27.654  16.307  1.00  0.00     0.012 C 
HETATM   10  C15 UNL     1      27.035  29.909  17.216  1.00  0.00     0.128 C 
HETATM   11  C16 UNL     1      27.967  30.977  17.755  1.00  0.00     0.051 C 
HETATM   12  C17 UNL     1      28.028  30.791  19.251  1.00  0.00     0.016 C 
HETATM   13  C18 UNL     1      30.249  31.926  17.652  1.00  0.00     0.204 C 
ENDROOT
BRANCH   1  14
HETATM   14  S1  UNL     1      32.730  31.874  16.492  1.00  0.00    -0.123 SA
BRANCH  14  15
HETATM   15  C7  UNL     1      33.350  31.697  18.170  1.00  0.00     0.110 C 
BRANCH  15  16
HETATM   16  C6  UNL     1      34.450  30.715  18.365  1.00  0.00     0.146 C 
BRANCH  16  17
HETATM   17  C5  UNL     1      34.688  30.519  19.871  1.00  0.00     0.060 C 
BRANCH  17  18
HETATM   18  C4  UNL     1      33.462  30.014  20.481  1.00  0.00    -0.028 C 
HETATM   19  C3  UNL     1      33.435  29.069  21.381  1.00  0.00    -0.031 C 
BRANCH  19  20
HETATM   20  C2  UNL     1      34.569  28.327  21.963  1.00  0.00     0.022 C 
HETATM   21  C1  UNL     1      34.502  26.840  21.581  1.00  0.00     0.009 C 
ENDBRANCH  19  20
ENDBRANCH  17  18
ENDBRANCH  16  17
BRANCH  16  22
HETATM   22  O5  UNL     1      35.659  31.099  17.753  1.00  0.00    -0.298 OA
BRANCH  22  23
HETATM   23  C19 UNL     1      36.222  30.637  16.613  1.00  0.00     0.360 C 
HETATM   24  O6  UNL     1      36.452  31.414  15.682  1.00  0.00    -0.239 OA
HETATM   25  N1  UNL     1      36.577  29.263  16.418  1.00  0.00    -0.337 N 
ATOM     26  H1  UNL     1      36.396  28.603  17.175  1.00  0.00     0.164 HD
BRANCH  25  27
HETATM   27  C20 UNL     1      37.173  28.769  15.216  1.00  0.00     0.120 C 
HETATM   28  C21 UNL     1      36.228  27.965  14.352  1.00  0.00     0.026 C 
ENDBRANCH  25  27
ENDBRANCH  22  23
ENDBRANCH  16  22
ENDBRANCH  15  16
ENDBRANCH  14  15
ENDBRANCH   1  14
BRANCH  13  29
HETATM   29  O4  UNL     1      29.536  32.979  18.202  1.00  0.00    -0.388 OA
ATOM     30  H4  UNL     1      29.660  33.040  19.142  1.00  0.00     0.210 HD
ENDBRANCH  13  29
BRANCH  10  31
HETATM   31  O3  UNL     1      25.932  29.852  18.087  1.00  0.00    -0.395 OA
ATOM     32  H3  UNL     1      25.298  30.494  17.789  1.00  0.00     0.210 HD
ENDBRANCH  10  31
TORSDOF 11
ENDMDL
