MODEL 1
REMARK VINA RESULT: -7.696913661      0.000      0.000
REMARK  7 active torsions:
REMARK  status: ('A' for Active; 'I' for Inactive)
REMARK    1  A    between atoms: C2_2  and  N1_3 
REMARK    2  A    between atoms: C6_7  and  C7_8 
REMARK    3  A    between atoms: C7_8  and  C8_9 
REMARK    4  A    between atoms: C8_9  and  N2_10 
REMARK    5  A    between atoms: C9_11  and  O1_12 
REMARK    6  A    between atoms: C11_15  and  N3_16 
REMARK    7  A    between atoms: C17_23  and  O3_24 
ROOT
HETATM    1  N2  UNL     1      78.395   5.802  29.634  1.00  0.00    -0.307 N 
HETATM    2  C9  UNL     1      78.055   7.033  29.201  1.00  0.00     0.146 A 
HETATM    3  C10 UNL     1      78.044   7.066  27.828  1.00  0.00     0.089 A 
HETATM    4  C11 UNL     1      78.393   5.796  27.413  1.00  0.00     0.086 A 
HETATM    5  C17 UNL     1      78.602   5.045  28.541  1.00  0.00     0.171 A 
ENDROOT
BRANCH   1   6
HETATM    6  C8  UNL     1      78.501   5.418  31.025  1.00  0.00     0.135 C 
BRANCH   6   7
HETATM    7  C7  UNL     1      79.942   5.273  31.434  1.00  0.00     0.056 C 
BRANCH   7   8
HETATM    8  C6  UNL     1      80.142   5.396  32.920  1.00  0.00     0.224 C 
HETATM    9  N1  UNL     1      80.893   6.600  33.188  1.00  0.00     0.092 N 
HETATM   10  C3  UNL     1      82.290   6.248  33.089  1.00  0.00     0.273 C 
HETATM   11  C4  UNL     1      82.384   4.739  33.162  1.00  0.00     0.032 C 
HETATM   12  C5  UNL     1      80.972   4.324  33.535  1.00  0.00     0.037 C 
BRANCH   9  13
HETATM   13  C2  UNL     1      80.654   7.128  34.512  1.00  0.00     0.268 C 
HETATM   14  C1  UNL     1      81.530   8.356  34.712  1.00  0.00     0.037 C 
ENDBRANCH   9  13
ENDBRANCH   7   8
ENDBRANCH   6   7
ENDBRANCH   1   6
BRANCH   2  15
HETATM   15  O1  UNL     1      77.766   8.090  30.049  1.00  0.00    -0.346 OA
ATOM     16  H1  UNL     1      77.465   8.939  29.745  1.00  0.00     0.219 HD
ENDBRANCH   2  15
BRANCH   5  17
HETATM   17  O3  UNL     1      78.969   3.713  28.547  1.00  0.00    -0.344 OA
ATOM     18  H3  UNL     1      78.515   3.015  28.089  1.00  0.00     0.219 HD
ENDBRANCH   5  17
BRANCH   4  19
HETATM   19  N3  UNL     1      78.489   5.425  26.059  1.00  0.00    -0.373 N 
HETATM   20  C12 UNL     1      79.696   4.758  25.546  1.00  0.00     0.149 C 
HETATM   21  C13 UNL     1      79.259   3.838  24.450  1.00  0.00     0.188 C 
HETATM   22  O2  UNL     1      78.794   4.555  23.351  1.00  0.00    -0.383 OA
HETATM   23  C14 UNL     1      78.212   5.762  23.725  1.00  0.00     0.135 C 
HETATM   24  C15 UNL     1      77.182   6.114  22.674  1.00  0.00     0.041 C 
HETATM   25  C16 UNL     1      77.459   5.649  25.054  1.00  0.00     0.154 C 
ENDBRANCH   4  19
TORSDOF 7
ENDMDL
MODEL 2
REMARK VINA RESULT: -7.666776276      0.957      1.401
REMARK  7 active torsions:
REMARK  status: ('A' for Active; 'I' for Inactive)
REMARK    1  A    between atoms: C2_2  and  N1_3 
REMARK    2  A    between atoms: C6_7  and  C7_8 
REMARK    3  A    between atoms: C7_8  and  C8_9 
REMARK    4  A    between atoms: C8_9  and  N2_10 
REMARK    5  A    between atoms: C9_11  and  O1_12 
REMARK    6  A    between atoms: C11_15  and  N3_16 
REMARK    7  A    between atoms: C17_23  and  O3_24 
ROOT
HETATM    1  N2  UNL     1      78.239   5.750  29.725  1.00  0.00    -0.307 N 
HETATM    2  C9  UNL     1      77.993   6.996  29.270  1.00  0.00     0.146 A 
HETATM    3  C10 UNL     1      78.079   7.026  27.900  1.00  0.00     0.089 A 
HETATM    4  C11 UNL     1      78.392   5.738  27.509  1.00  0.00     0.086 A 
HETATM    5  C17 UNL     1      78.483   4.981  28.648  1.00  0.00     0.171 A 
ENDROOT
BRANCH   1   6
HETATM    6  C8  UNL     1      78.228   5.365  31.120  1.00  0.00     0.135 C 
BRANCH   6   7
HETATM    7  C7  UNL     1      79.612   5.001  31.587  1.00  0.00     0.056 C 
BRANCH   7   8
HETATM    8  C6  UNL     1      80.405   6.194  32.047  1.00  0.00     0.224 C 
HETATM    9  N1  UNL     1      81.811   5.911  31.871  1.00  0.00     0.092 N 
HETATM   10  C3  UNL     1      82.249   5.233  33.068  1.00  0.00     0.273 C 
HETATM   11  C4  UNL     1      81.201   5.469  34.134  1.00  0.00     0.032 C 
HETATM   12  C5  UNL     1      80.291   6.505  33.498  1.00  0.00     0.037 C 
BRANCH   9  13
HETATM   13  C2  UNL     1      82.608   7.106  31.712  1.00  0.00     0.268 C 
HETATM   14  C1  UNL     1      82.181   7.810  30.434  1.00  0.00     0.037 C 
ENDBRANCH   9  13
ENDBRANCH   7   8
ENDBRANCH   6   7
ENDBRANCH   1   6
BRANCH   2  15
HETATM   15  O1  UNL     1      77.699   8.069  30.096  1.00  0.00    -0.346 OA
ATOM     16  H1  UNL     1      76.918   8.603  30.005  1.00  0.00     0.219 HD
ENDBRANCH   2  15
BRANCH   5  17
HETATM   17  O3  UNL     1      78.781   3.632  28.679  1.00  0.00    -0.344 OA
ATOM     18  H3  UNL     1      79.525   3.223  28.254  1.00  0.00     0.219 HD
ENDBRANCH   5  17
BRANCH   4  19
HETATM   19  N3  UNL     1      78.563   5.359  26.165  1.00  0.00    -0.373 N 
HETATM   20  C12 UNL     1      79.813   4.726  25.716  1.00  0.00     0.149 C 
HETATM   21  C13 UNL     1      79.456   3.783  24.609  1.00  0.00     0.188 C 
HETATM   22  O2  UNL     1      79.021   4.477  23.483  1.00  0.00    -0.383 OA
HETATM   23  C14 UNL     1      78.386   5.667  23.817  1.00  0.00     0.135 C 
HETATM   24  C15 UNL     1      77.396   5.978  22.715  1.00  0.00     0.041 C 
HETATM   25  C16 UNL     1      77.574   5.542  25.110  1.00  0.00     0.154 C 
ENDBRANCH   4  19
TORSDOF 7
ENDMDL
MODEL 3
REMARK VINA RESULT: -7.452060677      0.922      1.434
REMARK  7 active torsions:
REMARK  status: ('A' for Active; 'I' for Inactive)
REMARK    1  A    between atoms: C2_2  and  N1_3 
REMARK    2  A    between atoms: C6_7  and  C7_8 
REMARK    3  A    between atoms: C7_8  and  C8_9 
REMARK    4  A    between atoms: C8_9  and  N2_10 
REMARK    5  A    between atoms: C9_11  and  O1_12 
REMARK    6  A    between atoms: C11_15  and  N3_16 
REMARK    7  A    between atoms: C17_23  and  O3_24 
ROOT
HETATM    1  N2  UNL     1      78.256   5.810  29.722  1.00  0.00    -0.307 N 
HETATM    2  C9  UNL     1      77.976   7.046  29.259  1.00  0.00     0.146 A 
HETATM    3  C10 UNL     1      78.049   7.065  27.887  1.00  0.00     0.089 A 
HETATM    4  C11 UNL     1      78.389   5.782  27.505  1.00  0.00     0.086 A 
HETATM    5  C17 UNL     1      78.509   5.038  28.650  1.00  0.00     0.171 A 
ENDROOT
BRANCH   1   6
HETATM    6  C8  UNL     1      78.267   5.438  31.120  1.00  0.00     0.135 C 
BRANCH   6   7
HETATM    7  C7  UNL     1      79.470   6.011  31.820  1.00  0.00     0.056 C 
BRANCH   7   8
HETATM    8  C6  UNL     1      80.589   5.017  31.965  1.00  0.00     0.224 C 
HETATM    9  N1  UNL     1      81.201   5.194  33.261  1.00  0.00     0.092 N 
HETATM   10  C3  UNL     1      82.209   6.216  33.107  1.00  0.00     0.273 C 
HETATM   11  C4  UNL     1      82.481   6.366  31.625  1.00  0.00     0.032 C 
HETATM   12  C5  UNL     1      81.722   5.200  31.017  1.00  0.00     0.037 C 
BRANCH   9  13
HETATM   13  C2  UNL     1      81.846   3.995  33.747  1.00  0.00     0.268 C 
HETATM   14  C1  UNL     1      83.058   4.395  34.575  1.00  0.00     0.037 C 
ENDBRANCH   9  13
ENDBRANCH   7   8
ENDBRANCH   6   7
ENDBRANCH   1   6
BRANCH   2  15
HETATM   15  O1  UNL     1      77.664   8.119  30.078  1.00  0.00    -0.346 OA
ATOM     16  H1  UNL     1      77.405   8.027  30.988  1.00  0.00     0.219 HD
ENDBRANCH   2  15
BRANCH   5  17
HETATM   17  O3  UNL     1      78.838   3.696  28.690  1.00  0.00    -0.344 OA
ATOM     18  H3  UNL     1      78.252   2.993  28.941  1.00  0.00     0.219 HD
ENDBRANCH   5  17
BRANCH   4  19
HETATM   19  N3  UNL     1      78.557   5.395  26.163  1.00  0.00    -0.373 N 
HETATM   20  C12 UNL     1      79.812   4.775  25.711  1.00  0.00     0.149 C 
HETATM   21  C13 UNL     1      79.461   3.819  24.614  1.00  0.00     0.188 C 
HETATM   22  O2  UNL     1      79.011   4.498  23.485  1.00  0.00    -0.383 OA
HETATM   23  C14 UNL     1      78.363   5.683  23.814  1.00  0.00     0.135 C 
HETATM   24  C15 UNL     1      77.362   5.972  22.716  1.00  0.00     0.041 C 
HETATM   25  C16 UNL     1      77.560   5.557  25.113  1.00  0.00     0.154 C 
ENDBRANCH   4  19
TORSDOF 7
ENDMDL
MODEL 4
REMARK VINA RESULT: -7.405386075      1.239      1.292
REMARK  7 active torsions:
REMARK  status: ('A' for Active; 'I' for Inactive)
REMARK    1  A    between atoms: C2_2  and  N1_3 
REMARK    2  A    between atoms: C6_7  and  C7_8 
REMARK    3  A    between atoms: C7_8  and  C8_9 
REMARK    4  A    between atoms: C8_9  and  N2_10 
REMARK    5  A    between atoms: C9_11  and  O1_12 
REMARK    6  A    between atoms: C11_15  and  N3_16 
REMARK    7  A    between atoms: C17_23  and  O3_24 
ROOT
HETATM    1  N2  UNL     1      79.675   5.692  30.096  1.00  0.00    -0.307 N 
HETATM    2  C9  UNL     1      80.337   6.766  29.617  1.00  0.00     0.146 A 
HETATM    3  C10 UNL     1      80.287   6.781  28.245  1.00  0.00     0.089 A 
HETATM    4  C11 UNL     1      79.561   5.665  27.877  1.00  0.00     0.086 A 
HETATM    5  C17 UNL     1      79.200   5.019  29.032  1.00  0.00     0.171 A 
ENDROOT
BRANCH   1   6
HETATM    6  C8  UNL     1      79.530   5.372  31.499  1.00  0.00     0.135 C 
BRANCH   6   7
HETATM    7  C7  UNL     1      80.721   4.601  32.000  1.00  0.00     0.056 C 
BRANCH   7   8
HETATM    8  C6  UNL     1      81.038   4.888  33.442  1.00  0.00     0.224 C 
HETATM    9  N1  UNL     1      81.324   6.297  33.582  1.00  0.00     0.092 N 
HETATM   10  C3  UNL     1      82.730   6.463  33.302  1.00  0.00     0.273 C 
HETATM   11  C4  UNL     1      83.376   5.097  33.391  1.00  0.00     0.032 C 
HETATM   12  C5  UNL     1      82.268   4.229  33.961  1.00  0.00     0.037 C 
BRANCH   9  13
HETATM   13  C2  UNL     1      81.068   6.792  34.915  1.00  0.00     0.268 C 
HETATM   14  C1  UNL     1      81.394   8.277  34.954  1.00  0.00     0.037 C 
ENDBRANCH   9  13
ENDBRANCH   7   8
ENDBRANCH   6   7
ENDBRANCH   1   6
BRANCH   2  15
HETATM   15  O1  UNL     1      80.967   7.700  30.424  1.00  0.00    -0.346 OA
ATOM     16  H1  UNL     1      81.773   7.527  30.896  1.00  0.00     0.219 HD
ENDBRANCH   2  15
BRANCH   5  17
HETATM   17  O3  UNL     1      78.460   3.853  29.087  1.00  0.00    -0.344 OA
ATOM     18  H3  UNL     1      78.820   2.976  29.141  1.00  0.00     0.219 HD
ENDBRANCH   5  17
BRANCH   4  19
HETATM   19  N3  UNL     1      79.284   5.330  26.539  1.00  0.00    -0.373 N 
HETATM   20  C12 UNL     1      80.323   4.737  25.683  1.00  0.00     0.149 C 
HETATM   21  C13 UNL     1      79.632   3.819  24.723  1.00  0.00     0.188 C 
HETATM   22  O2  UNL     1      78.845   4.537  23.826  1.00  0.00    -0.383 OA
HETATM   23  C14 UNL     1      78.342   5.703  24.391  1.00  0.00     0.135 C 
HETATM   24  C15 UNL     1      77.041   6.025  23.687  1.00  0.00     0.041 C 
HETATM   25  C16 UNL     1      78.002   5.522  25.875  1.00  0.00     0.154 C 
ENDBRANCH   4  19
TORSDOF 7
ENDMDL
MODEL 5
REMARK VINA RESULT: -7.355638958      1.533      1.950
REMARK  7 active torsions:
REMARK  status: ('A' for Active; 'I' for Inactive)
REMARK    1  A    between atoms: C2_2  and  N1_3 
REMARK    2  A    between atoms: C6_7  and  C7_8 
REMARK    3  A    between atoms: C7_8  and  C8_9 
REMARK    4  A    between atoms: C8_9  and  N2_10 
REMARK    5  A    between atoms: C9_11  and  O1_12 
REMARK    6  A    between atoms: C11_15  and  N3_16 
REMARK    7  A    between atoms: C17_23  and  O3_24 
ROOT
HETATM    1  N2  UNL     1      79.869   5.786  29.736  1.00  0.00    -0.307 N 
HETATM    2  C9  UNL     1      80.350   6.932  29.212  1.00  0.00     0.146 A 
HETATM    3  C10 UNL     1      80.175   6.940  27.850  1.00  0.00     0.089 A 
HETATM    4  C11 UNL     1      79.560   5.744  27.536  1.00  0.00     0.086 A 
HETATM    5  C17 UNL     1      79.387   5.059  28.711  1.00  0.00     0.171 A 
ENDROOT
BRANCH   1   6
HETATM    6  C8  UNL     1      79.891   5.450  31.143  1.00  0.00     0.135 C 
BRANCH   6   7
HETATM    7  C7  UNL     1      81.247   4.942  31.554  1.00  0.00     0.056 C 
BRANCH   7   8
HETATM    8  C6  UNL     1      81.923   5.832  32.560  1.00  0.00     0.224 C 
HETATM    9  N1  UNL     1      83.208   5.261  32.894  1.00  0.00     0.092 N 
HETATM   10  C3  UNL     1      82.978   4.322  33.966  1.00  0.00     0.273 C 
HETATM   11  C4  UNL     1      81.616   4.627  34.552  1.00  0.00     0.032 C 
HETATM   12  C5  UNL     1      81.235   5.932  33.876  1.00  0.00     0.037 C 
BRANCH   9  13
HETATM   13  C2  UNL     1      84.158   6.248  33.354  1.00  0.00     0.268 C 
HETATM   14  C1  UNL     1      85.231   5.545  34.172  1.00  0.00     0.037 C 
ENDBRANCH   9  13
ENDBRANCH   7   8
ENDBRANCH   6   7
ENDBRANCH   1   6
BRANCH   2  15
HETATM   15  O1  UNL     1      80.931   7.936  29.970  1.00  0.00    -0.346 OA
ATOM     16  H1  UNL     1      80.727   8.088  30.885  1.00  0.00     0.219 HD
ENDBRANCH   2  15
BRANCH   5  17
HETATM   17  O3  UNL     1      78.802   3.811  28.820  1.00  0.00    -0.344 OA
ATOM     18  H3  UNL     1      78.072   3.594  29.386  1.00  0.00     0.219 HD
ENDBRANCH   5  17
BRANCH   4  19
HETATM   19  N3  UNL     1      79.208   5.377  26.225  1.00  0.00    -0.373 N 
HETATM   20  C12 UNL     1      80.164   4.669  25.359  1.00  0.00     0.149 C 
HETATM   21  C13 UNL     1      79.368   3.771  24.465  1.00  0.00     0.188 C 
HETATM   22  O2  UNL     1      78.605   4.511  23.566  1.00  0.00    -0.383 OA
HETATM   23  C14 UNL     1      78.216   5.735  24.097  1.00  0.00     0.135 C 
HETATM   24  C15 UNL     1      76.918   6.130  23.425  1.00  0.00     0.041 C 
HETATM   25  C16 UNL     1      77.920   5.643  25.598  1.00  0.00     0.154 C 
ENDBRANCH   4  19
TORSDOF 7
ENDMDL
