MODEL 1
REMARK VINA RESULT: -8.623284887      0.000      0.000
REMARK  6 active torsions:
REMARK  status: ('A' for Active; 'I' for Inactive)
REMARK    1  A    between atoms: C2_2  and  C3_3 
REMARK    2  A    between atoms: C4_7  and  C5_8 
REMARK    3  A    between atoms: C5_8  and  C6_9 
REMARK    4  A    between atoms: C6_9  and  N2_10 
REMARK    5  A    between atoms: N2_10  and  C7_12 
REMARK    6  A    between atoms: C9_18  and  C10_19 
ROOT
HETATM    1  C7  UNL     1      79.211   4.907  27.572  1.00  0.00     0.680 A 
HETATM    2  N3  UNL     1      78.043   5.263  27.043  1.00  0.00    -0.174 N 
ATOM      3  H3  UNL     1      77.235   5.416  27.646  1.00  0.00     0.186 HD
HETATM    4  C8  UNL     1      77.929   5.422  25.715  1.00  0.00     0.151 A 
HETATM    5  N4  UNL     1      76.894   5.767  24.951  1.00  0.00    -0.329 N 
ATOM      6  H4  UNL     1      75.960   5.977  25.303  1.00  0.00     0.168 HD
HETATM    7  C9  UNL     1      77.246   5.802  23.653  1.00  0.00     0.087 A 
HETATM    8  N5  UNL     1      78.538   5.469  23.604  1.00  0.00    -0.341 N 
ATOM      9  H5  UNL     1      79.097   5.406  22.753  1.00  0.00     0.167 HD
HETATM   10  C14 UNL     1      78.991   5.229  24.849  1.00  0.00     0.101 A 
HETATM   11  C15 UNL     1      80.190   4.861  25.417  1.00  0.00     0.053 A 
HETATM   12  C16 UNL     1      81.341   4.647  24.530  1.00  0.00     0.071 C 
HETATM   13  N6  UNL     1      80.250   4.714  26.766  1.00  0.00    -0.194 N 
ATOM     14  H6  UNL     1      81.140   4.441  27.183  1.00  0.00     0.184 HD
ENDROOT
BRANCH   1  15
HETATM   15  N2  UNL     1      79.330   4.753  28.837  1.00  0.00    -0.226 N 
ATOM     16  H2  UNL     1      79.809   3.924  29.187  1.00  0.00     0.177 HD
BRANCH  15  17
HETATM   17  C6  UNL     1      78.810   5.713  29.793  1.00  0.00     0.146 C 
BRANCH  17  18
HETATM   18  C5  UNL     1      78.477   5.000  31.085  1.00  0.00     0.107 C 
BRANCH  18  19
HETATM   19  C4  UNL     1      79.301   5.560  32.215  1.00  0.00     0.149 A 
HETATM   20  O1  UNL     1      79.244   6.758  32.740  1.00  0.00    -0.223 OA
HETATM   21  N1  UNL     1      80.115   6.877  33.704  1.00  0.00    -0.247 N 
HETATM   22  C3  UNL     1      80.775   5.711  33.824  1.00  0.00     0.103 A 
ATOM     23  H1  UNL     1      80.269   7.711  34.270  1.00  0.00     0.196 HD
HETATM   24  N7  UNL     1      80.258   4.903  32.892  1.00  0.00    -0.327 N 
ATOM     25  H7  UNL     1      80.545   3.939  32.723  1.00  0.00     0.169 HD
BRANCH  22  26
HETATM   26  C2  UNL     1      81.866   5.410  34.813  1.00  0.00     0.074 C 
HETATM   27  C1  UNL     1      82.766   4.350  34.270  1.00  0.00     0.013 C 
ENDBRANCH  22  26
ENDBRANCH  18  19
ENDBRANCH  17  18
ENDBRANCH  15  17
ENDBRANCH   1  15
BRANCH   7  28
HETATM   28  C10 UNL     1      76.301   6.153  22.579  1.00  0.00     0.053 C 
HETATM   29  C11 UNL     1      74.965   5.458  22.626  1.00  0.00     0.012 C 
HETATM   30  C12 UNL     1      74.351   6.774  22.126  1.00  0.00     0.002 C 
HETATM   31  C13 UNL     1      75.556   7.465  22.779  1.00  0.00     0.012 C 
ENDBRANCH   7  28
TORSDOF 6
ENDMDL
MODEL 2
REMARK VINA RESULT: -8.566879257      1.137      1.268
REMARK  6 active torsions:
REMARK  status: ('A' for Active; 'I' for Inactive)
REMARK    1  A    between atoms: C2_2  and  C3_3 
REMARK    2  A    between atoms: C4_7  and  C5_8 
REMARK    3  A    between atoms: C5_8  and  C6_9 
REMARK    4  A    between atoms: C6_9  and  N2_10 
REMARK    5  A    between atoms: N2_10  and  C7_12 
REMARK    6  A    between atoms: C9_18  and  C10_19 
ROOT
HETATM    1  C7  UNL     1      79.177   5.101  27.903  1.00  0.00     0.680 A 
HETATM    2  N3  UNL     1      78.211   4.708  27.076  1.00  0.00    -0.174 N 
ATOM      3  H3  UNL     1      77.654   3.883  27.298  1.00  0.00     0.186 HD
HETATM    4  C8  UNL     1      77.968   5.398  25.951  1.00  0.00     0.151 A 
HETATM    5  N4  UNL     1      77.078   5.218  24.977  1.00  0.00    -0.329 N 
ATOM      6  H4  UNL     1      76.395   4.462  24.951  1.00  0.00     0.168 HD
HETATM    7  C9  UNL     1      77.199   6.169  24.033  1.00  0.00     0.087 A 
HETATM    8  N5  UNL     1      78.195   6.967  24.428  1.00  0.00    -0.341 N 
ATOM      9  H5  UNL     1      78.529   7.785  23.920  1.00  0.00     0.167 HD
HETATM   10  C14 UNL     1      78.691   6.525  25.599  1.00  0.00     0.101 A 
HETATM   11  C15 UNL     1      79.685   6.915  26.469  1.00  0.00     0.053 A 
HETATM   12  C16 UNL     1      80.474   8.108  26.130  1.00  0.00     0.071 C 
HETATM   13  N6  UNL     1      79.888   6.180  27.593  1.00  0.00    -0.194 N 
ATOM     14  H6  UNL     1      80.626   6.473  28.233  1.00  0.00     0.184 HD
ENDROOT
BRANCH   1  15
HETATM   15  N2  UNL     1      79.416   4.450  28.978  1.00  0.00    -0.226 N 
ATOM     16  H2  UNL     1      80.325   4.002  29.088  1.00  0.00     0.177 HD
BRANCH  15  17
HETATM   17  C6  UNL     1      78.442   4.325  30.047  1.00  0.00     0.146 C 
BRANCH  17  18
HETATM   18  C5  UNL     1      78.282   5.664  30.735  1.00  0.00     0.107 C 
BRANCH  18  19
HETATM   19  C4  UNL     1      79.215   5.758  31.914  1.00  0.00     0.149 A 
HETATM   20  O1  UNL     1      79.418   6.782  32.704  1.00  0.00    -0.223 OA
HETATM   21  N1  UNL     1      80.302   6.487  33.617  1.00  0.00    -0.247 N 
HETATM   22  C3  UNL     1      80.702   5.218  33.425  1.00  0.00     0.103 A 
ATOM     23  H1  UNL     1      80.634   7.113  34.351  1.00  0.00     0.196 HD
HETATM   24  N7  UNL     1      80.018   4.778  32.363  1.00  0.00    -0.327 N 
ATOM     25  H7  UNL     1      80.093   3.844  31.958  1.00  0.00     0.169 HD
BRANCH  22  26
HETATM   26  C2  UNL     1      81.712   4.474  34.252  1.00  0.00     0.074 C 
HETATM   27  C1  UNL     1      82.044   5.260  35.478  1.00  0.00     0.013 C 
ENDBRANCH  22  26
ENDBRANCH  18  19
ENDBRANCH  17  18
ENDBRANCH  15  17
ENDBRANCH   1  15
BRANCH   7  28
HETATM   28  C10 UNL     1      76.343   6.220  22.836  1.00  0.00     0.053 C 
HETATM   29  C11 UNL     1      75.064   5.426  22.908  1.00  0.00     0.012 C 
HETATM   30  C12 UNL     1      74.407   6.560  22.108  1.00  0.00     0.002 C 
HETATM   31  C13 UNL     1      75.486   7.471  22.709  1.00  0.00     0.012 C 
ENDBRANCH   7  28
TORSDOF 6
ENDMDL
MODEL 3
REMARK VINA RESULT: -8.542897366      2.303      8.765
REMARK  6 active torsions:
REMARK  status: ('A' for Active; 'I' for Inactive)
REMARK    1  A    between atoms: C2_2  and  C3_3 
REMARK    2  A    between atoms: C4_7  and  C5_8 
REMARK    3  A    between atoms: C5_8  and  C6_9 
REMARK    4  A    between atoms: C6_9  and  N2_10 
REMARK    5  A    between atoms: N2_10  and  C7_12 
REMARK    6  A    between atoms: C9_18  and  C10_19 
ROOT
HETATM    1  C7  UNL     1      81.135   5.838  27.195  1.00  0.00     0.680 A 
HETATM    2  N3  UNL     1      81.584   5.240  28.296  1.00  0.00    -0.174 N 
ATOM      3  H3  UNL     1      82.398   4.627  28.248  1.00  0.00     0.186 HD
HETATM    4  C8  UNL     1      80.966   5.443  29.470  1.00  0.00     0.151 A 
HETATM    5  N4  UNL     1      81.211   4.974  30.692  1.00  0.00    -0.329 N 
ATOM      6  H4  UNL     1      81.973   4.337  30.924  1.00  0.00     0.168 HD
HETATM    7  C9  UNL     1      80.320   5.454  31.578  1.00  0.00     0.087 A 
HETATM    8  N5  UNL     1      79.493   6.245  30.891  1.00  0.00    -0.341 N 
ATOM      9  H5  UNL     1      78.706   6.758  31.287  1.00  0.00     0.167 HD
HETATM   10  C14 UNL     1      79.859   6.263  29.595  1.00  0.00     0.101 A 
HETATM   11  C15 UNL     1      79.410   6.873  28.444  1.00  0.00     0.053 A 
HETATM   12  C16 UNL     1      78.237   7.752  28.536  1.00  0.00     0.071 C 
HETATM   13  N6  UNL     1      80.073   6.632  27.282  1.00  0.00    -0.194 N 
ATOM     14  H6  UNL     1      79.737   7.085  26.433  1.00  0.00     0.184 HD
ENDROOT
BRANCH   1  15
HETATM   15  N2  UNL     1      81.717   5.650  26.071  1.00  0.00    -0.226 N 
ATOM     16  H2  UNL     1      82.736   5.638  26.042  1.00  0.00     0.177 HD
BRANCH  15  17
HETATM   17  C6  UNL     1      80.982   5.454  24.835  1.00  0.00     0.146 C 
BRANCH  17  18
HETATM   18  C5  UNL     1      80.055   4.268  24.989  1.00  0.00     0.107 C 
BRANCH  18  19
HETATM   19  C4  UNL     1      78.643   4.663  24.642  1.00  0.00     0.149 A 
HETATM   20  O1  UNL     1      77.536   4.016  24.904  1.00  0.00    -0.223 OA
HETATM   21  N1  UNL     1      76.504   4.671  24.446  1.00  0.00    -0.247 N 
HETATM   22  C3  UNL     1      76.945   5.796  23.856  1.00  0.00     0.103 A 
ATOM     23  H1  UNL     1      75.530   4.378  24.521  1.00  0.00     0.196 HD
HETATM   24  N7  UNL     1      78.276   5.778  23.987  1.00  0.00    -0.327 N 
ATOM     25  H7  UNL     1      78.912   6.497  23.642  1.00  0.00     0.169 HD
BRANCH  22  26
HETATM   26  C2  UNL     1      76.091   6.841  23.196  1.00  0.00     0.074 C 
HETATM   27  C1  UNL     1      74.953   6.191  22.480  1.00  0.00     0.013 C 
ENDBRANCH  22  26
ENDBRANCH  18  19
ENDBRANCH  17  18
ENDBRANCH  15  17
ENDBRANCH   1  15
BRANCH   7  28
HETATM   28  C10 UNL     1      80.348   5.102  33.008  1.00  0.00     0.053 C 
HETATM   29  C11 UNL     1      81.509   4.251  33.453  1.00  0.00     0.012 C 
HETATM   30  C12 UNL     1      81.503   5.063  34.757  1.00  0.00     0.002 C 
HETATM   31  C13 UNL     1      80.875   6.193  33.930  1.00  0.00     0.012 C 
ENDBRANCH   7  28
TORSDOF 6
ENDMDL
MODEL 4
REMARK VINA RESULT: -8.509890041      2.525      9.250
REMARK  6 active torsions:
REMARK  status: ('A' for Active; 'I' for Inactive)
REMARK    1  A    between atoms: C2_2  and  C3_3 
REMARK    2  A    between atoms: C4_7  and  C5_8 
REMARK    3  A    between atoms: C5_8  and  C6_9 
REMARK    4  A    between atoms: C6_9  and  N2_10 
REMARK    5  A    between atoms: N2_10  and  C7_12 
REMARK    6  A    between atoms: C9_18  and  C10_19 
ROOT
HETATM    1  C7  UNL     1      79.277   4.720  27.203  1.00  0.00     0.680 A 
HETATM    2  N3  UNL     1      78.781   4.515  28.421  1.00  0.00    -0.174 N 
ATOM      3  H3  UNL     1      77.876   4.059  28.533  1.00  0.00     0.186 HD
HETATM    4  C8  UNL     1      79.473   4.906  29.502  1.00  0.00     0.151 A 
HETATM    5  N4  UNL     1      79.206   4.819  30.804  1.00  0.00    -0.329 N 
ATOM      6  H4  UNL     1      78.359   4.404  31.193  1.00  0.00     0.168 HD
HETATM    7  C9  UNL     1      80.201   5.351  31.536  1.00  0.00     0.087 A 
HETATM    8  N5  UNL     1      81.117   5.784  30.667  1.00  0.00    -0.341 N 
ATOM      9  H5  UNL     1      81.995   6.239  30.917  1.00  0.00     0.167 HD
HETATM   10  C14 UNL     1      80.706   5.529  29.411  1.00  0.00     0.101 A 
HETATM   11  C15 UNL     1      81.201   5.732  28.142  1.00  0.00     0.053 A 
HETATM   12  C16 UNL     1      82.508   6.389  28.004  1.00  0.00     0.071 C 
HETATM   13  N6  UNL     1      80.459   5.316  27.082  1.00  0.00    -0.194 N 
ATOM     14  H6  UNL     1      80.830   5.469  26.145  1.00  0.00     0.184 HD
ENDROOT
BRANCH   1  15
HETATM   15  N2  UNL     1      78.625   4.351  26.166  1.00  0.00    -0.226 N 
ATOM     16  H2  UNL     1      77.980   3.566  26.246  1.00  0.00     0.177 HD
BRANCH  15  17
HETATM   17  C6  UNL     1      78.771   5.006  24.879  1.00  0.00     0.146 C 
BRANCH  17  18
HETATM   18  C5  UNL     1      77.795   6.160  24.794  1.00  0.00     0.107 C 
BRANCH  18  19
HETATM   19  C4  UNL     1      76.631   5.793  23.912  1.00  0.00     0.149 A 
HETATM   20  O1  UNL     1      75.854   4.743  23.994  1.00  0.00    -0.223 OA
HETATM   21  N1  UNL     1      74.951   4.766  23.052  1.00  0.00    -0.247 N 
HETATM   22  C3  UNL     1      75.137   5.876  22.316  1.00  0.00     0.103 A 
ATOM     23  H1  UNL     1      74.228   4.063  22.900  1.00  0.00     0.196 HD
HETATM   24  N7  UNL     1      76.184   6.504  22.862  1.00  0.00    -0.327 N 
ATOM     25  H7  UNL     1      76.580   7.385  22.534  1.00  0.00     0.169 HD
BRANCH  22  26
HETATM   26  C2  UNL     1      74.317   6.298  21.129  1.00  0.00     0.074 C 
HETATM   27  C1  UNL     1      73.592   7.567  21.436  1.00  0.00     0.013 C 
ENDBRANCH  22  26
ENDBRANCH  18  19
ENDBRANCH  17  18
ENDBRANCH  15  17
ENDBRANCH   1  15
BRANCH   7  28
HETATM   28  C10 UNL     1      80.174   5.393  33.008  1.00  0.00     0.053 C 
HETATM   29  C11 UNL     1      81.324   4.715  33.706  1.00  0.00     0.012 C 
HETATM   30  C12 UNL     1      81.257   5.844  34.745  1.00  0.00     0.002 C 
HETATM   31  C13 UNL     1      80.653   6.701  33.624  1.00  0.00     0.012 C 
ENDBRANCH   7  28
TORSDOF 6
ENDMDL
MODEL 5
REMARK VINA RESULT: -8.482379727      1.514      1.851
REMARK  6 active torsions:
REMARK  status: ('A' for Active; 'I' for Inactive)
REMARK    1  A    between atoms: C2_2  and  C3_3 
REMARK    2  A    between atoms: C4_7  and  C5_8 
REMARK    3  A    between atoms: C5_8  and  C6_9 
REMARK    4  A    between atoms: C6_9  and  N2_10 
REMARK    5  A    between atoms: N2_10  and  C7_12 
REMARK    6  A    between atoms: C9_18  and  C10_19 
ROOT
HETATM    1  C7  UNL     1      79.282   5.302  28.469  1.00  0.00     0.680 A 
HETATM    2  N3  UNL     1      78.392   4.847  27.590  1.00  0.00    -0.174 N 
ATOM      3  H3  UNL     1      77.863   3.999  27.793  1.00  0.00     0.186 HD
HETATM    4  C8  UNL     1      78.190   5.504  26.438  1.00  0.00     0.151 A 
HETATM    5  N4  UNL     1      77.374   5.263  25.413  1.00  0.00    -0.329 N 
ATOM      6  H4  UNL     1      76.732   4.473  25.359  1.00  0.00     0.168 HD
HETATM    7  C9  UNL     1      77.511   6.202  24.459  1.00  0.00     0.087 A 
HETATM    8  N5  UNL     1      78.438   7.055  24.900  1.00  0.00    -0.341 N 
ATOM      9  H5  UNL     1      78.765   7.880  24.397  1.00  0.00     0.167 HD
HETATM   10  C14 UNL     1      78.878   6.659  26.110  1.00  0.00     0.101 A 
HETATM   11  C15 UNL     1      79.794   7.113  27.033  1.00  0.00     0.053 A 
HETATM   12  C16 UNL     1      80.544   8.338  26.720  1.00  0.00     0.071 C 
HETATM   13  N6  UNL     1      79.959   6.410  28.183  1.00  0.00    -0.194 N 
ATOM     14  H6  UNL     1      80.638   6.749  28.863  1.00  0.00     0.184 HD
ENDROOT
BRANCH   1  15
HETATM   15  N2  UNL     1      79.482   4.683  29.571  1.00  0.00    -0.226 N 
ATOM     16  H2  UNL     1      80.333   4.131  29.676  1.00  0.00     0.177 HD
BRANCH  15  17
HETATM   17  C6  UNL     1      78.543   4.735  30.676  1.00  0.00     0.146 C 
BRANCH  17  18
HETATM   18  C5  UNL     1      78.999   5.784  31.667  1.00  0.00     0.107 C 
BRANCH  18  19
HETATM   19  C4  UNL     1      80.002   5.195  32.624  1.00  0.00     0.149 A 
HETATM   20  O1  UNL     1      80.534   3.999  32.602  1.00  0.00    -0.223 OA
HETATM   21  N1  UNL     1      81.365   3.849  33.597  1.00  0.00    -0.247 N 
HETATM   22  C3  UNL     1      81.384   4.990  34.307  1.00  0.00     0.103 A 
ATOM     23  H1  UNL     1      81.907   3.009  33.801  1.00  0.00     0.196 HD
HETATM   24  N7  UNL     1      80.532   5.817  33.691  1.00  0.00    -0.327 N 
ATOM     25  H7  UNL     1      80.319   6.771  33.984  1.00  0.00     0.169 HD
BRANCH  22  26
HETATM   26  C2  UNL     1      82.206   5.252  35.538  1.00  0.00     0.074 C 
HETATM   27  C1  UNL     1      81.813   6.561  36.143  1.00  0.00     0.013 C 
ENDBRANCH  22  26
ENDBRANCH  18  19
ENDBRANCH  17  18
ENDBRANCH  15  17
ENDBRANCH   1  15
BRANCH   7  28
HETATM   28  C10 UNL     1      76.733   6.189  23.208  1.00  0.00     0.053 C 
HETATM   29  C11 UNL     1      75.486   5.342  23.219  1.00  0.00     0.012 C 
HETATM   30  C12 UNL     1      74.836   6.428  22.350  1.00  0.00     0.002 C 
HETATM   31  C13 UNL     1      75.834   7.399  22.996  1.00  0.00     0.012 C 
ENDBRANCH   7  28
TORSDOF 6
ENDMDL
