MODEL 1
REMARK VINA RESULT: -6.264072832      0.000      0.000
REMARK  6 active torsions:
REMARK  status: ('A' for Active; 'I' for Inactive)
REMARK    1  A    between atoms: C2_2  and  C4_4 
REMARK    2  A    between atoms: C4_4  and  C5_5 
REMARK    3  A    between atoms: C5_5  and  N1_6 
REMARK    4  A    between atoms: N3_13  and  C10_14 
REMARK    5  A    between atoms: C10_14  and  C11_15 
REMARK    6  A    between atoms: C11_15  and  O1_16 
ROOT
HETATM    1  N1  UNL     1      81.873   5.815  32.010  1.00  0.00    -0.345 N 
HETATM    2  C6  UNL     1      80.783   5.596  31.214  1.00  0.00     0.022 A 
HETATM    3  C7  UNL     1      81.217   5.435  29.930  1.00  0.00    -0.005 A 
HETATM    4  C8  UNL     1      82.599   5.559  29.944  1.00  0.00     0.071 A 
HETATM    5  N2  UNL     1      83.547   5.495  28.993  1.00  0.00    -0.350 N 
ATOM      6  H2  UNL     1      83.248   5.320  28.033  1.00  0.00     0.166 HD
HETATM    7  C9  UNL     1      84.861   5.644  29.224  1.00  0.00     0.184 A 
HETATM    8  N3  UNL     1      85.217   5.873  30.498  1.00  0.00    -0.330 N 
HETATM    9  C12 UNL     1      84.323   5.951  31.507  1.00  0.00     0.133 A 
HETATM   10  S1  UNL     1      84.882   6.226  33.009  1.00  0.00    -0.058 SA
HETATM   11  C13 UNL     1      82.973   5.795  31.255  1.00  0.00     0.101 A 
HETATM   12  C14 UNL     1      80.530   5.181  28.669  1.00  0.00     0.070 C 
HETATM   13  C15 UNL     1      79.048   5.139  28.710  1.00  0.00     0.237 C 
HETATM   14  N4  UNL     1      78.664   4.307  29.824  1.00  0.00    -0.074 N 
ATOM     15  H41 UNL     1      79.371   3.614  30.068  1.00  0.00     0.277 HD
ATOM     16  H42 UNL     1      77.915   3.654  29.596  1.00  0.00     0.277 HD
HETATM   17  C16 UNL     1      78.338   5.177  30.905  1.00  0.00     0.238 C 
HETATM   18  C17 UNL     1      79.450   5.562  31.799  1.00  0.00     0.085 C 
ENDROOT
BRANCH   1  19
HETATM   19  C5  UNL     1      81.866   6.045  33.443  1.00  0.00     0.129 C 
BRANCH  19  20
HETATM   20  C4  UNL     1      81.841   4.786  34.264  1.00  0.00     0.024 C 
BRANCH  20  21
HETATM   21  C2  UNL     1      81.945   5.227  35.725  1.00  0.00    -0.021 C 
HETATM   22  C1  UNL     1      81.610   6.705  35.743  1.00  0.00     0.009 C 
HETATM   23  C3  UNL     1      83.327   4.953  36.275  1.00  0.00     0.009 C 
ENDBRANCH  20  21
ENDBRANCH  19  20
ENDBRANCH   1  19
BRANCH   8  24
HETATM   24  C10 UNL     1      86.638   6.042  30.798  1.00  0.00     0.156 C 
BRANCH  24  25
HETATM   25  C11 UNL     1      87.436   5.819  29.516  1.00  0.00     0.184 C 
BRANCH  25  26
HETATM   26  O1  UNL     1      88.319   4.783  29.691  1.00  0.00    -0.399 OA
ATOM     27  H1  UNL     1      88.773   4.605  28.876  1.00  0.00     0.209 HD
ENDBRANCH  25  26
ENDBRANCH  24  25
ENDBRANCH   8  24
TORSDOF 6
ENDMDL
MODEL 2
REMARK VINA RESULT: -6.217189033      3.964      6.303
REMARK  6 active torsions:
REMARK  status: ('A' for Active; 'I' for Inactive)
REMARK    1  A    between atoms: C2_2  and  C4_4 
REMARK    2  A    between atoms: C4_4  and  C5_5 
REMARK    3  A    between atoms: C5_5  and  N1_6 
REMARK    4  A    between atoms: N3_13  and  C10_14 
REMARK    5  A    between atoms: C10_14  and  C11_15 
REMARK    6  A    between atoms: C11_15  and  O1_16 
ROOT
HETATM    1  N1  UNL     1      81.732   6.262  28.912  1.00  0.00    -0.345 N 
HETATM    2  C6  UNL     1      82.959   6.774  28.590  1.00  0.00     0.022 A 
HETATM    3  C7  UNL     1      83.165   6.584  27.254  1.00  0.00    -0.005 A 
HETATM    4  C8  UNL     1      82.040   5.944  26.752  1.00  0.00     0.071 A 
HETATM    5  N2  UNL     1      81.685   5.514  25.529  1.00  0.00    -0.350 N 
ATOM      6  H2  UNL     1      82.342   5.661  24.763  1.00  0.00     0.166 HD
HETATM    7  C9  UNL     1      80.522   4.905  25.249  1.00  0.00     0.184 A 
HETATM    8  N3  UNL     1      79.682   4.729  26.282  1.00  0.00    -0.330 N 
HETATM    9  C12 UNL     1      79.968   5.133  27.538  1.00  0.00     0.133 A 
HETATM   10  S1  UNL     1      78.863   4.867  28.701  1.00  0.00    -0.058 SA
HETATM   11  C13 UNL     1      81.170   5.759  27.811  1.00  0.00     0.101 A 
HETATM   12  C14 UNL     1      84.266   6.913  26.358  1.00  0.00     0.070 C 
HETATM   13  C15 UNL     1      85.470   7.523  26.971  1.00  0.00     0.237 C 
HETATM   14  N4  UNL     1      85.027   8.579  27.849  1.00  0.00    -0.074 N 
ATOM     15  H41 UNL     1      84.127   8.974  27.576  1.00  0.00     0.277 HD
ATOM     16  H42 UNL     1      85.577   9.433  27.758  1.00  0.00     0.277 HD
HETATM   17  C16 UNL     1      85.027   8.052  29.173  1.00  0.00     0.238 C 
HETATM   18  C17 UNL     1      83.782   7.393  29.619  1.00  0.00     0.085 C 
ENDROOT
BRANCH   1  19
HETATM   19  C5  UNL     1      81.119   6.245  30.227  1.00  0.00     0.129 C 
BRANCH  19  20
HETATM   20  C4  UNL     1      81.695   5.215  31.158  1.00  0.00     0.024 C 
BRANCH  20  21
HETATM   21  C2  UNL     1      80.564   4.815  32.106  1.00  0.00    -0.021 C 
HETATM   22  C1  UNL     1      79.866   6.104  32.494  1.00  0.00     0.009 C 
HETATM   23  C3  UNL     1      81.104   4.079  33.311  1.00  0.00     0.009 C 
ENDBRANCH  20  21
ENDBRANCH  19  20
ENDBRANCH   1  19
BRANCH   8  24
HETATM   24  C10 UNL     1      78.402   4.070  26.026  1.00  0.00     0.156 C 
BRANCH  24  25
HETATM   25  C11 UNL     1      77.607   4.919  25.036  1.00  0.00     0.184 C 
BRANCH  25  26
HETATM   26  O1  UNL     1      76.421   4.297  24.737  1.00  0.00    -0.399 OA
ATOM     27  H1  UNL     1      76.496   3.844  23.905  1.00  0.00     0.209 HD
ENDBRANCH  25  26
ENDBRANCH  24  25
ENDBRANCH   8  24
TORSDOF 6
ENDMDL
MODEL 3
REMARK VINA RESULT: -6.215719912      3.319      5.515
REMARK  6 active torsions:
REMARK  status: ('A' for Active; 'I' for Inactive)
REMARK    1  A    between atoms: C2_2  and  C4_4 
REMARK    2  A    between atoms: C4_4  and  C5_5 
REMARK    3  A    between atoms: C5_5  and  N1_6 
REMARK    4  A    between atoms: N3_13  and  C10_14 
REMARK    5  A    between atoms: C10_14  and  C11_15 
REMARK    6  A    between atoms: C11_15  and  O1_16 
ROOT
HETATM    1  N1  UNL     1      82.006   5.403  29.993  1.00  0.00    -0.345 N 
HETATM    2  C6  UNL     1      83.304   5.693  30.308  1.00  0.00     0.022 A 
HETATM    3  C7  UNL     1      83.980   5.943  29.149  1.00  0.00    -0.005 A 
HETATM    4  C8  UNL     1      83.074   5.802  28.107  1.00  0.00     0.071 A 
HETATM    5  N2  UNL     1      83.169   5.926  26.771  1.00  0.00    -0.350 N 
ATOM      6  H2  UNL     1      84.077   6.174  26.379  1.00  0.00     0.166 HD
HETATM    7  C9  UNL     1      82.146   5.744  25.920  1.00  0.00     0.184 A 
HETATM    8  N3  UNL     1      80.967   5.418  26.473  1.00  0.00    -0.330 N 
HETATM    9  C12 UNL     1      80.794   5.275  27.805  1.00  0.00     0.133 A 
HETATM   10  S1  UNL     1      79.313   4.883  28.350  1.00  0.00    -0.058 SA
HETATM   11  C13 UNL     1      81.856   5.466  28.669  1.00  0.00     0.101 A 
HETATM   12  C14 UNL     1      85.363   6.299  28.857  1.00  0.00     0.070 C 
HETATM   13  C15 UNL     1      86.298   6.355  30.007  1.00  0.00     0.237 C 
HETATM   14  N4  UNL     1      85.655   7.107  31.057  1.00  0.00    -0.074 N 
ATOM     15  H41 UNL     1      84.965   7.771  30.708  1.00  0.00     0.277 HD
ATOM     16  H42 UNL     1      86.275   7.784  31.501  1.00  0.00     0.277 HD
HETATM   17  C16 UNL     1      85.108   6.163  31.974  1.00  0.00     0.238 C 
HETATM   18  C17 UNL     1      83.732   5.700  31.700  1.00  0.00     0.085 C 
ENDROOT
BRANCH   1  19
HETATM   19  C5  UNL     1      80.943   5.068  30.924  1.00  0.00     0.129 C 
BRANCH  19  20
HETATM   20  C4  UNL     1      80.366   6.253  31.645  1.00  0.00     0.024 C 
BRANCH  20  21
HETATM   21  C2  UNL     1      80.073   5.785  33.071  1.00  0.00    -0.021 C 
HETATM   22  C1  UNL     1      80.557   6.894  33.985  1.00  0.00     0.009 C 
HETATM   23  C3  UNL     1      80.764   4.472  33.361  1.00  0.00     0.009 C 
ENDBRANCH  20  21
ENDBRANCH  19  20
ENDBRANCH   1  19
BRANCH   8  24
HETATM   24  C10 UNL     1      79.823   5.210  25.586  1.00  0.00     0.156 C 
BRANCH  24  25
HETATM   25  C11 UNL     1      80.027   3.900  24.828  1.00  0.00     0.184 C 
BRANCH  25  26
HETATM   26  O1  UNL     1      79.232   3.880  23.710  1.00  0.00    -0.399 OA
ATOM     27  H1  UNL     1      78.768   4.705  23.629  1.00  0.00     0.209 HD
ENDBRANCH  25  26
ENDBRANCH  24  25
ENDBRANCH   8  24
TORSDOF 6
ENDMDL
MODEL 4
REMARK VINA RESULT: -6.183096482      3.342      6.040
REMARK  6 active torsions:
REMARK  status: ('A' for Active; 'I' for Inactive)
REMARK    1  A    between atoms: C2_2  and  C4_4 
REMARK    2  A    between atoms: C4_4  and  C5_5 
REMARK    3  A    between atoms: C5_5  and  N1_6 
REMARK    4  A    between atoms: N3_13  and  C10_14 
REMARK    5  A    between atoms: C10_14  and  C11_15 
REMARK    6  A    between atoms: C11_15  and  O1_16 
ROOT
HETATM    1  N1  UNL     1      82.097   5.524  29.017  1.00  0.00    -0.345 N 
HETATM    2  C6  UNL     1      81.628   5.513  30.302  1.00  0.00     0.022 A 
HETATM    3  C7  UNL     1      80.263   5.494  30.259  1.00  0.00    -0.005 A 
HETATM    4  C8  UNL     1      79.895   5.493  28.921  1.00  0.00     0.071 A 
HETATM    5  N2  UNL     1      78.711   5.478  28.284  1.00  0.00    -0.350 N 
ATOM      6  H2  UNL     1      77.864   5.465  28.852  1.00  0.00     0.166 HD
HETATM    7  C9  UNL     1      78.570   5.479  26.948  1.00  0.00     0.184 A 
HETATM    8  N3  UNL     1      79.706   5.497  26.233  1.00  0.00    -0.330 N 
HETATM    9  C12 UNL     1      80.932   5.513  26.801  1.00  0.00     0.133 A 
HETATM   10  S1  UNL     1      82.231   5.528  25.823  1.00  0.00    -0.058 SA
HETATM   11  C13 UNL     1      81.061   5.512  28.177  1.00  0.00     0.101 A 
HETATM   12  C14 UNL     1      79.232   5.477  31.289  1.00  0.00     0.070 C 
HETATM   13  C15 UNL     1      79.691   5.560  32.697  1.00  0.00     0.237 C 
HETATM   14  N4  UNL     1      80.771   4.618  32.861  1.00  0.00    -0.074 N 
ATOM     15  H41 UNL     1      80.726   3.839  32.205  1.00  0.00     0.277 HD
ATOM     16  H42 UNL     1      80.698   4.071  33.719  1.00  0.00     0.277 HD
HETATM   17  C16 UNL     1      81.988   5.355  32.770  1.00  0.00     0.238 C 
HETATM   18  C17 UNL     1      82.562   5.514  31.418  1.00  0.00     0.085 C 
ENDROOT
BRANCH   1  19
HETATM   19  C5  UNL     1      83.488   5.552  28.605  1.00  0.00     0.129 C 
BRANCH  19  20
HETATM   20  C4  UNL     1      84.041   6.936  28.408  1.00  0.00     0.024 C 
BRANCH  20  21
HETATM   21  C2  UNL     1      85.332   7.001  29.225  1.00  0.00    -0.021 C 
HETATM   22  C1  UNL     1      85.624   5.579  29.662  1.00  0.00     0.009 C 
HETATM   23  C3  UNL     1      85.180   7.935  30.403  1.00  0.00     0.009 C 
ENDBRANCH  20  21
ENDBRANCH  19  20
ENDBRANCH   1  19
BRANCH   8  24
HETATM   24  C10 UNL     1      79.604   5.499  24.774  1.00  0.00     0.156 C 
BRANCH  24  25
HETATM   25  C11 UNL     1      78.750   4.308  24.346  1.00  0.00     0.184 C 
BRANCH  25  26
HETATM   26  O1  UNL     1      79.558   3.249  24.017  1.00  0.00    -0.399 OA
ATOM     27  H1  UNL     1      80.410   3.567  23.742  1.00  0.00     0.209 HD
ENDBRANCH  25  26
ENDBRANCH  24  25
ENDBRANCH   8  24
TORSDOF 6
ENDMDL
MODEL 5
REMARK VINA RESULT: -6.183012073      4.638      6.523
REMARK  6 active torsions:
REMARK  status: ('A' for Active; 'I' for Inactive)
REMARK    1  A    between atoms: C2_2  and  C4_4 
REMARK    2  A    between atoms: C4_4  and  C5_5 
REMARK    3  A    between atoms: C5_5  and  N1_6 
REMARK    4  A    between atoms: N3_13  and  C10_14 
REMARK    5  A    between atoms: C10_14  and  C11_15 
REMARK    6  A    between atoms: C11_15  and  O1_16 
ROOT
HETATM    1  N1  UNL     1      80.847   6.826  28.972  1.00  0.00    -0.345 N 
HETATM    2  C6  UNL     1      81.525   8.013  28.971  1.00  0.00     0.022 A 
HETATM    3  C7  UNL     1      81.407   8.572  27.731  1.00  0.00    -0.005 A 
HETATM    4  C8  UNL     1      80.641   7.707  26.962  1.00  0.00     0.071 A 
HETATM    5  N2  UNL     1      80.207   7.733  25.690  1.00  0.00    -0.350 N 
ATOM      6  H2  UNL     1      80.463   8.535  25.115  1.00  0.00     0.166 HD
HETATM    7  C9  UNL     1      79.457   6.772  25.127  1.00  0.00     0.184 A 
HETATM    8  N3  UNL     1      79.139   5.731  25.913  1.00  0.00    -0.330 N 
HETATM    9  C12 UNL     1      79.539   5.634  27.200  1.00  0.00     0.133 A 
HETATM   10  S1  UNL     1      79.082   4.325  28.049  1.00  0.00    -0.058 SA
HETATM   11  C13 UNL     1      80.311   6.631  27.766  1.00  0.00     0.101 A 
HETATM   12  C14 UNL     1      81.907   9.808  27.142  1.00  0.00     0.070 C 
HETATM   13  C15 UNL     1      82.785  10.649  27.992  1.00  0.00     0.237 C 
HETATM   14  N4  UNL     1      82.157  10.768  29.285  1.00  0.00    -0.074 N 
ATOM     15  H41 UNL     1      81.144  10.661  29.250  1.00  0.00     0.277 HD
ATOM     16  H42 UNL     1      82.176  11.719  29.653  1.00  0.00     0.277 HD
HETATM   17  C16 UNL     1      82.788   9.823  30.146  1.00  0.00     0.238 C 
HETATM   18  C17 UNL     1      82.201   8.467  30.178  1.00  0.00     0.085 C 
ENDROOT
BRANCH   1  19
HETATM   19  C5  UNL     1      80.721   5.902  30.085  1.00  0.00     0.129 C 
BRANCH  19  20
HETATM   20  C4  UNL     1      79.577   6.210  31.010  1.00  0.00     0.024 C 
BRANCH  20  21
HETATM   21  C2  UNL     1      79.874   5.474  32.317  1.00  0.00    -0.021 C 
HETATM   22  C1  UNL     1      79.993   6.544  33.384  1.00  0.00     0.009 C 
HETATM   23  C3  UNL     1      81.135   4.650  32.198  1.00  0.00     0.009 C 
ENDBRANCH  20  21
ENDBRANCH  19  20
ENDBRANCH   1  19
BRANCH   8  24
HETATM   24  C10 UNL     1      78.324   4.659  25.345  1.00  0.00     0.156 C 
BRANCH  24  25
HETATM   25  C11 UNL     1      77.162   5.287  24.578  1.00  0.00     0.184 C 
BRANCH  25  26
HETATM   26  O1  UNL     1      76.145   4.376  24.445  1.00  0.00    -0.399 OA
ATOM     27  H1  UNL     1      75.589   4.616  23.713  1.00  0.00     0.209 HD
ENDBRANCH  25  26
ENDBRANCH  24  25
ENDBRANCH   8  24
TORSDOF 6
ENDMDL
