MODEL 1
REMARK VINA RESULT: -6.851185457      0.000      0.000
REMARK  7 active torsions:
REMARK  status: ('A' for Active; 'I' for Inactive)
REMARK    1  A    between atoms: C2_2  and  C3_3 
REMARK    2  A    between atoms: C3_3  and  N1_5 
REMARK    3  A    between atoms: C9_17  and  S1_18 
REMARK    4  A    between atoms: S1_18  and  C10_19 
REMARK    5  A    between atoms: C10_19  and  C11_20 
REMARK    6  A    between atoms: C11_20  and  O1_23 
REMARK    7  A    between atoms: N5_25  and  C14_26 
ROOT
HETATM    1  N1  UNL     1      80.645   5.344  30.618  1.00  0.00    -0.367 N 
ATOM      2  H1  UNL     1      79.828   4.811  30.320  1.00  0.00     0.161 HD
HETATM    3  C5  UNL     1      81.335   5.717  29.658  1.00  0.00     0.133 A 
HETATM    4  N2  UNL     1      82.451   6.432  29.800  1.00  0.00    -0.337 N 
ATOM      5  H2  UNL     1      82.768   6.698  30.733  1.00  0.00     0.168 HD
HETATM    6  C6  UNL     1      83.165   6.808  28.715  1.00  0.00     0.183 A 
HETATM    7  N3  UNL     1      82.792   6.485  27.479  1.00  0.00    -0.336 N 
ATOM      8  H3  UNL     1      83.357   6.786  26.686  1.00  0.00     0.168 HD
HETATM    9  C7  UNL     1      81.658   5.754  27.265  1.00  0.00     0.141 A 
HETATM   10  C8  UNL     1      80.935   5.375  28.370  1.00  0.00     0.123 A 
HETATM   11  N4  UNL     1      79.887   4.670  27.880  1.00  0.00    -0.331 N 
ATOM     12  H4  UNL     1      79.154   4.244  28.446  1.00  0.00     0.168 HD
HETATM   13  C9  UNL     1      79.953   4.615  26.554  1.00  0.00     0.148 A 
HETATM   14  N5  UNL     1      81.076   5.300  26.154  1.00  0.00    -0.312 N 
ENDROOT
BRANCH  13  15
HETATM   15  S1  UNL     1      78.861   3.865  25.319  1.00  0.00    -0.091 SA
BRANCH  15  16
HETATM   16  C10 UNL     1      77.409   4.870  25.122  1.00  0.00     0.119 C 
BRANCH  16  17
HETATM   17  C11 UNL     1      77.508   5.964  24.079  1.00  0.00     0.059 C 
HETATM   18  C12 UNL     1      76.230   6.264  23.359  1.00  0.00     0.046 C 
HETATM   19  C13 UNL     1      78.161   7.202  24.654  1.00  0.00     0.046 C 
BRANCH  17  20
HETATM   20  O1  UNL     1      78.409   5.449  23.100  1.00  0.00    -0.390 OA
ATOM     21  H1  UNL     1      78.636   6.200  22.564  1.00  0.00     0.210 HD
ENDBRANCH  17  20
ENDBRANCH  16  17
ENDBRANCH  15  16
ENDBRANCH  13  15
BRANCH  14  22
HETATM   22  C14 UNL     1      81.486   5.490  24.774  1.00  0.00     0.128 C 
HETATM   23  C15 UNL     1      82.603   4.575  24.395  1.00  0.00     0.027 C 
ENDBRANCH  14  22
BRANCH   1  24
HETATM   24  C3  UNL     1      80.709   5.474  32.023  1.00  0.00     0.101 C 
HETATM   25  C4  UNL     1      79.590   6.204  32.687  1.00  0.00     0.036 C 
BRANCH  24  26
HETATM   26  C2  UNL     1      80.742   4.075  32.592  1.00  0.00    -0.013 C 
HETATM   27  C1  UNL     1      81.381   3.869  33.704  1.00  0.00     0.009 C 
ENDBRANCH  24  26
ENDBRANCH   1  24
TORSDOF 7
ENDMDL
MODEL 2
REMARK VINA RESULT: -6.355374920      3.083      7.360
REMARK  7 active torsions:
REMARK  status: ('A' for Active; 'I' for Inactive)
REMARK    1  A    between atoms: C2_2  and  C3_3 
REMARK    2  A    between atoms: C3_3  and  N1_5 
REMARK    3  A    between atoms: C9_17  and  S1_18 
REMARK    4  A    between atoms: S1_18  and  C10_19 
REMARK    5  A    between atoms: C10_19  and  C11_20 
REMARK    6  A    between atoms: C11_20  and  O1_23 
REMARK    7  A    between atoms: N5_25  and  C14_26 
ROOT
HETATM    1  N1  UNL     1      76.904   5.977  24.169  1.00  0.00    -0.367 N 
ATOM      2  H1  UNL     1      76.578   6.651  24.860  1.00  0.00     0.161 HD
HETATM    3  C5  UNL     1      77.916   5.371  24.551  1.00  0.00     0.133 A 
HETATM    4  N2  UNL     1      78.523   4.437  23.817  1.00  0.00    -0.337 N 
ATOM      5  H2  UNL     1      78.153   4.194  22.898  1.00  0.00     0.168 HD
HETATM    6  C6  UNL     1      79.626   3.811  24.285  1.00  0.00     0.183 A 
HETATM    7  N3  UNL     1      80.146   4.094  25.477  1.00  0.00    -0.336 N 
ATOM      8  H3  UNL     1      80.980   3.601  25.795  1.00  0.00     0.168 HD
HETATM    9  C7  UNL     1      79.572   5.040  26.277  1.00  0.00     0.141 A 
HETATM   10  C8  UNL     1      78.450   5.674  25.799  1.00  0.00     0.123 A 
HETATM   11  N4  UNL     1      78.099   6.550  26.771  1.00  0.00    -0.331 N 
ATOM     12  H4  UNL     1      77.300   7.181  26.727  1.00  0.00     0.168 HD
HETATM   13  C9  UNL     1      78.947   6.466  27.790  1.00  0.00     0.148 A 
HETATM   14  N5  UNL     1      79.887   5.510  27.485  1.00  0.00    -0.312 N 
ENDROOT
BRANCH  13  15
HETATM   15  S1  UNL     1      79.014   7.326  29.382  1.00  0.00    -0.091 SA
BRANCH  15  16
HETATM   16  C10 UNL     1      78.664   6.178  30.693  1.00  0.00     0.119 C 
BRANCH  16  17
HETATM   17  C11 UNL     1      79.717   6.084  31.778  1.00  0.00     0.059 C 
HETATM   18  C12 UNL     1      79.985   4.699  32.277  1.00  0.00     0.046 C 
HETATM   19  C13 UNL     1      80.978   6.815  31.373  1.00  0.00     0.046 C 
BRANCH  17  20
HETATM   20  O1  UNL     1      79.166   6.808  32.878  1.00  0.00    -0.390 OA
ATOM     21  H1  UNL     1      78.303   6.432  33.005  1.00  0.00     0.210 HD
ENDBRANCH  17  20
ENDBRANCH  16  17
ENDBRANCH  15  16
ENDBRANCH  13  15
BRANCH  14  22
HETATM   22  C14 UNL     1      80.975   5.105  28.359  1.00  0.00     0.128 C 
HETATM   23  C15 UNL     1      82.272   5.726  27.955  1.00  0.00     0.027 C 
ENDBRANCH  14  22
BRANCH   1  24
HETATM   24  C3  UNL     1      76.093   5.967  23.014  1.00  0.00     0.101 C 
HETATM   25  C4  UNL     1      74.951   5.006  22.998  1.00  0.00     0.036 C 
BRANCH  24  26
HETATM   26  C2  UNL     1      75.520   7.357  22.866  1.00  0.00    -0.013 C 
HETATM   27  C1  UNL     1      74.454   7.519  22.141  1.00  0.00     0.009 C 
ENDBRANCH  24  26
ENDBRANCH   1  24
TORSDOF 7
ENDMDL
MODEL 3
REMARK VINA RESULT: -6.336919153      1.407      1.974
REMARK  7 active torsions:
REMARK  status: ('A' for Active; 'I' for Inactive)
REMARK    1  A    between atoms: C2_2  and  C3_3 
REMARK    2  A    between atoms: C3_3  and  N1_5 
REMARK    3  A    between atoms: C9_17  and  S1_18 
REMARK    4  A    between atoms: S1_18  and  C10_19 
REMARK    5  A    between atoms: C10_19  and  C11_20 
REMARK    6  A    between atoms: C11_20  and  O1_23 
REMARK    7  A    between atoms: N5_25  and  C14_26 
ROOT
HETATM    1  N1  UNL     1      80.383   5.079  30.754  1.00  0.00    -0.367 N 
ATOM      2  H1  UNL     1      79.643   5.076  30.051  1.00  0.00     0.161 HD
HETATM    3  C5  UNL     1      81.499   5.280  30.254  1.00  0.00     0.133 A 
HETATM    4  N2  UNL     1      82.619   5.331  30.975  1.00  0.00    -0.337 N 
ATOM      5  H2  UNL     1      82.578   5.203  31.987  1.00  0.00     0.168 HD
HETATM    6  C6  UNL     1      83.810   5.551  30.374  1.00  0.00     0.183 A 
HETATM    7  N3  UNL     1      83.915   5.722  29.059  1.00  0.00    -0.336 N 
ATOM      8  H3  UNL     1      84.831   5.885  28.641  1.00  0.00     0.168 HD
HETATM    9  C7  UNL     1      82.806   5.682  28.263  1.00  0.00     0.141 A 
HETATM   10  C8  UNL     1      81.597   5.459  28.878  1.00  0.00     0.123 A 
HETATM   11  N4  UNL     1      80.687   5.461  27.875  1.00  0.00    -0.331 N 
ATOM     12  H4  UNL     1      79.684   5.321  27.996  1.00  0.00     0.168 HD
HETATM   13  C9  UNL     1      81.290   5.672  26.710  1.00  0.00     0.148 A 
HETATM   14  N5  UNL     1      82.637   5.813  26.946  1.00  0.00    -0.312 N 
ENDROOT
BRANCH  13  15
HETATM   15  S1  UNL     1      80.646   5.820  25.024  1.00  0.00    -0.091 SA
BRANCH  15  16
HETATM   16  C10 UNL     1      79.000   6.487  25.073  1.00  0.00     0.119 C 
BRANCH  16  17
HETATM   17  C11 UNL     1      77.959   5.718  24.285  1.00  0.00     0.059 C 
HETATM   18  C12 UNL     1      77.363   4.548  25.004  1.00  0.00     0.046 C 
HETATM   19  C13 UNL     1      76.912   6.651  23.717  1.00  0.00     0.046 C 
BRANCH  17  20
HETATM   20  O1  UNL     1      78.672   5.184  23.170  1.00  0.00    -0.390 OA
ATOM     21  H1  UNL     1      78.881   5.939  22.634  1.00  0.00     0.210 HD
ENDBRANCH  17  20
ENDBRANCH  16  17
ENDBRANCH  15  16
ENDBRANCH  13  15
BRANCH  14  22
HETATM   22  C14 UNL     1      83.636   6.083  25.927  1.00  0.00     0.128 C 
HETATM   23  C15 UNL     1      84.093   7.504  25.959  1.00  0.00     0.027 C 
ENDBRANCH  14  22
BRANCH   1  24
HETATM   24  C3  UNL     1      79.881   4.852  32.053  1.00  0.00     0.101 C 
HETATM   25  C4  UNL     1      80.732   4.045  32.976  1.00  0.00     0.036 C 
BRANCH  24  26
HETATM   26  C2  UNL     1      79.678   6.207  32.688  1.00  0.00    -0.013 C 
HETATM   27  C1  UNL     1      80.405   6.531  33.714  1.00  0.00     0.009 C 
ENDBRANCH  24  26
ENDBRANCH   1  24
TORSDOF 7
ENDMDL
MODEL 4
REMARK VINA RESULT: -6.214408344      1.665      2.264
REMARK  7 active torsions:
REMARK  status: ('A' for Active; 'I' for Inactive)
REMARK    1  A    between atoms: C2_2  and  C3_3 
REMARK    2  A    between atoms: C3_3  and  N1_5 
REMARK    3  A    between atoms: C9_17  and  S1_18 
REMARK    4  A    between atoms: S1_18  and  C10_19 
REMARK    5  A    between atoms: C10_19  and  C11_20 
REMARK    6  A    between atoms: C11_20  and  O1_23 
REMARK    7  A    between atoms: N5_25  and  C14_26 
ROOT
HETATM    1  N1  UNL     1      80.629   5.006  30.975  1.00  0.00    -0.367 N 
ATOM      2  H1  UNL     1      79.899   4.940  30.266  1.00  0.00     0.161 HD
HETATM    3  C5  UNL     1      81.733   5.279  30.482  1.00  0.00     0.133 A 
HETATM    4  N2  UNL     1      82.840   5.420  31.213  1.00  0.00    -0.337 N 
ATOM      5  H2  UNL     1      82.797   5.306  32.226  1.00  0.00     0.168 HD
HETATM    6  C6  UNL     1      84.019   5.714  30.619  1.00  0.00     0.183 A 
HETATM    7  N3  UNL     1      84.125   5.872  29.302  1.00  0.00    -0.336 N 
ATOM      8  H3  UNL     1      85.031   6.092  28.890  1.00  0.00     0.168 HD
HETATM    9  C7  UNL     1      83.029   5.740  28.497  1.00  0.00     0.141 A 
HETATM   10  C8  UNL     1      81.833   5.442  29.104  1.00  0.00     0.123 A 
HETATM   11  N4  UNL     1      80.935   5.364  28.093  1.00  0.00    -0.331 N 
ATOM     12  H4  UNL     1      79.943   5.155  28.207  1.00  0.00     0.168 HD
HETATM   13  C9  UNL     1      81.533   5.599  26.931  1.00  0.00     0.148 A 
HETATM   14  N5  UNL     1      82.865   5.838  27.177  1.00  0.00    -0.312 N 
ENDROOT
BRANCH  13  15
HETATM   15  S1  UNL     1      80.898   5.673  25.236  1.00  0.00    -0.091 SA
BRANCH  15  16
HETATM   16  C10 UNL     1      79.277   6.401  25.242  1.00  0.00     0.119 C 
BRANCH  16  17
HETATM   17  C11 UNL     1      78.121   5.424  25.170  1.00  0.00     0.059 C 
HETATM   18  C12 UNL     1      77.048   5.789  24.192  1.00  0.00     0.046 C 
HETATM   19  C13 UNL     1      78.621   4.007  24.989  1.00  0.00     0.046 C 
BRANCH  17  20
HETATM   20  O1  UNL     1      77.522   5.478  26.464  1.00  0.00    -0.390 OA
ATOM     21  H1  UNL     1      77.019   6.284  26.462  1.00  0.00     0.210 HD
ENDBRANCH  17  20
ENDBRANCH  16  17
ENDBRANCH  15  16
ENDBRANCH  13  15
BRANCH  14  22
HETATM   22  C14 UNL     1      83.852   6.162  26.162  1.00  0.00     0.128 C 
HETATM   23  C15 UNL     1      84.150   7.624  26.123  1.00  0.00     0.027 C 
ENDBRANCH  14  22
BRANCH   1  24
HETATM   24  C3  UNL     1      80.131   4.766  32.274  1.00  0.00     0.101 C 
HETATM   25  C4  UNL     1      81.026   4.032  33.216  1.00  0.00     0.036 C 
BRANCH  24  26
HETATM   26  C2  UNL     1      79.830   6.113  32.886  1.00  0.00    -0.013 C 
HETATM   27  C1  UNL     1      80.520   6.498  33.918  1.00  0.00     0.009 C 
ENDBRANCH  24  26
ENDBRANCH   1  24
TORSDOF 7
ENDMDL
MODEL 5
REMARK VINA RESULT: -6.209341531      1.893      3.734
REMARK  7 active torsions:
REMARK  status: ('A' for Active; 'I' for Inactive)
REMARK    1  A    between atoms: C2_2  and  C3_3 
REMARK    2  A    between atoms: C3_3  and  N1_5 
REMARK    3  A    between atoms: C9_17  and  S1_18 
REMARK    4  A    between atoms: S1_18  and  C10_19 
REMARK    5  A    between atoms: C10_19  and  C11_20 
REMARK    6  A    between atoms: C11_20  and  O1_23 
REMARK    7  A    between atoms: N5_25  and  C14_26 
ROOT
HETATM    1  N1  UNL     1      81.027   5.282  30.505  1.00  0.00    -0.367 N 
ATOM      2  H1  UNL     1      81.669   4.819  29.861  1.00  0.00     0.161 HD
HETATM    3  C5  UNL     1      79.971   5.617  29.949  1.00  0.00     0.133 A 
HETATM    4  N2  UNL     1      78.978   6.236  30.589  1.00  0.00    -0.337 N 
ATOM      5  H2  UNL     1      79.071   6.450  31.582  1.00  0.00     0.168 HD
HETATM    6  C6  UNL     1      77.850   6.581  29.929  1.00  0.00     0.183 A 
HETATM    7  N3  UNL     1      77.683   6.323  28.634  1.00  0.00    -0.336 N 
ATOM      8  H3  UNL     1      76.818   6.599  28.171  1.00  0.00     0.168 HD
HETATM    9  C7  UNL     1      78.661   5.691  27.921  1.00  0.00     0.141 A 
HETATM   10  C8  UNL     1      79.807   5.342  28.595  1.00  0.00     0.123 A 
HETATM   11  N4  UNL     1      80.595   4.750  27.666  1.00  0.00    -0.331 N 
ATOM     12  H4  UNL     1      81.526   4.373  27.844  1.00  0.00     0.168 HD
HETATM   13  C9  UNL     1      79.980   4.731  26.489  1.00  0.00     0.148 A 
HETATM   14  N5  UNL     1      78.751   5.328  26.640  1.00  0.00    -0.312 N 
ENDROOT
BRANCH  13  15
HETATM   15  S1  UNL     1      80.471   4.065  24.878  1.00  0.00    -0.091 SA
BRANCH  15  16
HETATM   16  C10 UNL     1      81.550   5.218  24.063  1.00  0.00     0.119 C 
BRANCH  16  17
HETATM   17  C11 UNL     1      83.024   4.869  24.095  1.00  0.00     0.059 C 
HETATM   18  C12 UNL     1      83.798   5.294  22.886  1.00  0.00     0.046 C 
HETATM   19  C13 UNL     1      83.661   5.327  25.389  1.00  0.00     0.046 C 
BRANCH  17  20
HETATM   20  O1  UNL     1      83.056   3.442  24.111  1.00  0.00    -0.390 OA
ATOM     21  H1  UNL     1      83.965   3.224  24.281  1.00  0.00     0.210 HD
ENDBRANCH  17  20
ENDBRANCH  16  17
ENDBRANCH  15  16
ENDBRANCH  13  15
BRANCH  14  22
HETATM   22  C14 UNL     1      77.765   5.480  25.585  1.00  0.00     0.128 C 
HETATM   23  C15 UNL     1      77.966   6.743  24.814  1.00  0.00     0.027 C 
ENDBRANCH  14  22
BRANCH   1  24
HETATM   24  C3  UNL     1      81.563   5.382  31.807  1.00  0.00     0.101 C 
HETATM   25  C4  UNL     1      81.422   6.698  32.497  1.00  0.00     0.036 C 
BRANCH  24  26
HETATM   26  C2  UNL     1      80.860   4.346  32.652  1.00  0.00    -0.013 C 
HETATM   27  C1  UNL     1      81.402   3.985  33.776  1.00  0.00     0.009 C 
ENDBRANCH  24  26
ENDBRANCH   1  24
TORSDOF 7
ENDMDL
