MODEL 1
REMARK VINA RESULT: -6.989226987      0.000      0.000
REMARK  11 active torsions:
REMARK  status: ('A' for Active; 'I' for Inactive)
REMARK    1  A    between atoms: C2_2  and  C3_3 
REMARK    2  A    between atoms: C3_3  and  C6_6 
REMARK    3  A    between atoms: C7_7  and  C8_8 
REMARK    4  A    between atoms: C11_13  and  N2_14 
REMARK       I    between atoms: N2_14  and  C12_16 
REMARK    5  A    between atoms: C12_16  and  C13_18 
REMARK    6  A    between atoms: C13_18  and  N3_20 
REMARK    7  A    between atoms: C17_26  and  O3_27 
REMARK    8  A    between atoms: C18_29  and  C19_30 
REMARK    9  A    between atoms: C21_33  and  C23_35 
REMARK   10  A    between atoms: C23_35  and  S1_36 
REMARK   11  A    between atoms: C25_38  and  O5_39 
ROOT
HETATM    1  C6  UNL     1       0.875  16.467  29.730  1.00  0.00     0.079 C 
HETATM    2  C7  UNL     1       2.345  16.741  29.857  1.00  0.00     0.100 C 
HETATM    3  N1  UNL     1       2.051  18.148  29.898  1.00  0.00    -0.306 N 
HETATM    4  C10 UNL     1       2.687  19.409  29.812  1.00  0.00     0.269 C 
HETATM    5  O1  UNL     1       3.855  19.435  30.271  1.00  0.00    -0.266 OA
HETATM    6  C11 UNL     1       2.230  20.696  29.287  1.00  0.00     0.086 C 
HETATM    7  C15 UNL     1       0.836  20.833  28.890  1.00  0.00     0.058 C 
HETATM    8  C16 UNL     1      -0.059  20.124  29.888  1.00  0.00     0.060 C 
HETATM    9  C17 UNL     1      -0.265  18.730  29.321  1.00  0.00     0.137 C 
HETATM   10  C18 UNL     1       0.046  18.917  27.870  1.00  0.00     0.014 C 
HETATM   11  C21 UNL     1       0.279  20.358  27.619  1.00  0.00     0.004 C 
HETATM   12  C22 UNL     1       1.143  20.469  26.392  1.00  0.00     0.022 C 
HETATM   13  C25 UNL     1       0.683  17.853  30.091  1.00  0.00     0.179 C 
ENDROOT
BRANCH   6  14
HETATM   14  N2  UNL     1       3.249  21.216  28.411  1.00  0.00    -0.324 N 
HETATM   15  C12 UNL     1       3.369  22.618  28.082  1.00  0.00     0.252 C 
HETATM   16  O2  UNL     1       2.516  23.373  28.614  1.00  0.00    -0.271 OA
ATOM     17  H2  UNL     1       3.918  20.563  28.003  1.00  0.00     0.169 HD
BRANCH  15  18
HETATM   18  C13 UNL     1       4.395  23.157  27.197  1.00  0.00     0.271 C 
HETATM   19  C14 UNL     1       4.469  24.670  27.189  1.00  0.00     0.050 C 
BRANCH  18  20
HETATM   20  N3  UNL     1       5.713  22.570  27.454  1.00  0.00    -0.067 N 
ATOM     21  H33 UNL     1       5.707  21.563  27.290  1.00  0.00     0.275 HD
ATOM     22  H32 UNL     1       6.385  22.847  26.738  1.00  0.00     0.275 HD
ATOM     23  H31 UNL     1       6.058  22.789  28.388  1.00  0.00     0.275 HD
ENDBRANCH  18  20
ENDBRANCH  15  18
ENDBRANCH   6  14
BRANCH  11  24
HETATM   24  C23 UNL     1      -0.950  21.222  27.366  1.00  0.00     0.088 C 
BRANCH  24  25
HETATM   25  S1  UNL     1      -0.602  22.850  26.713  1.00  0.00    -0.172 SA
HETATM   26  C24 UNL     1      -0.958  24.059  28.018  1.00  0.00     0.089 C 
ENDBRANCH  24  25
ENDBRANCH  11  24
BRANCH   2  27
HETATM   27  C8  UNL     1       3.175  16.287  28.671  1.00  0.00     0.021 C 
HETATM   28  C9  UNL     1       4.601  16.131  29.141  1.00  0.00     0.007 C 
ENDBRANCH   2  27
BRANCH  13  29
HETATM   29  O5  UNL     1       0.340  17.982  31.461  1.00  0.00    -0.367 OA
ATOM     30  H5  UNL     1       0.508  18.863  31.774  1.00  0.00     0.212 HD
ENDBRANCH  13  29
BRANCH   9  31
HETATM   31  O3  UNL     1      -1.566  18.413  29.614  1.00  0.00    -0.380 OA
ATOM     32  H3  UNL     1      -1.898  17.984  28.835  1.00  0.00     0.211 HD
ENDBRANCH   9  31
BRANCH  10  33
HETATM   33  C19 UNL     1      -0.614  18.065  26.928  1.00  0.00     0.151 C 
HETATM   34  C20 UNL     1      -0.519  17.920  25.462  1.00  0.00     0.096 C 
HETATM   35  O4  UNL     1      -1.465  17.236  27.341  1.00  0.00    -0.293 OA
ENDBRANCH  10  33
BRANCH   1  36
HETATM   36  C3  UNL     1       0.485  15.348  30.640  1.00  0.00    -0.021 C 
HETATM   37  C4  UNL     1       0.560  14.047  29.821  1.00  0.00     0.019 C 
HETATM   38  C5  UNL     1      -0.929  15.379  31.146  1.00  0.00     0.019 C 
BRANCH  36  39
HETATM   39  C2  UNL     1       1.379  15.122  31.795  1.00  0.00    -0.027 C 
HETATM   40  C1  UNL     1       2.056  13.995  31.991  1.00  0.00     0.007 C 
ENDBRANCH  36  39
ENDBRANCH   1  36
TORSDOF 11
ENDMDL
MODEL 2
REMARK VINA RESULT: -6.982237117      3.089      7.554
REMARK  11 active torsions:
REMARK  status: ('A' for Active; 'I' for Inactive)
REMARK    1  A    between atoms: C2_2  and  C3_3 
REMARK    2  A    between atoms: C3_3  and  C6_6 
REMARK    3  A    between atoms: C7_7  and  C8_8 
REMARK    4  A    between atoms: C11_13  and  N2_14 
REMARK       I    between atoms: N2_14  and  C12_16 
REMARK    5  A    between atoms: C12_16  and  C13_18 
REMARK    6  A    between atoms: C13_18  and  N3_20 
REMARK    7  A    between atoms: C17_26  and  O3_27 
REMARK    8  A    between atoms: C18_29  and  C19_30 
REMARK    9  A    between atoms: C21_33  and  C23_35 
REMARK   10  A    between atoms: C23_35  and  S1_36 
REMARK   11  A    between atoms: C25_38  and  O5_39 
ROOT
HETATM    1  C6  UNL     1       1.883  19.188  28.115  1.00  0.00     0.079 C 
HETATM    2  C7  UNL     1       0.465  19.022  27.651  1.00  0.00     0.100 C 
HETATM    3  N1  UNL     1       0.198  18.247  28.832  1.00  0.00    -0.306 N 
HETATM    4  C10 UNL     1      -0.780  17.389  29.388  1.00  0.00     0.269 C 
HETATM    5  O1  UNL     1      -1.959  17.658  29.054  1.00  0.00    -0.266 OA
HETATM    6  C11 UNL     1      -0.668  16.240  30.288  1.00  0.00     0.086 C 
HETATM    7  C15 UNL     1       0.627  15.941  30.881  1.00  0.00     0.058 C 
HETATM    8  C16 UNL     1       1.318  17.226  31.294  1.00  0.00     0.060 C 
HETATM    9  C17 UNL     1       2.194  17.607  30.113  1.00  0.00     0.137 C 
HETATM   10  C18 UNL     1       2.354  16.307  29.391  1.00  0.00     0.014 C 
HETATM   11  C21 UNL     1       1.718  15.239  30.196  1.00  0.00     0.004 C 
HETATM   12  C22 UNL     1       1.349  14.124  29.255  1.00  0.00     0.022 C 
HETATM   13  C25 UNL     1       1.425  18.675  29.386  1.00  0.00     0.179 C 
ENDROOT
BRANCH   6  14
HETATM   14  N2  UNL     1      -1.439  15.155  29.737  1.00  0.00    -0.324 N 
HETATM   15  C12 UNL     1      -2.699  14.717  30.294  1.00  0.00     0.252 C 
HETATM   16  O2  UNL     1      -3.091  15.351  31.307  1.00  0.00    -0.271 OA
ATOM     17  H2  UNL     1      -1.079  14.672  28.914  1.00  0.00     0.169 HD
BRANCH  15  18
HETATM   18  C13 UNL     1      -3.488  13.621  29.745  1.00  0.00     0.271 C 
HETATM   19  C14 UNL     1      -4.869  13.491  30.356  1.00  0.00     0.050 C 
BRANCH  18  20
HETATM   20  N3  UNL     1      -3.565  13.670  28.283  1.00  0.00    -0.067 N 
ATOM     21  H33 UNL     1      -3.988  14.541  27.965  1.00  0.00     0.275 HD
ATOM     22  H32 UNL     1      -2.639  13.777  27.869  1.00  0.00     0.275 HD
ATOM     23  H31 UNL     1      -4.051  12.862  27.895  1.00  0.00     0.275 HD
ENDBRANCH  18  20
ENDBRANCH  15  18
ENDBRANCH   6  14
BRANCH  11  24
HETATM   24  C23 UNL     1       2.558  14.615  31.302  1.00  0.00     0.088 C 
BRANCH  24  25
HETATM   25  S1  UNL     1       2.614  12.827  31.285  1.00  0.00    -0.172 SA
HETATM   26  C24 UNL     1       0.967  12.216  31.739  1.00  0.00     0.089 C 
ENDBRANCH  24  25
ENDBRANCH  11  24
BRANCH   2  27
HETATM   27  C8  UNL     1       0.316  18.276  26.338  1.00  0.00     0.021 C 
HETATM   28  C9  UNL     1      -0.987  18.706  25.711  1.00  0.00     0.007 C 
ENDBRANCH   2  27
BRANCH  13  29
HETATM   29  O5  UNL     1       1.207  19.726  30.313  1.00  0.00    -0.367 OA
ATOM     30  H5  UNL     1       1.312  19.422  31.207  1.00  0.00     0.212 HD
ENDBRANCH  13  29
BRANCH   9  31
HETATM   31  O3  UNL     1       3.337  18.124  30.667  1.00  0.00    -0.380 OA
ATOM     32  H3  UNL     1       4.011  17.993  30.011  1.00  0.00     0.211 HD
ENDBRANCH   9  31
BRANCH  10  33
HETATM   33  C19 UNL     1       3.557  16.099  28.643  1.00  0.00     0.151 C 
HETATM   34  C20 UNL     1       3.849  16.056  27.197  1.00  0.00     0.096 C 
HETATM   35  O4  UNL     1       4.636  15.904  29.258  1.00  0.00    -0.293 OA
ENDBRANCH  10  33
BRANCH   1  36
HETATM   36  C3  UNL     1       2.314  20.608  27.941  1.00  0.00    -0.021 C 
HETATM   37  C4  UNL     1       3.083  20.690  26.610  1.00  0.00     0.019 C 
HETATM   38  C5  UNL     1       3.290  21.125  28.958  1.00  0.00     0.019 C 
BRANCH  36  39
HETATM   39  C2  UNL     1       1.223  21.596  27.810  1.00  0.00    -0.027 C 
HETATM   40  C1  UNL     1       1.253  22.617  26.961  1.00  0.00     0.007 C 
ENDBRANCH  36  39
ENDBRANCH   1  36
TORSDOF 11
ENDMDL
MODEL 3
REMARK VINA RESULT: -6.576353894      1.203      1.427
REMARK  11 active torsions:
REMARK  status: ('A' for Active; 'I' for Inactive)
REMARK    1  A    between atoms: C2_2  and  C3_3 
REMARK    2  A    between atoms: C3_3  and  C6_6 
REMARK    3  A    between atoms: C7_7  and  C8_8 
REMARK    4  A    between atoms: C11_13  and  N2_14 
REMARK       I    between atoms: N2_14  and  C12_16 
REMARK    5  A    between atoms: C12_16  and  C13_18 
REMARK    6  A    between atoms: C13_18  and  N3_20 
REMARK    7  A    between atoms: C17_26  and  O3_27 
REMARK    8  A    between atoms: C18_29  and  C19_30 
REMARK    9  A    between atoms: C21_33  and  C23_35 
REMARK   10  A    between atoms: C23_35  and  S1_36 
REMARK   11  A    between atoms: C25_38  and  O5_39 
ROOT
HETATM    1  C6  UNL     1       0.881  16.523  29.556  1.00  0.00     0.079 C 
HETATM    2  C7  UNL     1       2.270  17.067  29.728  1.00  0.00     0.100 C 
HETATM    3  N1  UNL     1       1.707  18.382  29.871  1.00  0.00    -0.306 N 
HETATM    4  C10 UNL     1       2.086  19.745  29.892  1.00  0.00     0.269 C 
HETATM    5  O1  UNL     1       3.226  19.961  30.370  1.00  0.00    -0.266 OA
HETATM    6  C11 UNL     1       1.387  20.956  29.459  1.00  0.00     0.086 C 
HETATM    7  C15 UNL     1      -0.006  20.851  29.051  1.00  0.00     0.058 C 
HETATM    8  C16 UNL     1      -0.747  19.906  29.977  1.00  0.00     0.060 C 
HETATM    9  C17 UNL     1      -0.677  18.547  29.302  1.00  0.00     0.137 C 
HETATM   10  C18 UNL     1      -0.407  18.903  27.875  1.00  0.00     0.014 C 
HETATM   11  C21 UNL     1      -0.459  20.377  27.739  1.00  0.00     0.004 C 
HETATM   12  C22 UNL     1       0.368  20.749  26.538  1.00  0.00     0.022 C 
HETATM   13  C25 UNL     1       0.423  17.813  30.018  1.00  0.00     0.179 C 
ENDROOT
BRANCH   6  14
HETATM   14  N2  UNL     1       2.286  21.731  28.642  1.00  0.00    -0.324 N 
HETATM   15  C12 UNL     1       2.124  23.149  28.413  1.00  0.00     0.252 C 
HETATM   16  O2  UNL     1       1.134  23.678  28.980  1.00  0.00    -0.271 OA
ATOM     17  H2  UNL     1       3.075  21.256  28.203  1.00  0.00     0.169 HD
BRANCH  15  18
HETATM   18  C13 UNL     1       3.027  23.943  27.589  1.00  0.00     0.271 C 
HETATM   19  C14 UNL     1       4.119  23.135  26.917  1.00  0.00     0.050 C 
BRANCH  18  20
HETATM   20  N3  UNL     1       2.308  24.766  26.613  1.00  0.00    -0.067 N 
ATOM     21  H33 UNL     1       2.224  24.287  25.717  1.00  0.00     0.275 HD
ATOM     22  H32 UNL     1       1.319  24.840  26.851  1.00  0.00     0.275 HD
ATOM     23  H31 UNL     1       2.730  25.688  26.500  1.00  0.00     0.275 HD
ENDBRANCH  18  20
ENDBRANCH  15  18
ENDBRANCH   6  14
BRANCH  11  24
HETATM   24  C23 UNL     1      -1.833  21.003  27.532  1.00  0.00     0.088 C 
BRANCH  24  25
HETATM   25  S1  UNL     1      -2.176  21.524  25.856  1.00  0.00    -0.172 SA
HETATM   26  C24 UNL     1      -3.315  20.318  25.122  1.00  0.00     0.089 C 
ENDBRANCH  24  25
ENDBRANCH  11  24
BRANCH   2  27
HETATM   27  C8  UNL     1       3.173  16.876  28.524  1.00  0.00     0.021 C 
HETATM   28  C9  UNL     1       4.442  16.214  29.002  1.00  0.00     0.007 C 
ENDBRANCH   2  27
BRANCH  13  29
HETATM   29  O5  UNL     1       0.060  17.766  31.389  1.00  0.00    -0.367 OA
ATOM     30  H5  UNL     1       0.348  18.547  31.846  1.00  0.00     0.212 HD
ENDBRANCH  13  29
BRANCH   9  31
HETATM   31  O3  UNL     1      -1.892  17.961  29.550  1.00  0.00    -0.380 OA
ATOM     32  H3  UNL     1      -1.820  17.082  29.197  1.00  0.00     0.211 HD
ENDBRANCH   9  31
BRANCH  10  33
HETATM   33  C19 UNL     1      -0.887  18.015  26.860  1.00  0.00     0.151 C 
HETATM   34  C20 UNL     1      -0.512  17.801  25.449  1.00  0.00     0.096 C 
HETATM   35  O4  UNL     1      -1.819  17.216  27.134  1.00  0.00    -0.293 OA
ENDBRANCH  10  33
BRANCH   1  36
HETATM   36  C3  UNL     1       0.715  15.282  30.372  1.00  0.00    -0.021 C 
HETATM   37  C4  UNL     1       1.263  14.111  29.536  1.00  0.00     0.019 C 
HETATM   38  C5  UNL     1      -0.700  14.883  30.675  1.00  0.00     0.019 C 
BRANCH  36  39
HETATM   39  C2  UNL     1       1.483  15.239  31.634  1.00  0.00    -0.027 C 
HETATM   40  C1  UNL     1       2.206  14.194  32.020  1.00  0.00     0.007 C 
ENDBRANCH  36  39
ENDBRANCH   1  36
TORSDOF 11
ENDMDL
MODEL 4
REMARK VINA RESULT: -6.451961873      1.206      1.214
REMARK  11 active torsions:
REMARK  status: ('A' for Active; 'I' for Inactive)
REMARK    1  A    between atoms: C2_2  and  C3_3 
REMARK    2  A    between atoms: C3_3  and  C6_6 
REMARK    3  A    between atoms: C7_7  and  C8_8 
REMARK    4  A    between atoms: C11_13  and  N2_14 
REMARK       I    between atoms: N2_14  and  C12_16 
REMARK    5  A    between atoms: C12_16  and  C13_18 
REMARK    6  A    between atoms: C13_18  and  N3_20 
REMARK    7  A    between atoms: C17_26  and  O3_27 
REMARK    8  A    between atoms: C18_29  and  C19_30 
REMARK    9  A    between atoms: C21_33  and  C23_35 
REMARK   10  A    between atoms: C23_35  and  S1_36 
REMARK   11  A    between atoms: C25_38  and  O5_39 
ROOT
HETATM    1  C6  UNL     1       1.341  16.736  29.690  1.00  0.00     0.079 C 
HETATM    2  C7  UNL     1       2.731  17.002  30.189  1.00  0.00     0.100 C 
HETATM    3  N1  UNL     1       2.436  18.409  30.179  1.00  0.00    -0.306 N 
HETATM    4  C10 UNL     1       3.073  19.669  30.279  1.00  0.00     0.269 C 
HETATM    5  O1  UNL     1       4.087  19.681  31.018  1.00  0.00    -0.266 OA
HETATM    6  C11 UNL     1       2.764  20.966  29.677  1.00  0.00     0.086 C 
HETATM    7  C15 UNL     1       1.516  21.116  28.944  1.00  0.00     0.058 C 
HETATM    8  C16 UNL     1       0.397  20.394  29.670  1.00  0.00     0.060 C 
HETATM    9  C17 UNL     1       0.342  19.011  29.045  1.00  0.00     0.137 C 
HETATM   10  C18 UNL     1       1.009  19.221  27.724  1.00  0.00     0.014 C 
HETATM   11  C21 UNL     1       1.297  20.665  27.565  1.00  0.00     0.004 C 
HETATM   12  C22 UNL     1       2.444  20.793  26.598  1.00  0.00     0.022 C 
HETATM   13  C25 UNL     1       1.064  18.117  30.014  1.00  0.00     0.179 C 
ENDROOT
BRANCH   6  14
HETATM   14  N2  UNL     1       3.971  21.497  29.097  1.00  0.00    -0.324 N 
HETATM   15  C12 UNL     1       4.179  22.906  28.854  1.00  0.00     0.252 C 
HETATM   16  O2  UNL     1       3.227  23.658  29.185  1.00  0.00    -0.271 OA
ATOM     17  H2  UNL     1       4.715  20.846  28.845  1.00  0.00     0.169 HD
BRANCH  15  18
HETATM   18  C13 UNL     1       5.396  23.455  28.267  1.00  0.00     0.271 C 
HETATM   19  C14 UNL     1       6.538  23.608  29.251  1.00  0.00     0.050 C 
BRANCH  18  20
HETATM   20  N3  UNL     1       5.824  22.711  27.080  1.00  0.00    -0.067 N 
ATOM     21  H33 UNL     1       5.239  21.890  26.928  1.00  0.00     0.275 HD
ATOM     22  H32 UNL     1       5.607  23.225  26.226  1.00  0.00     0.275 HD
ATOM     23  H31 UNL     1       6.811  22.459  27.117  1.00  0.00     0.275 HD
ENDBRANCH  18  20
ENDBRANCH  15  18
ENDBRANCH   6  14
BRANCH  11  24
HETATM   24  C23 UNL     1       0.173  21.538  27.024  1.00  0.00     0.088 C 
BRANCH  24  25
HETATM   25  S1  UNL     1       0.425  23.298  27.224  1.00  0.00    -0.172 SA
HETATM   26  C24 UNL     1       0.813  23.992  25.594  1.00  0.00     0.089 C 
ENDBRANCH  24  25
ENDBRANCH  11  24
BRANCH   2  27
HETATM   27  C8  UNL     1       3.834  16.564  29.243  1.00  0.00     0.021 C 
HETATM   28  C9  UNL     1       4.794  15.702  30.026  1.00  0.00     0.007 C 
ENDBRANCH   2  27
BRANCH  13  29
HETATM   29  O5  UNL     1       0.386  18.224  31.255  1.00  0.00    -0.367 OA
ATOM     30  H5  UNL     1      -0.456  17.784  31.225  1.00  0.00     0.212 HD
ENDBRANCH  13  29
BRANCH   9  31
HETATM   31  O3  UNL     1      -0.991  18.695  28.995  1.00  0.00    -0.380 OA
ATOM     32  H3  UNL     1      -1.377  19.338  28.411  1.00  0.00     0.211 HD
ENDBRANCH   9  31
BRANCH  10  33
HETATM   33  C19 UNL     1       0.609  18.388  26.631  1.00  0.00     0.151 C 
HETATM   34  C20 UNL     1      -0.539  18.423  25.704  1.00  0.00     0.096 C 
HETATM   35  O4  UNL     1       1.320  17.397  26.322  1.00  0.00    -0.293 OA
ENDBRANCH  10  33
BRANCH   1  36
HETATM   36  C3  UNL     1       0.733  15.604  30.452  1.00  0.00    -0.021 C 
HETATM   37  C4  UNL     1       1.004  14.318  29.651  1.00  0.00     0.019 C 
HETATM   38  C5  UNL     1      -0.762  15.637  30.593  1.00  0.00     0.019 C 
BRANCH  36  39
HETATM   39  C2  UNL     1       1.312  15.348  31.787  1.00  0.00    -0.027 C 
HETATM   40  C1  UNL     1       1.994  14.250  32.095  1.00  0.00     0.007 C 
ENDBRANCH  36  39
ENDBRANCH   1  36
TORSDOF 11
ENDMDL
MODEL 5
REMARK VINA RESULT: -6.326560538      2.506      4.778
REMARK  11 active torsions:
REMARK  status: ('A' for Active; 'I' for Inactive)
REMARK    1  A    between atoms: C2_2  and  C3_3 
REMARK    2  A    between atoms: C3_3  and  C6_6 
REMARK    3  A    between atoms: C7_7  and  C8_8 
REMARK    4  A    between atoms: C11_13  and  N2_14 
REMARK       I    between atoms: N2_14  and  C12_16 
REMARK    5  A    between atoms: C12_16  and  C13_18 
REMARK    6  A    between atoms: C13_18  and  N3_20 
REMARK    7  A    between atoms: C17_26  and  O3_27 
REMARK    8  A    between atoms: C18_29  and  C19_30 
REMARK    9  A    between atoms: C21_33  and  C23_35 
REMARK   10  A    between atoms: C23_35  and  S1_36 
REMARK   11  A    between atoms: C25_38  and  O5_39 
ROOT
HETATM    1  C6  UNL     1       2.097  15.500  31.135  1.00  0.00     0.079 C 
HETATM    2  C7  UNL     1       0.601  15.610  31.183  1.00  0.00     0.100 C 
HETATM    3  N1  UNL     1       0.630  16.202  29.872  1.00  0.00    -0.306 N 
HETATM    4  C10 UNL     1      -0.197  16.898  28.960  1.00  0.00     0.269 C 
HETATM    5  O1  UNL     1      -1.410  16.580  29.010  1.00  0.00    -0.266 OA
HETATM    6  C11 UNL     1       0.104  17.925  27.962  1.00  0.00     0.086 C 
HETATM    7  C15 UNL     1       1.498  18.248  27.691  1.00  0.00     0.058 C 
HETATM    8  C16 UNL     1       2.329  16.980  27.667  1.00  0.00     0.060 C 
HETATM    9  C17 UNL     1       2.868  16.828  29.078  1.00  0.00     0.137 C 
HETATM   10  C18 UNL     1       2.772  18.219  29.617  1.00  0.00     0.014 C 
HETATM   11  C21 UNL     1       2.331  19.119  28.526  1.00  0.00     0.004 C 
HETATM   12  C22 UNL     1       1.675  20.313  29.164  1.00  0.00     0.022 C 
HETATM   13  C25 UNL     1       1.978  15.805  29.728  1.00  0.00     0.179 C 
ENDROOT
BRANCH   6  14
HETATM   14  N2  UNL     1      -0.833  19.006  28.126  1.00  0.00    -0.324 N 
HETATM   15  C12 UNL     1      -1.245  19.869  27.042  1.00  0.00     0.252 C 
HETATM   16  O2  UNL     1      -0.727  19.615  25.924  1.00  0.00    -0.271 OA
ATOM     17  H2  UNL     1      -1.225  19.173  29.054  1.00  0.00     0.169 HD
BRANCH  15  18
HETATM   18  C13 UNL     1      -2.192  20.966  27.196  1.00  0.00     0.271 C 
HETATM   19  C14 UNL     1      -1.996  21.776  28.462  1.00  0.00     0.050 C 
BRANCH  18  20
HETATM   20  N3  UNL     1      -2.230  21.836  26.018  1.00  0.00    -0.067 N 
ATOM     21  H33 UNL     1      -2.851  22.631  26.167  1.00  0.00     0.275 HD
ATOM     22  H32 UNL     1      -1.349  22.339  25.903  1.00  0.00     0.275 HD
ATOM     23  H31 UNL     1      -2.477  21.328  25.169  1.00  0.00     0.275 HD
ENDBRANCH  18  20
ENDBRANCH  15  18
ENDBRANCH   6  14
BRANCH  11  24
HETATM   24  C23 UNL     1       3.412  19.659  27.599  1.00  0.00     0.088 C 
BRANCH  24  25
HETATM   25  S1  UNL     1       2.992  21.185  26.765  1.00  0.00    -0.172 SA
HETATM   26  C24 UNL     1       4.084  22.486  27.404  1.00  0.00     0.089 C 
ENDBRANCH  24  25
ENDBRANCH  11  24
BRANCH   2  27
HETATM   27  C8  UNL     1       0.071  16.507  32.286  1.00  0.00     0.021 C 
HETATM   28  C9  UNL     1       1.251  17.207  32.915  1.00  0.00     0.007 C 
ENDBRANCH   2  27
BRANCH  13  29
HETATM   29  O5  UNL     1       2.064  14.628  28.940  1.00  0.00    -0.367 OA
ATOM     30  H5  UNL     1       2.576  13.959  29.379  1.00  0.00     0.212 HD
ENDBRANCH  13  29
BRANCH   9  31
HETATM   31  O3  UNL     1       4.139  16.337  28.924  1.00  0.00    -0.380 OA
ATOM     32  H3  UNL     1       4.713  17.061  29.144  1.00  0.00     0.211 HD
ENDBRANCH   9  31
BRANCH  10  33
HETATM   33  C19 UNL     1       3.718  18.619  30.615  1.00  0.00     0.151 C 
HETATM   34  C20 UNL     1       4.115  19.932  31.157  1.00  0.00     0.096 C 
HETATM   35  O4  UNL     1       4.396  17.739  31.205  1.00  0.00    -0.293 OA
ENDBRANCH  10  33
BRANCH   1  36
HETATM   36  C3  UNL     1       2.525  14.154  31.622  1.00  0.00    -0.021 C 
HETATM   37  C4  UNL     1       3.079  14.341  33.047  1.00  0.00     0.019 C 
HETATM   38  C5  UNL     1       3.658  13.516  30.872  1.00  0.00     0.019 C 
BRANCH  36  39
HETATM   39  C2  UNL     1       1.448  13.153  31.763  1.00  0.00    -0.027 C 
HETATM   40  C1  UNL     1       1.448  11.980  31.139  1.00  0.00     0.007 C 
ENDBRANCH  36  39
ENDBRANCH   1  36
TORSDOF 11
ENDMDL
