MODEL 1
REMARK VINA RESULT: -10.943857669      0.000      0.000
REMARK  10 active torsions:
REMARK  status: ('A' for Active; 'I' for Inactive)
REMARK    1  A    between atoms: C3_3  and  C4_4 
REMARK    2  A    between atoms: C5_5  and  N1_6 
REMARK    3  A    between atoms: N1_6  and  C6_8 
REMARK    4  A    between atoms: C7_11  and  N3_12 
REMARK    5  A    between atoms: C8_17  and  N5_18 
REMARK    6  A    between atoms: C9_20  and  C10_21 
REMARK    7  A    between atoms: C10_21  and  C11_22 
REMARK    8  A    between atoms: C19_33  and  C20_34 
REMARK    9  A    between atoms: C20_34  and  N7_35 
REMARK   10  A    between atoms: C24_42  and  C25_43 
ROOT
HETATM    1  C1  UNL     1      17.486   7.852   3.891  1.00  0.00     0.112 C 
HETATM    2  C2  UNL     1      16.751   8.629   2.889  1.00  0.00    -0.104 C 
HETATM    3  C3  UNL     1      16.164   9.278   2.060  1.00  0.00    -0.047 C 
ENDROOT
BRANCH   3   4
HETATM    4  C4  UNL     1      15.476  10.075   1.055  1.00  0.00     0.117 A 
HETATM    5  C5  UNL     1      14.395  10.860   1.380  1.00  0.00     0.102 A 
HETATM    6  C17 UNL     1      13.784  11.591   0.390  1.00  0.00     0.043 A 
HETATM    7 BR1  UNL     1      12.272  12.693   0.839  1.00  0.00    -0.049 Br
HETATM    8  C18 UNL     1      14.239  11.541  -0.904  1.00  0.00     0.048 A 
HETATM    9  C19 UNL     1      15.321  10.752  -1.216  1.00  0.00     0.042 A 
HETATM   10  N9  UNL     1      15.893  10.051  -0.222  1.00  0.00    -0.344 N 
HETATM   11  C28 UNL     1      17.054   9.194  -0.523  1.00  0.00     0.157 C 
BRANCH   5  12
HETATM   12  N1  UNL     1      13.963  10.878   2.734  1.00  0.00    -0.186 N 
ATOM     13  H1  UNL     1      14.358  11.579   3.361  1.00  0.00     0.184 HD
BRANCH  12  14
HETATM   14  C6  UNL     1      13.094  10.047   3.208  1.00  0.00     0.712 A 
HETATM   15  N2  UNL     1      13.263   8.720   3.212  1.00  0.00    -0.021 N 
HETATM   16  C7  UNL     1      12.322   7.897   3.719  1.00  0.00     0.705 A 
ATOM     17  H2  UNL     1      14.119   8.324   2.824  1.00  0.00     0.203 HD
HETATM   18  N4  UNL     1      11.180   8.377   4.240  1.00  0.00    -0.021 N 
HETATM   19  C8  UNL     1      10.987   9.707   4.248  1.00  0.00     0.710 A 
ATOM     20  H4  UNL     1      10.475   7.746   4.621  1.00  0.00     0.203 HD
HETATM   21  N6  UNL     1      11.969  10.525   3.721  1.00  0.00    -0.021 N 
ATOM     22  H6  UNL     1      11.822  11.535   3.727  1.00  0.00     0.203 HD
BRANCH  16  23
HETATM   23  N3  UNL     1      12.545   6.610   3.694  1.00  0.00    -0.234 N 
ATOM     24  H32 UNL     1      12.489   6.095   2.816  1.00  0.00     0.174 HD
ATOM     25  H31 UNL     1      12.775   6.142   4.571  1.00  0.00     0.174 HD
ENDBRANCH  16  23
BRANCH  19  26
HETATM   26  N5  UNL     1       9.981  10.260   4.698  1.00  0.00    -0.204 N 
HETATM   27  C9  UNL     1       8.645  10.500   4.614  1.00  0.00     0.083 C 
ATOM     28  H5  UNL     1      10.300  10.781   5.514  1.00  0.00     0.183 HD
BRANCH  27  29
HETATM   29  C10 UNL     1       7.912   9.790   3.508  1.00  0.00     0.083 C 
BRANCH  29  30
HETATM   30  C11 UNL     1       6.454   9.654   3.828  1.00  0.00    -0.053 A 
HETATM   31  C12 UNL     1       5.604   9.151   2.875  1.00  0.00     0.007 A 
HETATM   32  C13 UNL     1       4.235   9.006   3.130  1.00  0.00     0.001 A 
HETATM   33  C14 UNL     1       3.756   9.382   4.364  1.00  0.00     0.000 A 
HETATM   34  C15 UNL     1       4.599   9.897   5.353  1.00  0.00     0.001 A 
HETATM   35  C16 UNL     1       5.942  10.017   5.044  1.00  0.00     0.007 A 
ENDBRANCH  29  30
ENDBRANCH  27  29
ENDBRANCH  19  26
ENDBRANCH  12  14
ENDBRANCH   5  12
BRANCH   9  36
HETATM   36  C20 UNL     1      15.891  10.629  -2.563  1.00  0.00     0.330 C 
BRANCH  36  37
HETATM   37  N7  UNL     1      16.441  11.817  -3.122  1.00  0.00     0.109 N 
HETATM   38  C21 UNL     1      17.850  11.984  -2.882  1.00  0.00     0.293 C 
HETATM   39  C22 UNL     1      18.648  10.746  -3.227  1.00  0.00     0.153 C 
HETATM   40  N8  UNL     1      18.277  10.255  -4.559  1.00  0.00    -0.358 N 
HETATM   41  C23 UNL     1      16.972  10.544  -5.089  1.00  0.00     0.251 C 
ATOM     42  H8  UNL     1      18.942   9.710  -5.107  1.00  0.00     0.162 HD
HETATM   43  O1  UNL     1      16.500   9.762  -5.952  1.00  0.00    -0.271 OA
HETATM   44  C24 UNL     1      16.285  11.751  -4.573  1.00  0.00     0.317 C 
BRANCH  44  45
HETATM   45  C25 UNL     1      14.862  11.729  -5.026  1.00  0.00     0.020 C 
HETATM   46  C26 UNL     1      14.030  12.820  -4.383  1.00  0.00     0.012 C 
HETATM   47  C27 UNL     1      14.872  12.032  -6.519  1.00  0.00     0.012 C 
ENDBRANCH  44  45
ENDBRANCH  36  37
ENDBRANCH   9  36
ENDBRANCH   3   4
TORSDOF 10
ENDMDL
MODEL 2
REMARK VINA RESULT: -10.639618584      1.489      1.834
REMARK  10 active torsions:
REMARK  status: ('A' for Active; 'I' for Inactive)
REMARK    1  A    between atoms: C3_3  and  C4_4 
REMARK    2  A    between atoms: C5_5  and  N1_6 
REMARK    3  A    between atoms: N1_6  and  C6_8 
REMARK    4  A    between atoms: C7_11  and  N3_12 
REMARK    5  A    between atoms: C8_17  and  N5_18 
REMARK    6  A    between atoms: C9_20  and  C10_21 
REMARK    7  A    between atoms: C10_21  and  C11_22 
REMARK    8  A    between atoms: C19_33  and  C20_34 
REMARK    9  A    between atoms: C20_34  and  N7_35 
REMARK   10  A    between atoms: C24_42  and  C25_43 
ROOT
HETATM    1  C1  UNL     1      14.530   7.056   4.042  1.00  0.00     0.112 C 
HETATM    2  C2  UNL     1      14.418   8.140   3.061  1.00  0.00    -0.104 C 
HETATM    3  C3  UNL     1      14.304   9.028   2.254  1.00  0.00    -0.047 C 
ENDROOT
BRANCH   3   4
HETATM    4  C4  UNL     1      14.145  10.094   1.276  1.00  0.00     0.117 A 
HETATM    5  C5  UNL     1      13.431  11.232   1.567  1.00  0.00     0.102 A 
HETATM    6  C17 UNL     1      13.313  12.206   0.604  1.00  0.00     0.043 A 
HETATM    7 BR1  UNL     1      12.317  13.802   1.006  1.00  0.00    -0.049 Br
HETATM    8  C18 UNL     1      13.895  12.050  -0.629  1.00  0.00     0.048 A 
HETATM    9  C19 UNL     1      14.606  10.907  -0.908  1.00  0.00     0.042 A 
HETATM   10  N9  UNL     1      14.700   9.975   0.058  1.00  0.00    -0.344 N 
HETATM   11  C28 UNL     1      15.455   8.738  -0.209  1.00  0.00     0.157 C 
BRANCH   5  12
HETATM   12  N1  UNL     1      12.849  11.346   2.858  1.00  0.00    -0.186 N 
ATOM     13  H1  UNL     1      13.331  11.907   3.561  1.00  0.00     0.184 HD
BRANCH  12  14
HETATM   14  C6  UNL     1      11.738  10.772   3.185  1.00  0.00     0.712 A 
HETATM   15  N2  UNL     1      11.402  10.472   4.444  1.00  0.00    -0.021 N 
HETATM   16  C7  UNL     1      10.228   9.871   4.731  1.00  0.00     0.705 A 
ATOM     17  H2  UNL     1      12.045  10.701   5.202  1.00  0.00     0.203 HD
HETATM   18  N4  UNL     1       9.352   9.551   3.763  1.00  0.00    -0.021 N 
HETATM   19  C8  UNL     1       9.667   9.843   2.490  1.00  0.00     0.710 A 
ATOM     20  H4  UNL     1       8.468   9.097   3.990  1.00  0.00     0.203 HD
HETATM   21  N6  UNL     1      10.877  10.459   2.227  1.00  0.00    -0.021 N 
ATOM     22  H6  UNL     1      11.115  10.680   1.260  1.00  0.00     0.203 HD
BRANCH  16  23
HETATM   23  N3  UNL     1       9.958   9.603   5.980  1.00  0.00    -0.234 N 
ATOM     24  H32 UNL     1      10.671   9.723   6.698  1.00  0.00     0.174 HD
ATOM     25  H31 UNL     1       9.021   9.273   6.212  1.00  0.00     0.174 HD
ENDBRANCH  16  23
BRANCH  19  26
HETATM   26  N5  UNL     1       8.943   9.598   1.522  1.00  0.00    -0.204 N 
HETATM   27  C9  UNL     1       7.778   9.808   0.853  1.00  0.00     0.083 C 
ATOM     28  H5  UNL     1       9.461   8.921   0.961  1.00  0.00     0.183 HD
BRANCH  27  29
HETATM   29  C10 UNL     1       6.844  10.824   1.452  1.00  0.00     0.083 C 
BRANCH  29  30
HETATM   30  C11 UNL     1       5.852  10.171   2.366  1.00  0.00    -0.053 A 
HETATM   31  C12 UNL     1       4.808   9.463   1.826  1.00  0.00     0.007 A 
HETATM   32  C13 UNL     1       3.858   8.837   2.641  1.00  0.00     0.001 A 
HETATM   33  C14 UNL     1       3.993   8.947   4.006  1.00  0.00     0.000 A 
HETATM   34  C15 UNL     1       5.046   9.662   4.584  1.00  0.00     0.001 A 
HETATM   35  C16 UNL     1       5.955  10.259   3.728  1.00  0.00     0.007 A 
ENDBRANCH  29  30
ENDBRANCH  27  29
ENDBRANCH  19  26
ENDBRANCH  12  14
ENDBRANCH   5  12
BRANCH   9  36
HETATM   36  C20 UNL     1      15.271  10.639  -2.189  1.00  0.00     0.330 C 
BRANCH  36  37
HETATM   37  N7  UNL     1      16.105  11.678  -2.690  1.00  0.00     0.109 N 
HETATM   38  C21 UNL     1      17.463  11.624  -2.217  1.00  0.00     0.293 C 
HETATM   39  C22 UNL     1      18.076  10.249  -2.368  1.00  0.00     0.153 C 
HETATM   40  N8  UNL     1      17.848   9.736  -3.724  1.00  0.00    -0.358 N 
HETATM   41  C23 UNL     1      16.719  10.201  -4.484  1.00  0.00     0.251 C 
ATOM     42  H8  UNL     1      18.488   9.052  -4.126  1.00  0.00     0.162 HD
HETATM   43  O1  UNL     1      16.265   9.451  -5.383  1.00  0.00    -0.271 OA
HETATM   44  C24 UNL     1      16.180  11.539  -4.143  1.00  0.00     0.317 C 
BRANCH  44  45
HETATM   45  C25 UNL     1      14.869  11.723  -4.834  1.00  0.00     0.020 C 
HETATM   46  C26 UNL     1      14.127  12.954  -4.354  1.00  0.00     0.012 C 
HETATM   47  C27 UNL     1      15.180  11.966  -6.306  1.00  0.00     0.012 C 
ENDBRANCH  44  45
ENDBRANCH  36  37
ENDBRANCH   9  36
ENDBRANCH   3   4
TORSDOF 10
ENDMDL
MODEL 3
REMARK VINA RESULT: -10.166848227      1.461      1.686
REMARK  10 active torsions:
REMARK  status: ('A' for Active; 'I' for Inactive)
REMARK    1  A    between atoms: C3_3  and  C4_4 
REMARK    2  A    between atoms: C5_5  and  N1_6 
REMARK    3  A    between atoms: N1_6  and  C6_8 
REMARK    4  A    between atoms: C7_11  and  N3_12 
REMARK    5  A    between atoms: C8_17  and  N5_18 
REMARK    6  A    between atoms: C9_20  and  C10_21 
REMARK    7  A    between atoms: C10_21  and  C11_22 
REMARK    8  A    between atoms: C19_33  and  C20_34 
REMARK    9  A    between atoms: C20_34  and  N7_35 
REMARK   10  A    between atoms: C24_42  and  C25_43 
ROOT
HETATM    1  C1  UNL     1      16.045   6.405   4.597  1.00  0.00     0.112 C 
HETATM    2  C2  UNL     1      15.743   7.496   3.664  1.00  0.00    -0.104 C 
HETATM    3  C3  UNL     1      15.483   8.401   2.912  1.00  0.00    -0.047 C 
ENDROOT
BRANCH   3   4
HETATM    4  C4  UNL     1      15.152   9.502   2.020  1.00  0.00     0.117 A 
HETATM    5  C5  UNL     1      14.157  10.400   2.327  1.00  0.00     0.102 A 
HETATM    6  C17 UNL     1      13.888  11.420   1.446  1.00  0.00     0.043 A 
HETATM    7 BR1  UNL     1      12.497  12.680   1.871  1.00  0.00    -0.049 Br
HETATM    8  C18 UNL     1      14.597  11.545   0.277  1.00  0.00     0.048 A 
HETATM    9  C19 UNL     1      15.589  10.641  -0.018  1.00  0.00     0.042 A 
HETATM   10  N9  UNL     1      15.824   9.656   0.866  1.00  0.00    -0.344 N 
HETATM   11  C28 UNL     1      16.881   8.669   0.579  1.00  0.00     0.157 C 
BRANCH   5  12
HETATM   12  N1  UNL     1      13.454  10.227   3.549  1.00  0.00    -0.186 N 
ATOM     13  H1  UNL     1      13.899  10.534   4.414  1.00  0.00     0.184 HD
BRANCH  12  14
HETATM   14  C6  UNL     1      12.276   9.699   3.617  1.00  0.00     0.712 A 
HETATM   15  N2  UNL     1      11.992   8.465   3.187  1.00  0.00    -0.021 N 
HETATM   16  C7  UNL     1      10.743   7.961   3.280  1.00  0.00     0.705 A 
ATOM     17  H2  UNL     1      12.733   7.894   2.780  1.00  0.00     0.203 HD
HETATM   18  N4  UNL     1       9.738   8.679   3.810  1.00  0.00    -0.021 N 
HETATM   19  C8  UNL     1       9.999   9.922   4.250  1.00  0.00     0.710 A 
ATOM     20  H4  UNL     1       8.798   8.290   3.876  1.00  0.00     0.203 HD
HETATM   21  N6  UNL     1      11.287  10.410   4.141  1.00  0.00    -0.021 N 
ATOM     22  H6  UNL     1      11.485  11.354   4.475  1.00  0.00     0.203 HD
BRANCH  16  23
HETATM   23  N3  UNL     1      10.529   6.750   2.842  1.00  0.00    -0.234 N 
ATOM     24  H32 UNL     1       9.613   6.316   2.957  1.00  0.00     0.174 HD
ATOM     25  H31 UNL     1      11.297   6.257   2.387  1.00  0.00     0.174 HD
ENDBRANCH  16  23
BRANCH  19  26
HETATM   26  N5  UNL     1       9.158  10.671   4.753  1.00  0.00    -0.204 N 
HETATM   27  C9  UNL     1       7.941  10.834   5.338  1.00  0.00     0.083 C 
ATOM     28  H5  UNL     1       9.566  11.605   4.710  1.00  0.00     0.183 HD
BRANCH  27  29
HETATM   29  C10 UNL     1       7.146   9.579   5.574  1.00  0.00     0.083 C 
BRANCH  29  30
HETATM   30  C11 UNL     1       5.938   9.531   4.688  1.00  0.00    -0.053 A 
HETATM   31  C12 UNL     1       6.102   9.293   3.346  1.00  0.00     0.007 A 
HETATM   32  C13 UNL     1       5.004   9.240   2.480  1.00  0.00     0.001 A 
HETATM   33  C14 UNL     1       3.747   9.434   3.006  1.00  0.00     0.000 A 
HETATM   34  C15 UNL     1       3.551   9.679   4.368  1.00  0.00     0.001 A 
HETATM   35  C16 UNL     1       4.673   9.719   5.175  1.00  0.00     0.007 A 
ENDBRANCH  29  30
ENDBRANCH  27  29
ENDBRANCH  19  26
ENDBRANCH  12  14
ENDBRANCH   5  12
BRANCH   9  36
HETATM   36  C20 UNL     1      16.409  10.684  -1.235  1.00  0.00     0.330 C 
BRANCH  36  37
HETATM   37  N7  UNL     1      15.997  11.608  -2.236  1.00  0.00     0.109 N 
HETATM   38  C21 UNL     1      16.499  12.943  -2.048  1.00  0.00     0.293 C 
HETATM   39  C22 UNL     1      17.991  12.973  -1.797  1.00  0.00     0.153 C 
HETATM   40  N8  UNL     1      18.692  12.157  -2.795  1.00  0.00    -0.358 N 
HETATM   41  C23 UNL     1      18.007  11.070  -3.439  1.00  0.00     0.251 C 
ATOM     42  H8  UNL     1      19.663  12.361  -3.031  1.00  0.00     0.162 HD
HETATM   43  O1  UNL     1      18.698  10.123  -3.891  1.00  0.00    -0.271 OA
HETATM   44  C24 UNL     1      16.529  11.155  -3.520  1.00  0.00     0.317 C 
BRANCH  44  45
HETATM   45  C25 UNL     1      15.991   9.833  -3.962  1.00  0.00     0.020 C 
HETATM   46  C26 UNL     1      14.509   9.687  -3.685  1.00  0.00     0.012 C 
HETATM   47  C27 UNL     1      16.143   9.784  -5.477  1.00  0.00     0.012 C 
ENDBRANCH  44  45
ENDBRANCH  36  37
ENDBRANCH   9  36
ENDBRANCH   3   4
TORSDOF 10
ENDMDL
MODEL 4
REMARK VINA RESULT: -10.072727664      2.937      4.668
REMARK  10 active torsions:
REMARK  status: ('A' for Active; 'I' for Inactive)
REMARK    1  A    between atoms: C3_3  and  C4_4 
REMARK    2  A    between atoms: C5_5  and  N1_6 
REMARK    3  A    between atoms: N1_6  and  C6_8 
REMARK    4  A    between atoms: C7_11  and  N3_12 
REMARK    5  A    between atoms: C8_17  and  N5_18 
REMARK    6  A    between atoms: C9_20  and  C10_21 
REMARK    7  A    between atoms: C10_21  and  C11_22 
REMARK    8  A    between atoms: C19_33  and  C20_34 
REMARK    9  A    between atoms: C20_34  and  N7_35 
REMARK   10  A    between atoms: C24_42  and  C25_43 
ROOT
HETATM    1  C1  UNL     1      12.007  14.235   0.471  1.00  0.00     0.112 C 
HETATM    2  C2  UNL     1      12.605  13.004   0.997  1.00  0.00    -0.104 C 
HETATM    3  C3  UNL     1      13.113  11.995   1.416  1.00  0.00    -0.047 C 
ENDROOT
BRANCH   3   4
HETATM    4  C4  UNL     1      13.743  10.777   1.905  1.00  0.00     0.117 A 
HETATM    5  C5  UNL     1      13.365  10.203   3.096  1.00  0.00     0.102 A 
HETATM    6  C17 UNL     1      13.995   9.054   3.509  1.00  0.00     0.043 A 
HETATM    7 BR1  UNL     1      13.470   8.246   5.174  1.00  0.00    -0.049 Br
HETATM    8  C18 UNL     1      14.986   8.484   2.749  1.00  0.00     0.048 A 
HETATM    9  C19 UNL     1      15.355   9.067   1.560  1.00  0.00     0.042 A 
HETATM   10  N9  UNL     1      14.717  10.191   1.188  1.00  0.00    -0.344 N 
HETATM   11  C28 UNL     1      15.089  10.842  -0.081  1.00  0.00     0.157 C 
BRANCH   5  12
HETATM   12  N1  UNL     1      12.334  10.832   3.845  1.00  0.00    -0.186 N 
ATOM     13  H1  UNL     1      12.536  11.724   4.296  1.00  0.00     0.184 HD
BRANCH  12  14
HETATM   14  C6  UNL     1      11.152  10.327   3.980  1.00  0.00     0.712 A 
HETATM   15  N2  UNL     1      10.580  10.089   5.166  1.00  0.00    -0.021 N 
HETATM   16  C7  UNL     1       9.342   9.559   5.252  1.00  0.00     0.705 A 
ATOM     17  H2  UNL     1      11.090  10.313   6.021  1.00  0.00     0.203 HD
HETATM   18  N4  UNL     1       8.636   9.250   4.151  1.00  0.00    -0.021 N 
HETATM   19  C8  UNL     1       9.189   9.480   2.948  1.00  0.00     0.710 A 
ATOM     20  H4  UNL     1       7.702   8.849   4.227  1.00  0.00     0.203 HD
HETATM   21  N6  UNL     1      10.459  10.024   2.892  1.00  0.00    -0.021 N 
ATOM     22  H6  UNL     1      10.878  10.198   1.978  1.00  0.00     0.203 HD
BRANCH  16  23
HETATM   23  N3  UNL     1       8.838   9.350   6.438  1.00  0.00    -0.234 N 
ATOM     24  H32 UNL     1       9.354   8.803   7.128  1.00  0.00     0.174 HD
ATOM     25  H31 UNL     1       7.923   9.746   6.652  1.00  0.00     0.174 HD
ENDBRANCH  16  23
BRANCH  19  26
HETATM   26  N5  UNL     1       8.638   9.236   1.872  1.00  0.00    -0.204 N 
HETATM   27  C9  UNL     1       7.625   9.483   0.998  1.00  0.00     0.083 C 
ATOM     28  H5  UNL     1       9.207   8.513   1.433  1.00  0.00     0.183 HD
BRANCH  27  29
HETATM   29  C10 UNL     1       6.660  10.568   1.390  1.00  0.00     0.083 C 
BRANCH  29  30
HETATM   30  C11 UNL     1       5.674  10.073   2.404  1.00  0.00    -0.053 A 
HETATM   31  C12 UNL     1       4.690   9.202   2.010  1.00  0.00     0.007 A 
HETATM   32  C13 UNL     1       3.747   8.713   2.923  1.00  0.00     0.001 A 
HETATM   33  C14 UNL     1       3.829   9.129   4.232  1.00  0.00     0.000 A 
HETATM   34  C15 UNL     1       4.820  10.015   4.661  1.00  0.00     0.001 A 
HETATM   35  C16 UNL     1       5.725  10.464   3.714  1.00  0.00     0.007 A 
ENDBRANCH  29  30
ENDBRANCH  27  29
ENDBRANCH  19  26
ENDBRANCH  12  14
ENDBRANCH   5  12
BRANCH   9  36
HETATM   36  C20 UNL     1      16.396   8.540   0.670  1.00  0.00     0.330 C 
BRANCH  36  37
HETATM   37  N7  UNL     1      16.387   7.133   0.459  1.00  0.00     0.109 N 
HETATM   38  C21 UNL     1      15.222   6.649  -0.236  1.00  0.00     0.293 C 
HETATM   39  C22 UNL     1      14.928   7.437  -1.494  1.00  0.00     0.153 C 
HETATM   40  N8  UNL     1      16.143   7.580  -2.301  1.00  0.00    -0.358 N 
HETATM   41  C23 UNL     1      17.433   7.531  -1.667  1.00  0.00     0.251 C 
ATOM     42  H8  UNL     1      16.074   7.714  -3.310  1.00  0.00     0.162 HD
HETATM   43  O1  UNL     1      18.392   8.112  -2.235  1.00  0.00    -0.271 OA
HETATM   44  C24 UNL     1      17.529   6.792  -0.386  1.00  0.00     0.317 C 
BRANCH  44  45
HETATM   45  C25 UNL     1      18.852   7.083   0.243  1.00  0.00     0.020 C 
HETATM   46  C26 UNL     1      18.809   6.993   1.755  1.00  0.00     0.012 C 
HETATM   47  C27 UNL     1      19.806   5.989  -0.217  1.00  0.00     0.012 C 
ENDBRANCH  44  45
ENDBRANCH  36  37
ENDBRANCH   9  36
ENDBRANCH   3   4
TORSDOF 10
ENDMDL
MODEL 5
REMARK VINA RESULT: -9.871699973      1.940      2.775
REMARK  10 active torsions:
REMARK  status: ('A' for Active; 'I' for Inactive)
REMARK    1  A    between atoms: C3_3  and  C4_4 
REMARK    2  A    between atoms: C5_5  and  N1_6 
REMARK    3  A    between atoms: N1_6  and  C6_8 
REMARK    4  A    between atoms: C7_11  and  N3_12 
REMARK    5  A    between atoms: C8_17  and  N5_18 
REMARK    6  A    between atoms: C9_20  and  C10_21 
REMARK    7  A    between atoms: C10_21  and  C11_22 
REMARK    8  A    between atoms: C19_33  and  C20_34 
REMARK    9  A    between atoms: C20_34  and  N7_35 
REMARK   10  A    between atoms: C24_42  and  C25_43 
ROOT
HETATM    1  C1  UNL     1      15.302   6.757   6.789  1.00  0.00     0.112 C 
HETATM    2  C2  UNL     1      15.197   7.524   5.544  1.00  0.00    -0.104 C 
HETATM    3  C3  UNL     1      15.100   8.170   4.530  1.00  0.00    -0.047 C 
ENDROOT
BRANCH   3   4
HETATM    4  C4  UNL     1      14.968   8.964   3.318  1.00  0.00     0.117 A 
HETATM    5  C5  UNL     1      13.902   9.813   3.130  1.00  0.00     0.102 A 
HETATM    6  C17 UNL     1      13.829  10.538   1.965  1.00  0.00     0.043 A 
HETATM    7 BR1  UNL     1      12.341  11.728   1.696  1.00  0.00    -0.049 Br
HETATM    8  C18 UNL     1      14.800  10.422   1.002  1.00  0.00     0.048 A 
HETATM    9  C19 UNL     1      15.860   9.570   1.202  1.00  0.00     0.042 A 
HETATM   10  N9  UNL     1      15.899   8.876   2.353  1.00  0.00    -0.344 N 
HETATM   11  C28 UNL     1      17.022   7.954   2.598  1.00  0.00     0.157 C 
BRANCH   5  12
HETATM   12  N1  UNL     1      12.925   9.898   4.158  1.00  0.00    -0.186 N 
ATOM     13  H1  UNL     1      13.105  10.514   4.950  1.00  0.00     0.184 HD
BRANCH  12  14
HETATM   14  C6  UNL     1      11.818   9.232   4.136  1.00  0.00     0.712 A 
HETATM   15  N2  UNL     1      11.588   8.206   3.309  1.00  0.00    -0.021 N 
HETATM   16  C7  UNL     1      10.412   7.543   3.326  1.00  0.00     0.705 A 
ATOM     17  H2  UNL     1      12.315   7.919   2.653  1.00  0.00     0.203 HD
HETATM   18  N4  UNL     1       9.428   7.888   4.174  1.00  0.00    -0.021 N 
HETATM   19  C8  UNL     1       9.635   8.915   5.015  1.00  0.00     0.710 A 
ATOM     20  H4  UNL     1       8.543   7.382   4.179  1.00  0.00     0.203 HD
HETATM   21  N6  UNL     1      10.850   9.575   4.974  1.00  0.00    -0.021 N 
ATOM     22  H6  UNL     1      11.007  10.355   5.613  1.00  0.00     0.203 HD
BRANCH  16  23
HETATM   23  N3  UNL     1      10.248   6.550   2.495  1.00  0.00    -0.234 N 
ATOM     24  H32 UNL     1      11.046   6.161   1.993  1.00  0.00     0.174 HD
ATOM     25  H31 UNL     1       9.306   6.180   2.363  1.00  0.00     0.174 HD
ENDBRANCH  16  23
BRANCH  19  26
HETATM   26  N5  UNL     1       8.807   9.321   5.834  1.00  0.00    -0.204 N 
HETATM   27  C9  UNL     1       7.726  10.096   6.114  1.00  0.00     0.083 C 
ATOM     28  H5  UNL     1       9.044   8.858   6.711  1.00  0.00     0.183 HD
BRANCH  27  29
HETATM   29  C10 UNL     1       7.135  10.853   4.956  1.00  0.00     0.083 C 
BRANCH  29  30
HETATM   30  C11 UNL     1       5.919  10.160   4.422  1.00  0.00    -0.053 A 
HETATM   31  C12 UNL     1       5.922   9.704   3.128  1.00  0.00     0.007 A 
HETATM   32  C13 UNL     1       4.809   9.051   2.587  1.00  0.00     0.001 A 
HETATM   33  C14 UNL     1       3.703   8.874   3.386  1.00  0.00     0.000 A 
HETATM   34  C15 UNL     1       3.671   9.327   4.707  1.00  0.00     0.001 A 
HETATM   35  C16 UNL     1       4.801   9.966   5.188  1.00  0.00     0.007 A 
ENDBRANCH  29  30
ENDBRANCH  27  29
ENDBRANCH  19  26
ENDBRANCH  12  14
ENDBRANCH   5  12
BRANCH   9  36
HETATM   36  C20 UNL     1      16.953   9.373   0.242  1.00  0.00     0.330 C 
BRANCH  36  37
HETATM   37  N7  UNL     1      17.634  10.549  -0.182  1.00  0.00     0.109 N 
HETATM   38  C21 UNL     1      18.796  10.872   0.603  1.00  0.00     0.293 C 
HETATM   39  C22 UNL     1      19.720   9.689   0.788  1.00  0.00     0.153 C 
HETATM   40  N8  UNL     1      19.978   9.038  -0.501  1.00  0.00    -0.358 N 
HETATM   41  C23 UNL     1      19.014   9.147  -1.563  1.00  0.00     0.251 C 
ATOM     42  H8  UNL     1      20.838   8.509  -0.644  1.00  0.00     0.162 HD
HETATM   43  O1  UNL     1      18.993   8.243  -2.435  1.00  0.00    -0.271 OA
HETATM   44  C24 UNL     1      18.118  10.327  -1.543  1.00  0.00     0.317 C 
BRANCH  44  45
HETATM   45  C25 UNL     1      17.028  10.124  -2.544  1.00  0.00     0.020 C 
HETATM   46  C26 UNL     1      15.905  11.130  -2.393  1.00  0.00     0.012 C 
HETATM   47  C27 UNL     1      17.640  10.380  -3.916  1.00  0.00     0.012 C 
ENDBRANCH  44  45
ENDBRANCH  36  37
ENDBRANCH   9  36
ENDBRANCH   3   4
TORSDOF 10
ENDMDL
