MODEL 1
REMARK VINA RESULT: -8.707877398      0.000      0.000
REMARK  9 active torsions:
REMARK  status: ('A' for Active; 'I' for Inactive)
REMARK    1  A    between atoms: C2_2  and  C3_3 
REMARK    2  A    between atoms: C3_3  and  C4_4 
REMARK    3  A    between atoms: C8_11  and  C9_12 
REMARK    4  A    between atoms: C9_12  and  C10_13 
REMARK    5  A    between atoms: C10_13  and  C11_14 
REMARK    6  A    between atoms: C11_14  and  N2_15 
REMARK       I    between atoms: N2_15  and  C12_17 
REMARK       I    between atoms: C12_17  and  N4_24 
REMARK    7  A    between atoms: N3_18  and  C13_20 
REMARK    8  A    between atoms: C13_20  and  S2_22 
REMARK       I    between atoms: N4_24  and  C15_26 
REMARK    9  A    between atoms: C15_26  and  C16_28 
ROOT
HETATM    1  C4  UNL     1      15.620  10.843  -3.876  1.00  0.00     0.112 C 
HETATM    2  C5  UNL     1      15.042  10.812  -2.426  1.00  0.00     0.122 C 
HETATM    3  C6  UNL     1      15.787  11.797  -1.603  1.00  0.00     0.130 C 
HETATM    4  C7  UNL     1      14.921  12.651  -0.751  1.00  0.00     0.221 C 
HETATM    5  O1  UNL     1      14.673  13.822  -1.216  1.00  0.00    -0.273 OA
HETATM    6  N1  UNL     1      14.362  12.323   0.475  1.00  0.00    -0.340 N 
ATOM      7  H1  UNL     1      14.514  12.970   1.249  1.00  0.00     0.164 HD
HETATM    8  C8  UNL     1      13.555  11.096   0.752  1.00  0.00     0.188 C 
HETATM    9  N5  UNL     1      14.481  10.242   1.447  1.00  0.00    -0.322 N 
ATOM     10  H5  UNL     1      14.635  10.458   2.432  1.00  0.00     0.166 HD
HETATM   11  C17 UNL     1      15.201   9.144   0.936  1.00  0.00     0.319 C 
HETATM   12  O3  UNL     1      16.324   8.946   1.556  1.00  0.00    -0.247 OA
HETATM   13  N6  UNL     1      14.891   8.269  -0.106  1.00  0.00    -0.327 N 
ATOM     14  H6  UNL     1      14.884   7.282   0.154  1.00  0.00     0.165 HD
HETATM   15  C18 UNL     1      14.580   8.526  -1.474  1.00  0.00     0.256 C 
HETATM   16  N7  UNL     1      15.464   9.435  -2.118  1.00  0.00    -0.311 N 
HETATM   17  C19 UNL     1      16.795   9.382  -2.616  1.00  0.00     0.322 C 
HETATM   18  O4  UNL     1      17.671   8.519  -2.356  1.00  0.00    -0.247 OA
HETATM   19  N8  UNL     1      16.973  10.527  -3.502  1.00  0.00    -0.332 N 
HETATM   20  C20 UNL     1      18.185  11.157  -3.872  1.00  0.00     0.155 C 
ENDROOT
BRANCH   8  21
HETATM   21  C9  UNL     1      12.391  11.595   1.522  1.00  0.00     0.048 C 
BRANCH  21  22
HETATM   22  C10 UNL     1      12.334  11.505   2.979  1.00  0.00     0.024 C 
BRANCH  22  23
HETATM   23  C11 UNL     1      11.091  10.859   3.503  1.00  0.00     0.138 C 
BRANCH  23  24
HETATM   24  N2  UNL     1      11.382   9.591   4.172  1.00  0.00    -0.226 N 
HETATM   25  C12 UNL     1      11.040   8.317   3.692  1.00  0.00     0.682 C 
HETATM   26  N3  UNL     1       9.841   7.973   3.465  1.00  0.00    -0.175 N 
HETATM   27  N4  UNL     1      12.063   7.321   3.433  1.00  0.00    -0.159 N 
ATOM     28  H3  UNL     1       9.728   7.021   3.116  1.00  0.00     0.185 HD
HETATM   29  C15 UNL     1      13.425   7.580   3.658  1.00  0.00     0.245 C 
ATOM     30  H4  UNL     1      11.785   6.406   3.078  1.00  0.00     0.187 HD
HETATM   31  O2  UNL     1      13.874   8.664   4.095  1.00  0.00    -0.272 OA
ATOM     32  H2  UNL     1      11.875   9.636   5.064  1.00  0.00     0.177 HD
BRANCH  26  33
HETATM   33  C13 UNL     1       8.654   8.688   3.616  1.00  0.00     0.153 C 
HETATM   34  S1  UNL     1       7.859   9.327   2.318  1.00  0.00    -0.052 SA
BRANCH  33  35
HETATM   35  S2  UNL     1       7.915   8.934   5.232  1.00  0.00    -0.104 SA
HETATM   36  C14 UNL     1       6.508  10.056   5.053  1.00  0.00     0.098 C 
ENDBRANCH  33  35
ENDBRANCH  26  33
BRANCH  29  37
HETATM   37  C16 UNL     1      14.424   6.515   3.369  1.00  0.00     0.188 C 
HETATM   38 BR1  UNL     1      15.997   6.699   4.447  1.00  0.00    -0.087 Br
ENDBRANCH  29  37
ENDBRANCH  23  24
ENDBRANCH  22  23
ENDBRANCH  21  22
ENDBRANCH   8  21
BRANCH   1  39
HETATM   39  C3  UNL     1      15.361  12.136  -4.526  1.00  0.00     0.027 C 
BRANCH  39  40
HETATM   40  C2  UNL     1      14.822  11.983  -5.925  1.00  0.00    -0.002 C 
HETATM   41  C1  UNL     1      15.940  11.606  -6.899  1.00  0.00     0.005 C 
ENDBRANCH  39  40
ENDBRANCH   1  39
TORSDOF 9
ENDMDL
MODEL 2
REMARK VINA RESULT: -8.433540742      2.591      3.435
REMARK  9 active torsions:
REMARK  status: ('A' for Active; 'I' for Inactive)
REMARK    1  A    between atoms: C2_2  and  C3_3 
REMARK    2  A    between atoms: C3_3  and  C4_4 
REMARK    3  A    between atoms: C8_11  and  C9_12 
REMARK    4  A    between atoms: C9_12  and  C10_13 
REMARK    5  A    between atoms: C10_13  and  C11_14 
REMARK    6  A    between atoms: C11_14  and  N2_15 
REMARK       I    between atoms: N2_15  and  C12_17 
REMARK       I    between atoms: C12_17  and  N4_24 
REMARK    7  A    between atoms: N3_18  and  C13_20 
REMARK    8  A    between atoms: C13_20  and  S2_22 
REMARK       I    between atoms: N4_24  and  C15_26 
REMARK    9  A    between atoms: C15_26  and  C16_28 
ROOT
HETATM    1  C4  UNL     1      15.598  10.849  -4.048  1.00  0.00     0.112 C 
HETATM    2  C5  UNL     1      15.005  10.788  -2.606  1.00  0.00     0.122 C 
HETATM    3  C6  UNL     1      15.730  11.766  -1.758  1.00  0.00     0.130 C 
HETATM    4  C7  UNL     1      14.846  12.598  -0.901  1.00  0.00     0.221 C 
HETATM    5  O1  UNL     1      14.592  13.774  -1.350  1.00  0.00    -0.273 OA
HETATM    6  N1  UNL     1      14.277  12.243   0.312  1.00  0.00    -0.340 N 
ATOM      7  H1  UNL     1      14.414  12.879   1.099  1.00  0.00     0.164 HD
HETATM    8  C8  UNL     1      13.479  11.004   0.560  1.00  0.00     0.188 C 
HETATM    9  N5  UNL     1      14.406  10.148   1.251  1.00  0.00    -0.322 N 
ATOM     10  H5  UNL     1      14.547  10.349   2.240  1.00  0.00     0.166 HD
HETATM   11  C17 UNL     1      15.143   9.066   0.729  1.00  0.00     0.319 C 
HETATM   12  O3  UNL     1      16.261   8.868   1.359  1.00  0.00    -0.247 OA
HETATM   13  N6  UNL     1      14.853   8.205  -0.330  1.00  0.00    -0.327 N 
ATOM     14  H6  UNL     1      14.853   7.214  -0.087  1.00  0.00     0.165 HD
HETATM   15  C18 UNL     1      14.555   8.483  -1.698  1.00  0.00     0.256 C 
HETATM   16  N7  UNL     1      15.437   9.411  -2.316  1.00  0.00    -0.311 N 
HETATM   17  C19 UNL     1      16.774   9.379  -2.800  1.00  0.00     0.322 C 
HETATM   18  O4  UNL     1      17.655   8.520  -2.545  1.00  0.00    -0.247 OA
HETATM   19  N8  UNL     1      16.950  10.541  -3.664  1.00  0.00    -0.332 N 
HETATM   20  C20 UNL     1      18.160  11.189  -4.010  1.00  0.00     0.155 C 
ENDROOT
BRANCH   8  21
HETATM   21  C9  UNL     1      12.302  11.479   1.324  1.00  0.00     0.048 C 
BRANCH  21  22
HETATM   22  C10 UNL     1      12.389  11.814   2.744  1.00  0.00     0.024 C 
BRANCH  22  23
HETATM   23  C11 UNL     1      12.396  10.626   3.653  1.00  0.00     0.138 C 
BRANCH  23  24
HETATM   24  N2  UNL     1      11.557   9.545   3.136  1.00  0.00    -0.226 N 
HETATM   25  C12 UNL     1      11.028   8.488   3.893  1.00  0.00     0.682 C 
HETATM   26  N3  UNL     1      11.760   7.674   4.532  1.00  0.00    -0.175 N 
HETATM   27  N4  UNL     1       9.595   8.277   3.976  1.00  0.00    -0.159 N 
ATOM     28  H3  UNL     1      11.252   6.953   5.044  1.00  0.00     0.185 HD
HETATM   29  C15 UNL     1       8.682   9.106   3.302  1.00  0.00     0.245 C 
ATOM     30  H4  UNL     1       9.239   7.505   4.539  1.00  0.00     0.187 HD
HETATM   31  O2  UNL     1       9.009  10.077   2.582  1.00  0.00    -0.272 OA
ATOM     32  H2  UNL     1      11.338   9.561   2.140  1.00  0.00     0.177 HD
BRANCH  26  33
HETATM   33  C13 UNL     1      13.148   7.607   4.645  1.00  0.00     0.153 C 
HETATM   34  S1  UNL     1      14.078   6.912   3.471  1.00  0.00    -0.052 SA
BRANCH  33  35
HETATM   35  S2  UNL     1      14.001   8.296   6.065  1.00  0.00    -0.104 SA
HETATM   36  C14 UNL     1      14.570   6.932   7.106  1.00  0.00     0.098 C 
ENDBRANCH  33  35
ENDBRANCH  26  33
BRANCH  29  37
HETATM   37  C16 UNL     1       7.224   8.836   3.431  1.00  0.00     0.188 C 
HETATM   38 BR1  UNL     1       6.435   9.841   4.858  1.00  0.00    -0.087 Br
ENDBRANCH  29  37
ENDBRANCH  23  24
ENDBRANCH  22  23
ENDBRANCH  21  22
ENDBRANCH   8  21
BRANCH   1  39
HETATM   39  C3  UNL     1      15.334  12.150  -4.680  1.00  0.00     0.027 C 
BRANCH  39  40
HETATM   40  C2  UNL     1      14.810  12.016  -6.086  1.00  0.00    -0.002 C 
HETATM   41  C1  UNL     1      15.942  11.662  -7.054  1.00  0.00     0.005 C 
ENDBRANCH  39  40
ENDBRANCH   1  39
TORSDOF 9
ENDMDL
MODEL 3
REMARK VINA RESULT: -8.339195533      1.124      1.342
REMARK  9 active torsions:
REMARK  status: ('A' for Active; 'I' for Inactive)
REMARK    1  A    between atoms: C2_2  and  C3_3 
REMARK    2  A    between atoms: C3_3  and  C4_4 
REMARK    3  A    between atoms: C8_11  and  C9_12 
REMARK    4  A    between atoms: C9_12  and  C10_13 
REMARK    5  A    between atoms: C10_13  and  C11_14 
REMARK    6  A    between atoms: C11_14  and  N2_15 
REMARK       I    between atoms: N2_15  and  C12_17 
REMARK       I    between atoms: C12_17  and  N4_24 
REMARK    7  A    between atoms: N3_18  and  C13_20 
REMARK    8  A    between atoms: C13_20  and  S2_22 
REMARK       I    between atoms: N4_24  and  C15_26 
REMARK    9  A    between atoms: C15_26  and  C16_28 
ROOT
HETATM    1  C4  UNL     1      16.583   9.917  -3.640  1.00  0.00     0.112 C 
HETATM    2  C5  UNL     1      15.756  10.099  -2.329  1.00  0.00     0.122 C 
HETATM    3  C6  UNL     1      16.500  11.015  -1.427  1.00  0.00     0.130 C 
HETATM    4  C7  UNL     1      15.657  12.065  -0.802  1.00  0.00     0.221 C 
HETATM    5  O1  UNL     1      15.706  13.219  -1.364  1.00  0.00    -0.273 OA
HETATM    6  N1  UNL     1      14.837  11.933   0.308  1.00  0.00    -0.340 N 
ATOM      7  H1  UNL     1      14.957  12.609   1.064  1.00  0.00     0.164 HD
HETATM    8  C8  UNL     1      13.791  10.881   0.486  1.00  0.00     0.188 C 
HETATM    9  N5  UNL     1      14.412   9.948   1.388  1.00  0.00    -0.322 N 
ATOM     10  H5  UNL     1      14.420  10.217   2.372  1.00  0.00     0.166 HD
HETATM   11  C17 UNL     1      15.010   8.709   1.081  1.00  0.00     0.319 C 
HETATM   12  O3  UNL     1      15.949   8.383   1.914  1.00  0.00    -0.247 OA
HETATM   13  N6  UNL     1      14.745   7.813   0.044  1.00  0.00    -0.327 N 
ATOM     14  H6  UNL     1      14.519   6.866   0.347  1.00  0.00     0.165 HD
HETATM   15  C18 UNL     1      14.737   8.005  -1.370  1.00  0.00     0.256 C 
HETATM   16  N7  UNL     1      15.868   8.702  -1.876  1.00  0.00    -0.311 N 
HETATM   17  C19 UNL     1      17.237   8.393  -2.105  1.00  0.00     0.322 C 
HETATM   18  O4  UNL     1      17.887   7.424  -1.639  1.00  0.00    -0.247 OA
HETATM   19  N8  UNL     1      17.770   9.418  -2.997  1.00  0.00    -0.332 N 
HETATM   20  C20 UNL     1      19.120   9.811  -3.158  1.00  0.00     0.155 C 
ENDROOT
BRANCH   8  21
HETATM   21  C9  UNL     1      12.612  11.623   0.991  1.00  0.00     0.048 C 
BRANCH  21  22
HETATM   22  C10 UNL     1      12.307  11.706   2.418  1.00  0.00     0.024 C 
BRANCH  22  23
HETATM   23  C11 UNL     1      11.111  10.909   2.834  1.00  0.00     0.138 C 
BRANCH  23  24
HETATM   24  N2  UNL     1      11.386  10.104   4.024  1.00  0.00    -0.226 N 
HETATM   25  C12 UNL     1      11.032   8.757   4.198  1.00  0.00     0.682 C 
HETATM   26  N3  UNL     1       9.831   8.357   4.152  1.00  0.00    -0.175 N 
HETATM   27  N4  UNL     1      12.045   7.749   4.448  1.00  0.00    -0.159 N 
ATOM     28  H3  UNL     1       9.708   7.354   4.292  1.00  0.00     0.185 HD
HETATM   29  C15 UNL     1      13.409   8.072   4.534  1.00  0.00     0.245 C 
ATOM     30  H4  UNL     1      11.758   6.777   4.564  1.00  0.00     0.187 HD
HETATM   31  O2  UNL     1      13.869   9.230   4.411  1.00  0.00    -0.272 OA
ATOM     32  H2  UNL     1      11.878  10.561   4.793  1.00  0.00     0.177 HD
BRANCH  26  33
HETATM   33  C13 UNL     1       8.651   9.069   3.940  1.00  0.00     0.153 C 
HETATM   34  S1  UNL     1       7.820   9.757   5.190  1.00  0.00    -0.052 SA
BRANCH  33  35
HETATM   35  S2  UNL     1       7.984   9.295   2.290  1.00  0.00    -0.104 SA
HETATM   36  C14 UNL     1       6.275   9.866   2.437  1.00  0.00     0.098 C 
ENDBRANCH  33  35
ENDBRANCH  26  33
BRANCH  29  37
HETATM   37  C16 UNL     1      14.398   6.988   4.789  1.00  0.00     0.188 C 
HETATM   38 BR1  UNL     1      14.762   6.778   6.658  1.00  0.00    -0.087 Br
ENDBRANCH  29  37
ENDBRANCH  23  24
ENDBRANCH  22  23
ENDBRANCH  21  22
ENDBRANCH   8  21
BRANCH   1  39
HETATM   39  C3  UNL     1      16.676  11.177  -4.391  1.00  0.00     0.027 C 
BRANCH  39  40
HETATM   40  C2  UNL     1      15.982  11.107  -5.727  1.00  0.00    -0.002 C 
HETATM   41  C1  UNL     1      16.856  10.384  -6.755  1.00  0.00     0.005 C 
ENDBRANCH  39  40
ENDBRANCH   1  39
TORSDOF 9
ENDMDL
MODEL 4
REMARK VINA RESULT: -8.262525822      2.698      3.726
REMARK  9 active torsions:
REMARK  status: ('A' for Active; 'I' for Inactive)
REMARK    1  A    between atoms: C2_2  and  C3_3 
REMARK    2  A    between atoms: C3_3  and  C4_4 
REMARK    3  A    between atoms: C8_11  and  C9_12 
REMARK    4  A    between atoms: C9_12  and  C10_13 
REMARK    5  A    between atoms: C10_13  and  C11_14 
REMARK    6  A    between atoms: C11_14  and  N2_15 
REMARK       I    between atoms: N2_15  and  C12_17 
REMARK       I    between atoms: C12_17  and  N4_24 
REMARK    7  A    between atoms: N3_18  and  C13_20 
REMARK    8  A    between atoms: C13_20  and  S2_22 
REMARK       I    between atoms: N4_24  and  C15_26 
REMARK    9  A    between atoms: C15_26  and  C16_28 
ROOT
HETATM    1  C4  UNL     1      16.672   9.932  -3.662  1.00  0.00     0.112 C 
HETATM    2  C5  UNL     1      16.003  10.167  -2.272  1.00  0.00     0.122 C 
HETATM    3  C6  UNL     1      16.307  11.551  -1.831  1.00  0.00     0.130 C 
HETATM    4  C7  UNL     1      15.135  12.285  -1.289  1.00  0.00     0.221 C 
HETATM    5  O1  UNL     1      14.565  13.094  -2.108  1.00  0.00    -0.273 OA
HETATM    6  N1  UNL     1      14.602  12.191  -0.013  1.00  0.00    -0.340 N 
ATOM      7  H1  UNL     1      14.462  13.060   0.503  1.00  0.00     0.164 HD
HETATM    8  C8  UNL     1      14.214  10.918   0.667  1.00  0.00     0.188 C 
HETATM    9  N5  UNL     1      15.298  10.691   1.585  1.00  0.00    -0.322 N 
ATOM     10  H5  UNL     1      15.281  11.245   2.441  1.00  0.00     0.166 HD
HETATM   11  C17 UNL     1      16.380   9.799   1.448  1.00  0.00     0.319 C 
HETATM   12  O3  UNL     1      17.444  10.197   2.077  1.00  0.00    -0.247 OA
HETATM   13  N6  UNL     1      16.470   8.590   0.757  1.00  0.00    -0.327 N 
ATOM     14  H6  UNL     1      16.760   7.794   1.326  1.00  0.00     0.165 HD
HETATM   15  C18 UNL     1      16.221   8.283  -0.614  1.00  0.00     0.256 C 
HETATM   16  N7  UNL     1      16.818   9.185  -1.537  1.00  0.00    -0.311 N 
HETATM   17  C19 UNL     1      18.135   9.429  -2.016  1.00  0.00     0.322 C 
HETATM   18  O4  UNL     1      19.215   9.041  -1.505  1.00  0.00    -0.247 OA
HETATM   19  N8  UNL     1      18.013  10.227  -3.231  1.00  0.00    -0.332 N 
HETATM   20  C20 UNL     1      18.984  11.078  -3.811  1.00  0.00     0.155 C 
ENDROOT
BRANCH   8  21
HETATM   21  C9  UNL     1      12.885  11.210   1.252  1.00  0.00     0.048 C 
BRANCH  21  22
HETATM   22  C10 UNL     1      12.729  11.607   2.650  1.00  0.00     0.024 C 
BRANCH  22  23
HETATM   23  C11 UNL     1      12.679  10.459   3.609  1.00  0.00     0.138 C 
BRANCH  23  24
HETATM   24  N2  UNL     1      11.808   9.389   3.125  1.00  0.00    -0.226 N 
HETATM   25  C12 UNL     1      11.256   8.366   3.912  1.00  0.00     0.682 C 
HETATM   26  N3  UNL     1      11.969   7.549   4.567  1.00  0.00    -0.175 N 
HETATM   27  N4  UNL     1       9.818   8.196   4.008  1.00  0.00    -0.159 N 
ATOM     28  H3  UNL     1      11.446   6.855   5.101  1.00  0.00     0.185 HD
HETATM   29  C15 UNL     1       8.923   9.031   3.319  1.00  0.00     0.245 C 
ATOM     30  H4  UNL     1       9.445   7.448   4.593  1.00  0.00     0.187 HD
HETATM   31  O2  UNL     1       9.272   9.975   2.573  1.00  0.00    -0.272 OA
ATOM     32  H2  UNL     1      11.582   9.385   2.129  1.00  0.00     0.177 HD
BRANCH  26  33
HETATM   33  C13 UNL     1      13.356   7.448   4.673  1.00  0.00     0.153 C 
HETATM   34  S1  UNL     1      14.142   7.798   6.082  1.00  0.00    -0.052 SA
BRANCH  33  35
HETATM   35  S2  UNL     1      14.359   6.910   3.287  1.00  0.00    -0.104 SA
HETATM   36  C14 UNL     1      15.965   6.370   3.918  1.00  0.00     0.098 C 
ENDBRANCH  33  35
ENDBRANCH  26  33
BRANCH  29  37
HETATM   37  C16 UNL     1       7.459   8.804   3.464  1.00  0.00     0.188 C 
HETATM   38 BR1  UNL     1       6.716   9.826   4.905  1.00  0.00    -0.087 Br
ENDBRANCH  29  37
ENDBRANCH  23  24
ENDBRANCH  22  23
ENDBRANCH  21  22
ENDBRANCH   8  21
BRANCH   1  39
HETATM   39  C3  UNL     1      16.069  10.787  -4.695  1.00  0.00     0.027 C 
BRANCH  39  40
HETATM   40  C2  UNL     1      16.374  10.310  -6.091  1.00  0.00    -0.002 C 
HETATM   41  C1  UNL     1      16.536  11.496  -7.046  1.00  0.00     0.005 C 
ENDBRANCH  39  40
ENDBRANCH   1  39
TORSDOF 9
ENDMDL
MODEL 5
REMARK VINA RESULT: -8.111419863      2.733      3.757
REMARK  9 active torsions:
REMARK  status: ('A' for Active; 'I' for Inactive)
REMARK    1  A    between atoms: C2_2  and  C3_3 
REMARK    2  A    between atoms: C3_3  and  C4_4 
REMARK    3  A    between atoms: C8_11  and  C9_12 
REMARK    4  A    between atoms: C9_12  and  C10_13 
REMARK    5  A    between atoms: C10_13  and  C11_14 
REMARK    6  A    between atoms: C11_14  and  N2_15 
REMARK       I    between atoms: N2_15  and  C12_17 
REMARK       I    between atoms: C12_17  and  N4_24 
REMARK    7  A    between atoms: N3_18  and  C13_20 
REMARK    8  A    between atoms: C13_20  and  S2_22 
REMARK       I    between atoms: N4_24  and  C15_26 
REMARK    9  A    between atoms: C15_26  and  C16_28 
ROOT
HETATM    1  C4  UNL     1      16.155  10.224  -4.065  1.00  0.00     0.112 C 
HETATM    2  C5  UNL     1      15.584  10.558  -2.652  1.00  0.00     0.122 C 
HETATM    3  C6  UNL     1      16.354  11.697  -2.091  1.00  0.00     0.130 C 
HETATM    4  C7  UNL     1      15.510  12.751  -1.472  1.00  0.00     0.221 C 
HETATM    5  O1  UNL     1      15.284  13.779  -2.208  1.00  0.00    -0.273 OA
HETATM    6  N1  UNL     1      14.950  12.741  -0.204  1.00  0.00    -0.340 N 
ATOM      7  H1  UNL     1      15.120  13.554   0.390  1.00  0.00     0.164 HD
HETATM    8  C8  UNL     1      14.119  11.636   0.363  1.00  0.00     0.188 C 
HETATM    9  N5  UNL     1      15.029  10.957   1.244  1.00  0.00    -0.322 N 
ATOM     10  H5  UNL     1      15.193  11.402   2.147  1.00  0.00     0.166 HD
HETATM   11  C17 UNL     1      15.724   9.752   1.015  1.00  0.00     0.319 C 
HETATM   12  O3  UNL     1      16.846   9.686   1.665  1.00  0.00    -0.247 OA
HETATM   13  N6  UNL     1      15.390   8.657   0.217  1.00  0.00    -0.327 N 
ATOM     14  H6  UNL     1      15.365   7.764   0.708  1.00  0.00     0.165 HD
HETATM   15  C18 UNL     1      15.079   8.582  -1.173  1.00  0.00     0.256 C 
HETATM   16  N7  UNL     1      15.979   9.288  -2.018  1.00  0.00    -0.311 N 
HETATM   17  C19 UNL     1      17.306   9.087  -2.488  1.00  0.00     0.322 C 
HETATM   18  O4  UNL     1      18.164   8.294  -2.026  1.00  0.00    -0.247 OA
HETATM   19  N8  UNL     1      17.504   9.979  -3.625  1.00  0.00    -0.332 N 
HETATM   20  C20 UNL     1      18.727  10.474  -4.137  1.00  0.00     0.155 C 
ENDROOT
BRANCH   8  21
HETATM   21  C9  UNL     1      12.969  12.332   0.987  1.00  0.00     0.048 C 
BRANCH  21  22
HETATM   22  C10 UNL     1      11.787  11.608   1.448  1.00  0.00     0.024 C 
BRANCH  22  23
HETATM   23  C11 UNL     1      11.922  11.027   2.821  1.00  0.00     0.138 C 
BRANCH  23  24
HETATM   24  N2  UNL     1      11.088   9.837   2.988  1.00  0.00    -0.226 N 
HETATM   25  C12 UNL     1      10.848   9.172   4.201  1.00  0.00     0.682 C 
HETATM   26  N3  UNL     1      11.780   8.671   4.899  1.00  0.00    -0.175 N 
HETATM   27  N4  UNL     1       9.499   9.024   4.713  1.00  0.00    -0.159 N 
ATOM     28  H3  UNL     1      11.473   8.217   5.759  1.00  0.00     0.185 HD
HETATM   29  C15 UNL     1       8.383   9.525   4.023  1.00  0.00     0.245 C 
ATOM     30  H4  UNL     1       9.356   8.541   5.600  1.00  0.00     0.187 HD
HETATM   31  O2  UNL     1       8.444  10.128   2.928  1.00  0.00    -0.272 OA
ATOM     32  H2  UNL     1      10.642   9.459   2.152  1.00  0.00     0.177 HD
BRANCH  26  33
HETATM   33  C13 UNL     1      13.156   8.643   4.678  1.00  0.00     0.153 C 
HETATM   34  S1  UNL     1      14.192   9.580   5.559  1.00  0.00    -0.052 SA
BRANCH  33  35
HETATM   35  S2  UNL     1      13.878   7.568   3.437  1.00  0.00    -0.104 SA
HETATM   36  C14 UNL     1      15.580   7.198   3.920  1.00  0.00     0.098 C 
ENDBRANCH  33  35
ENDBRANCH  26  33
BRANCH  29  37
HETATM   37  C16 UNL     1       7.026   9.341   4.606  1.00  0.00     0.188 C 
HETATM   38 BR1  UNL     1       5.644   9.769   3.350  1.00  0.00    -0.087 Br
ENDBRANCH  29  37
ENDBRANCH  23  24
ENDBRANCH  22  23
ENDBRANCH  21  22
ENDBRANCH   8  21
BRANCH   1  39
HETATM   39  C3  UNL     1      15.921  11.325  -5.009  1.00  0.00     0.027 C 
BRANCH  39  40
HETATM   40  C2  UNL     1      14.462  11.681  -5.134  1.00  0.00    -0.002 C 
HETATM   41  C1  UNL     1      14.295  13.129  -5.600  1.00  0.00     0.005 C 
ENDBRANCH  39  40
ENDBRANCH   1  39
TORSDOF 9
ENDMDL
