MODEL 1
REMARK VINA RESULT: -6.970000047      0.000      0.000
REMARK  10 active torsions:
REMARK  status: ('A' for Active; 'I' for Inactive)
REMARK    1  A    between atoms: C2_2  and  C3_3 
REMARK    2  A    between atoms: C3_3  and  C4_4 
REMARK    3  A    between atoms: C6_9  and  C7_10 
REMARK    4  A    between atoms: C7_10  and  C8_11 
REMARK    5  A    between atoms: C8_11  and  N2_12 
REMARK    6  A    between atoms: N2_12  and  C9_15 
REMARK    7  A    between atoms: C17_27  and  C18_28 
REMARK    8  A    between atoms: C18_28  and  C19_29 
REMARK    9  A    between atoms: C22_34  and  O3_35 
REMARK   10  A    between atoms: C26_41  and  O4_42 
ROOT
HETATM    1  C4  UNL     1      10.394  32.966  22.269  1.00  0.00     0.159 C 
HETATM    2  N1  UNL     1      11.148  32.053  21.390  1.00  0.00    -0.347 N 
ATOM      3  H1  UNL     1      12.028  31.691  21.756  1.00  0.00     0.163 HD
HETATM    4  C5  UNL     1      10.786  31.635  20.115  1.00  0.00     0.249 C 
HETATM    5  O1  UNL     1      10.780  30.373  19.874  1.00  0.00    -0.271 OA
HETATM    6  C6  UNL     1      10.389  32.472  18.949  1.00  0.00     0.278 C 
HETATM    7  N3  UNL     1       8.932  32.441  18.751  1.00  0.00    -0.062 N 
ATOM      8  H31 UNL     1       8.419  32.349  19.628  1.00  0.00     0.278 HD
ATOM      9  H32 UNL     1       8.614  31.576  18.312  1.00  0.00     0.278 HD
HETATM   10  C13 UNL     1       8.549  33.612  18.007  1.00  0.00     0.233 C 
HETATM   11  C14 UNL     1       8.508  34.774  18.942  1.00  0.00     0.035 C 
HETATM   12  C15 UNL     1       7.346  35.729  18.664  1.00  0.00     0.082 C 
HETATM   13  C16 UNL     1       7.580  36.864  19.638  1.00  0.00     0.149 C 
HETATM   14  O2  UNL     1       8.059  37.880  19.189  1.00  0.00    -0.296 OA
HETATM   15  C17 UNL     1       7.245  36.720  21.049  1.00  0.00     0.153 C 
HETATM   16  N4  UNL     1       8.439  36.336  21.800  1.00  0.00    -0.361 N 
ATOM     17  H4  UNL     1       9.328  36.500  21.329  1.00  0.00     0.162 HD
HETATM   18  C22 UNL     1       8.523  35.777  23.064  1.00  0.00     0.135 C 
HETATM   19  C23 UNL     1       7.911  34.579  23.624  1.00  0.00     0.156 C 
HETATM   20  C24 UNL     1       6.499  34.966  24.099  1.00  0.00     0.041 C 
HETATM   21  N5  UNL     1       7.910  33.397  22.849  1.00  0.00    -0.356 N 
HETATM   22  C25 UNL     1       6.588  32.908  22.421  1.00  0.00     0.152 C 
HETATM   23  C26 UNL     1       9.002  32.597  22.426  1.00  0.00     0.137 C 
ENDROOT
BRANCH   6  24
HETATM   24  C7  UNL     1      10.958  31.870  17.654  1.00  0.00     0.070 C 
BRANCH  24  25
HETATM   25  C8  UNL     1      12.188  32.587  17.190  1.00  0.00     0.235 C 
BRANCH  25  26
HETATM   26  N2  UNL     1      12.244  33.848  17.868  1.00  0.00    -0.067 N 
ATOM     27  H22 UNL     1      11.379  34.012  18.381  1.00  0.00     0.278 HD
ATOM     28  H21 UNL     1      12.903  33.802  18.645  1.00  0.00     0.278 HD
BRANCH  26  29
HETATM   29  C9  UNL     1      12.545  34.968  17.027  1.00  0.00     0.115 C 
HETATM   30  C10 UNL     1      11.338  35.790  16.710  1.00  0.00     0.045 C 
HETATM   31  C11 UNL     1      13.061  34.392  15.703  1.00  0.00     0.045 C 
HETATM   32  C12 UNL     1      13.655  35.835  17.580  1.00  0.00     0.045 C 
ENDBRANCH  26  29
ENDBRANCH  25  26
ENDBRANCH  24  25
ENDBRANCH   6  24
BRANCH   1  33
HETATM   33  C3  UNL     1      11.123  33.119  23.550  1.00  0.00     0.033 C 
BRANCH  33  34
HETATM   34  C2  UNL     1      10.656  32.332  24.731  1.00  0.00    -0.002 C 
HETATM   35  C1  UNL     1      11.684  31.922  25.737  1.00  0.00     0.005 C 
ENDBRANCH  33  34
ENDBRANCH   1  33
BRANCH  23  36
HETATM   36  O4  UNL     1       8.772  31.351  22.119  1.00  0.00    -0.348 OA
ATOM     37  H4  UNL     1       7.849  31.168  21.987  1.00  0.00     0.219 HD
ENDBRANCH  23  36
BRANCH  15  38
HETATM   38  C18 UNL     1       6.552  37.884  21.631  1.00  0.00     0.036 C 
BRANCH  38  39
HETATM   39  C19 UNL     1       5.078  37.776  21.734  1.00  0.00    -0.020 C 
HETATM   40  C20 UNL     1       4.653  36.325  21.329  1.00  0.00     0.009 C 
HETATM   41  C21 UNL     1       4.435  37.995  23.070  1.00  0.00     0.009 C 
ENDBRANCH  38  39
ENDBRANCH  15  38
BRANCH  18  42
HETATM   42  O3  UNL     1       9.281  36.435  23.893  1.00  0.00    -0.348 OA
ATOM     43  H3  UNL     1       8.816  36.827  24.622  1.00  0.00     0.219 HD
ENDBRANCH  18  42
TORSDOF 10
ENDMDL
MODEL 2
REMARK VINA RESULT: -6.710176795      3.447      7.371
REMARK  10 active torsions:
REMARK  status: ('A' for Active; 'I' for Inactive)
REMARK    1  A    between atoms: C2_2  and  C3_3 
REMARK    2  A    between atoms: C3_3  and  C4_4 
REMARK    3  A    between atoms: C6_9  and  C7_10 
REMARK    4  A    between atoms: C7_10  and  C8_11 
REMARK    5  A    between atoms: C8_11  and  N2_12 
REMARK    6  A    between atoms: N2_12  and  C9_15 
REMARK    7  A    between atoms: C17_27  and  C18_28 
REMARK    8  A    between atoms: C18_28  and  C19_29 
REMARK    9  A    between atoms: C22_34  and  O3_35 
REMARK   10  A    between atoms: C26_41  and  O4_42 
ROOT
HETATM    1  C4  UNL     1      10.243  37.632  16.966  1.00  0.00     0.159 C 
HETATM    2  N1  UNL     1       9.929  39.021  16.585  1.00  0.00    -0.347 N 
ATOM      3  H1  UNL     1      10.574  39.474  15.938  1.00  0.00     0.163 HD
HETATM    4  C5  UNL     1       8.846  39.780  17.015  1.00  0.00     0.249 C 
HETATM    5  O1  UNL     1       8.118  40.349  16.122  1.00  0.00    -0.271 OA
HETATM    6  C6  UNL     1       8.396  40.035  18.411  1.00  0.00     0.278 C 
HETATM    7  N3  UNL     1       7.220  39.215  18.742  1.00  0.00    -0.062 N 
ATOM      8  H31 UNL     1       7.225  38.313  18.266  1.00  0.00     0.278 HD
ATOM      9  H32 UNL     1       6.359  39.582  18.336  1.00  0.00     0.278 HD
HETATM   10  C13 UNL     1       7.145  39.085  20.173  1.00  0.00     0.233 C 
HETATM   11  C14 UNL     1       8.127  38.048  20.606  1.00  0.00     0.035 C 
HETATM   12  C15 UNL     1       7.603  37.157  21.734  1.00  0.00     0.082 C 
HETATM   13  C16 UNL     1       8.792  36.284  22.076  1.00  0.00     0.149 C 
HETATM   14  O2  UNL     1       9.414  36.574  23.072  1.00  0.00    -0.296 OA
HETATM   15  C17 UNL     1       9.160  35.155  21.231  1.00  0.00     0.153 C 
HETATM   16  N4  UNL     1      10.210  35.562  20.300  1.00  0.00    -0.361 N 
ATOM     17  H4  UNL     1      10.712  36.415  20.545  1.00  0.00     0.162 HD
HETATM   18  C22 UNL     1      10.614  34.944  19.128  1.00  0.00     0.135 C 
HETATM   19  C23 UNL     1       9.860  34.550  17.945  1.00  0.00     0.156 C 
HETATM   20  C24 UNL     1       9.244  33.169  18.234  1.00  0.00     0.041 C 
HETATM   21  N5  UNL     1       8.915  35.457  17.413  1.00  0.00    -0.356 N 
HETATM   22  C25 UNL     1       7.506  35.032  17.476  1.00  0.00     0.152 C 
HETATM   23  C26 UNL     1       9.123  36.725  16.814  1.00  0.00     0.137 C 
ENDROOT
BRANCH   6  24
HETATM   24  C7  UNL     1       7.896  41.482  18.546  1.00  0.00     0.070 C 
BRANCH  24  25
HETATM   25  C8  UNL     1       8.805  42.318  19.392  1.00  0.00     0.235 C 
BRANCH  25  26
HETATM   26  N2  UNL     1       9.942  41.517  19.740  1.00  0.00    -0.067 N 
ATOM     27  H22 UNL     1       9.795  40.551  19.450  1.00  0.00     0.278 HD
ATOM     28  H21 UNL     1      10.738  41.759  19.151  1.00  0.00     0.278 HD
BRANCH  26  29
HETATM   29  C9  UNL     1      10.312  41.571  21.123  1.00  0.00     0.115 C 
HETATM   30  C10 UNL     1       9.233  42.138  21.986  1.00  0.00     0.045 C 
HETATM   31  C11 UNL     1      11.512  42.522  21.215  1.00  0.00     0.045 C 
HETATM   32  C12 UNL     1      10.781  40.236  21.657  1.00  0.00     0.045 C 
ENDBRANCH  26  29
ENDBRANCH  25  26
ENDBRANCH  24  25
ENDBRANCH   6  24
BRANCH   1  33
HETATM   33  C3  UNL     1      11.468  37.198  16.256  1.00  0.00     0.033 C 
BRANCH  33  34
HETATM   34  C2  UNL     1      12.087  38.134  15.269  1.00  0.00    -0.002 C 
HETATM   35  C1  UNL     1      13.577  38.250  15.268  1.00  0.00     0.005 C 
ENDBRANCH  33  34
ENDBRANCH   1  33
BRANCH  23  36
HETATM   36  O4  UNL     1       8.206  37.186  16.009  1.00  0.00    -0.348 OA
ATOM     37  H4  UNL     1       7.474  37.578  16.470  1.00  0.00     0.219 HD
ENDBRANCH  23  36
BRANCH  15  38
HETATM   38  C18 UNL     1       9.495  33.925  21.972  1.00  0.00     0.036 C 
BRANCH  38  39
HETATM   39  C19 UNL     1       8.418  32.913  22.069  1.00  0.00    -0.020 C 
HETATM   40  C20 UNL     1       7.214  33.376  21.183  1.00  0.00     0.009 C 
HETATM   41  C21 UNL     1       8.704  31.516  21.610  1.00  0.00     0.009 C 
ENDBRANCH  38  39
ENDBRANCH  15  38
BRANCH  18  42
HETATM   42  O3  UNL     1      11.885  34.671  19.075  1.00  0.00    -0.348 OA
ATOM     43  H3  UNL     1      12.200  34.438  18.210  1.00  0.00     0.219 HD
ENDBRANCH  18  42
TORSDOF 10
ENDMDL
MODEL 3
REMARK VINA RESULT: -6.698338087      4.039      7.588
REMARK  10 active torsions:
REMARK  status: ('A' for Active; 'I' for Inactive)
REMARK    1  A    between atoms: C2_2  and  C3_3 
REMARK    2  A    between atoms: C3_3  and  C4_4 
REMARK    3  A    between atoms: C6_9  and  C7_10 
REMARK    4  A    between atoms: C7_10  and  C8_11 
REMARK    5  A    between atoms: C8_11  and  N2_12 
REMARK    6  A    between atoms: N2_12  and  C9_15 
REMARK    7  A    between atoms: C17_27  and  C18_28 
REMARK    8  A    between atoms: C18_28  and  C19_29 
REMARK    9  A    between atoms: C22_34  and  O3_35 
REMARK   10  A    between atoms: C26_41  and  O4_42 
ROOT
HETATM    1  C4  UNL     1       9.998  37.490  16.952  1.00  0.00     0.159 C 
HETATM    2  N1  UNL     1       9.575  38.845  16.555  1.00  0.00    -0.347 N 
ATOM      3  H1  UNL     1      10.170  39.330  15.884  1.00  0.00     0.163 HD
HETATM    4  C5  UNL     1       8.450  39.531  16.998  1.00  0.00     0.249 C 
HETATM    5  O1  UNL     1       7.661  40.029  16.113  1.00  0.00    -0.271 OA
HETATM    6  C6  UNL     1       8.015  39.779  18.400  1.00  0.00     0.278 C 
HETATM    7  N3  UNL     1       6.910  38.882  18.774  1.00  0.00    -0.062 N 
ATOM      8  H31 UNL     1       6.970  37.974  18.314  1.00  0.00     0.278 HD
ATOM      9  H32 UNL     1       6.016  39.178  18.383  1.00  0.00     0.278 HD
HETATM   10  C13 UNL     1       6.878  38.775  20.208  1.00  0.00     0.233 C 
HETATM   11  C14 UNL     1       7.943  37.820  20.635  1.00  0.00     0.035 C 
HETATM   12  C15 UNL     1       7.512  36.916  21.791  1.00  0.00     0.082 C 
HETATM   13  C16 UNL     1       8.770  36.138  22.118  1.00  0.00     0.149 C 
HETATM   14  O2  UNL     1       9.392  36.492  23.094  1.00  0.00    -0.296 OA
HETATM   15  C17 UNL     1       9.199  35.023  21.285  1.00  0.00     0.153 C 
HETATM   16  N4  UNL     1      10.194  35.487  20.321  1.00  0.00    -0.361 N 
ATOM     17  H4  UNL     1      10.638  36.379  20.539  1.00  0.00     0.162 HD
HETATM   18  C22 UNL     1      10.615  34.878  19.150  1.00  0.00     0.135 C 
HETATM   19  C23 UNL     1       9.864  34.408  17.993  1.00  0.00     0.156 C 
HETATM   20  C24 UNL     1       9.358  32.991  18.321  1.00  0.00     0.041 C 
HETATM   21  N5  UNL     1       8.843  35.233  17.470  1.00  0.00    -0.356 N 
HETATM   22  C25 UNL     1       7.472  34.708  17.575  1.00  0.00     0.152 C 
HETATM   23  C26 UNL     1       8.944  36.501  16.843  1.00  0.00     0.137 C 
ENDROOT
BRANCH   6  24
HETATM   24  C7  UNL     1       7.414  41.189  18.522  1.00  0.00     0.070 C 
BRANCH  24  25
HETATM   25  C8  UNL     1       8.467  42.253  18.537  1.00  0.00     0.235 C 
BRANCH  25  26
HETATM   26  N2  UNL     1       8.827  42.535  17.179  1.00  0.00    -0.067 N 
ATOM     27  H22 UNL     1       9.816  42.338  17.028  1.00  0.00     0.278 HD
ATOM     28  H21 UNL     1       8.413  41.845  16.552  1.00  0.00     0.278 HD
BRANCH  26  29
HETATM   29  C9  UNL     1       8.511  43.861  16.738  1.00  0.00     0.115 C 
HETATM   30  C10 UNL     1       7.168  43.946  16.090  1.00  0.00     0.045 C 
HETATM   31  C11 UNL     1       9.552  44.224  15.672  1.00  0.00     0.045 C 
HETATM   32  C12 UNL     1       8.644  44.892  17.837  1.00  0.00     0.045 C 
ENDBRANCH  26  29
ENDBRANCH  25  26
ENDBRANCH  24  25
ENDBRANCH   6  24
BRANCH   1  33
HETATM   33  C3  UNL     1      11.235  37.132  16.219  1.00  0.00     0.033 C 
BRANCH  33  34
HETATM   34  C2  UNL     1      11.846  38.154  15.315  1.00  0.00    -0.002 C 
HETATM   35  C1  UNL     1      13.338  38.229  15.268  1.00  0.00     0.005 C 
ENDBRANCH  33  34
ENDBRANCH   1  33
BRANCH  23  36
HETATM   36  O4  UNL     1       7.978  36.878  16.053  1.00  0.00    -0.348 OA
ATOM     37  H4  UNL     1       7.221  36.305  16.097  1.00  0.00     0.219 HD
ENDBRANCH  23  36
BRANCH  15  38
HETATM   38  C18 UNL     1       9.641  33.835  22.038  1.00  0.00     0.036 C 
BRANCH  38  39
HETATM   39  C19 UNL     1       8.671  32.718  22.114  1.00  0.00    -0.020 C 
HETATM   40  C20 UNL     1       7.330  33.172  21.445  1.00  0.00     0.009 C 
HETATM   41  C21 UNL     1       9.010  31.427  21.432  1.00  0.00     0.009 C 
ENDBRANCH  38  39
ENDBRANCH  15  38
BRANCH  18  42
HETATM   42  O3  UNL     1      11.901  34.697  19.070  1.00  0.00    -0.348 OA
ATOM     43  H3  UNL     1      12.315  34.454  19.890  1.00  0.00     0.219 HD
ENDBRANCH  18  42
TORSDOF 10
ENDMDL
MODEL 4
REMARK VINA RESULT: -6.676273053      3.845      7.984
REMARK  10 active torsions:
REMARK  status: ('A' for Active; 'I' for Inactive)
REMARK    1  A    between atoms: C2_2  and  C3_3 
REMARK    2  A    between atoms: C3_3  and  C4_4 
REMARK    3  A    between atoms: C6_9  and  C7_10 
REMARK    4  A    between atoms: C7_10  and  C8_11 
REMARK    5  A    between atoms: C8_11  and  N2_12 
REMARK    6  A    between atoms: N2_12  and  C9_15 
REMARK    7  A    between atoms: C17_27  and  C18_28 
REMARK    8  A    between atoms: C18_28  and  C19_29 
REMARK    9  A    between atoms: C22_34  and  O3_35 
REMARK   10  A    between atoms: C26_41  and  O4_42 
ROOT
HETATM    1  C4  UNL     1      10.354  37.876  17.019  1.00  0.00     0.159 C 
HETATM    2  N1  UNL     1       9.581  39.122  16.868  1.00  0.00    -0.347 N 
ATOM      3  H1  UNL     1      10.053  39.899  16.405  1.00  0.00     0.163 HD
HETATM    4  C5  UNL     1       8.277  39.351  17.290  1.00  0.00     0.249 C 
HETATM    5  O1  UNL     1       7.440  39.819  16.435  1.00  0.00    -0.271 OA
HETATM    6  C6  UNL     1       7.692  39.122  18.640  1.00  0.00     0.278 C 
HETATM    7  N3  UNL     1       6.876  37.899  18.660  1.00  0.00    -0.062 N 
ATOM      8  H31 UNL     1       7.231  37.181  18.028  1.00  0.00     0.278 HD
ATOM      9  H32 UNL     1       5.963  38.030  18.223  1.00  0.00     0.278 HD
HETATM   10  C13 UNL     1       6.778  37.439  20.019  1.00  0.00     0.233 C 
HETATM   11  C14 UNL     1       8.043  36.731  20.372  1.00  0.00     0.035 C 
HETATM   12  C15 UNL     1       7.817  35.490  21.237  1.00  0.00     0.082 C 
HETATM   13  C16 UNL     1       9.221  35.024  21.558  1.00  0.00     0.149 C 
HETATM   14  O2  UNL     1       9.644  35.282  22.663  1.00  0.00    -0.296 OA
HETATM   15  C17 UNL     1      10.016  34.304  20.572  1.00  0.00     0.153 C 
HETATM   16  N4  UNL     1      10.895  35.239  19.874  1.00  0.00    -0.361 N 
ATOM     17  H4  UNL     1      11.042  36.136  20.337  1.00  0.00     0.162 HD
HETATM   18  C22 UNL     1      11.556  35.071  18.668  1.00  0.00     0.135 C 
HETATM   19  C23 UNL     1      11.058  34.714  17.346  1.00  0.00     0.156 C 
HETATM   20  C24 UNL     1      10.967  33.178  17.291  1.00  0.00     0.041 C 
HETATM   21  N5  UNL     1       9.879  35.337  16.878  1.00  0.00    -0.356 N 
HETATM   22  C25 UNL     1       8.718  34.453  16.680  1.00  0.00     0.152 C 
HETATM   23  C26 UNL     1       9.647  36.699  16.558  1.00  0.00     0.137 C 
ENDROOT
BRANCH   6  24
HETATM   24  C7  UNL     1       6.698  40.245  18.979  1.00  0.00     0.070 C 
BRANCH  24  25
HETATM   25  C8  UNL     1       7.323  41.602  18.883  1.00  0.00     0.235 C 
BRANCH  25  26
HETATM   26  N2  UNL     1       6.508  42.401  18.017  1.00  0.00    -0.067 N 
ATOM     27  H22 UNL     1       6.023  41.810  17.342  1.00  0.00     0.278 HD
ATOM     28  H21 UNL     1       5.709  42.776  18.529  1.00  0.00     0.278 HD
BRANCH  26  29
HETATM   29  C9  UNL     1       7.204  43.457  17.343  1.00  0.00     0.115 C 
HETATM   30  C10 UNL     1       7.190  43.300  15.858  1.00  0.00     0.045 C 
HETATM   31  C11 UNL     1       8.668  43.369  17.794  1.00  0.00     0.045 C 
HETATM   32  C12 UNL     1       6.714  44.831  17.743  1.00  0.00     0.045 C 
ENDBRANCH  26  29
ENDBRANCH  25  26
ENDBRANCH  24  25
ENDBRANCH   6  24
BRANCH   1  33
HETATM   33  C3  UNL     1      11.690  38.054  16.402  1.00  0.00     0.033 C 
BRANCH  33  34
HETATM   34  C2  UNL     1      11.773  38.734  15.074  1.00  0.00    -0.002 C 
HETATM   35  C1  UNL     1      13.125  39.168  14.605  1.00  0.00     0.005 C 
ENDBRANCH  33  34
ENDBRANCH   1  33
BRANCH  23  36
HETATM   36  O4  UNL     1       8.669  36.984  15.743  1.00  0.00    -0.348 OA
ATOM     37  H4  UNL     1       7.823  36.700  16.069  1.00  0.00     0.219 HD
ENDBRANCH  23  36
BRANCH  15  38
HETATM   38  C18 UNL     1      10.733  33.132  21.105  1.00  0.00     0.036 C 
BRANCH  38  39
HETATM   39  C19 UNL     1      10.196  31.808  20.711  1.00  0.00    -0.020 C 
HETATM   40  C20 UNL     1       8.898  32.026  19.864  1.00  0.00     0.009 C 
HETATM   41  C21 UNL     1      11.047  30.912  19.866  1.00  0.00     0.009 C 
ENDBRANCH  38  39
ENDBRANCH  15  38
BRANCH  18  42
HETATM   42  O3  UNL     1      12.841  35.267  18.727  1.00  0.00    -0.348 OA
ATOM     43  H3  UNL     1      13.159  35.527  19.583  1.00  0.00     0.219 HD
ENDBRANCH  18  42
TORSDOF 10
ENDMDL
MODEL 5
REMARK VINA RESULT: -6.648615559      2.401      6.351
REMARK  10 active torsions:
REMARK  status: ('A' for Active; 'I' for Inactive)
REMARK    1  A    between atoms: C2_2  and  C3_3 
REMARK    2  A    between atoms: C3_3  and  C4_4 
REMARK    3  A    between atoms: C6_9  and  C7_10 
REMARK    4  A    between atoms: C7_10  and  C8_11 
REMARK    5  A    between atoms: C8_11  and  N2_12 
REMARK    6  A    between atoms: N2_12  and  C9_15 
REMARK    7  A    between atoms: C17_27  and  C18_28 
REMARK    8  A    between atoms: C18_28  and  C19_29 
REMARK    9  A    between atoms: C22_34  and  O3_35 
REMARK   10  A    between atoms: C26_41  and  O4_42 
ROOT
HETATM    1  C4  UNL     1       9.707  32.634  19.792  1.00  0.00     0.159 C 
HETATM    2  N1  UNL     1       9.941  32.043  21.122  1.00  0.00    -0.347 N 
ATOM      3  H1  UNL     1      10.031  31.028  21.161  1.00  0.00     0.163 HD
HETATM    4  C5  UNL     1      10.053  32.724  22.329  1.00  0.00     0.249 C 
HETATM    5  O1  UNL     1      11.080  32.483  23.064  1.00  0.00    -0.271 OA
HETATM    6  C6  UNL     1       9.119  33.727  22.911  1.00  0.00     0.278 C 
HETATM    7  N3  UNL     1       9.646  35.091  22.751  1.00  0.00    -0.062 N 
ATOM      8  H31 UNL     1      10.193  35.202  21.897  1.00  0.00     0.278 HD
ATOM      9  H32 UNL     1      10.386  35.307  23.419  1.00  0.00     0.278 HD
HETATM   10  C13 UNL     1       8.545  36.015  22.827  1.00  0.00     0.233 C 
HETATM   11  C14 UNL     1       7.837  36.016  21.513  1.00  0.00     0.035 C 
HETATM   12  C15 UNL     1       7.368  37.407  21.084  1.00  0.00     0.082 C 
HETATM   13  C16 UNL     1       6.589  37.141  19.813  1.00  0.00     0.149 C 
HETATM   14  O2  UNL     1       5.382  37.148  19.899  1.00  0.00    -0.296 OA
HETATM   15  C17 UNL     1       7.276  36.883  18.554  1.00  0.00     0.153 C 
HETATM   16  N4  UNL     1       7.383  35.442  18.339  1.00  0.00    -0.361 N 
ATOM     17  H4  UNL     1       6.753  34.865  18.896  1.00  0.00     0.162 HD
HETATM   18  C22 UNL     1       8.225  34.754  17.481  1.00  0.00     0.135 C 
HETATM   19  C23 UNL     1       9.675  34.778  17.341  1.00  0.00     0.156 C 
HETATM   20  C24 UNL     1      10.027  35.965  16.427  1.00  0.00     0.041 C 
HETATM   21  N5  UNL     1      10.466  34.750  18.512  1.00  0.00    -0.356 N 
HETATM   22  C25 UNL     1      11.269  35.956  18.776  1.00  0.00     0.152 C 
HETATM   23  C26 UNL     1      10.612  33.720  19.476  1.00  0.00     0.137 C 
ENDROOT
BRANCH   6  24
HETATM   24  C7  UNL     1       9.026  33.536  24.434  1.00  0.00     0.070 C 
BRANCH  24  25
HETATM   25  C8  UNL     1       7.802  32.772  24.833  1.00  0.00     0.235 C 
BRANCH  25  26
HETATM   26  N2  UNL     1       8.126  31.377  24.810  1.00  0.00    -0.067 N 
ATOM     27  H22 UNL     1       8.985  31.223  24.282  1.00  0.00     0.278 HD
ATOM     28  H21 UNL     1       8.429  31.069  25.734  1.00  0.00     0.278 HD
BRANCH  26  29
HETATM   29  C9  UNL     1       7.082  30.526  24.321  1.00  0.00     0.115 C 
HETATM   30  C10 UNL     1       7.219  30.228  22.863  1.00  0.00     0.045 C 
HETATM   31  C11 UNL     1       5.770  31.299  24.504  1.00  0.00     0.045 C 
HETATM   32  C12 UNL     1       6.943  29.249  25.120  1.00  0.00     0.045 C 
ENDBRANCH  26  29
ENDBRANCH  25  26
ENDBRANCH  24  25
ENDBRANCH   6  24
BRANCH   1  33
HETATM   33  C3  UNL     1       9.687  31.555  18.777  1.00  0.00     0.033 C 
BRANCH  33  34
HETATM   34  C2  UNL     1      10.963  30.837  18.477  1.00  0.00    -0.002 C 
HETATM   35  C1  UNL     1      11.610  31.104  17.156  1.00  0.00     0.005 C 
ENDBRANCH  33  34
ENDBRANCH   1  33
BRANCH  23  36
HETATM   36  O4  UNL     1      11.691  33.708  20.208  1.00  0.00    -0.348 OA
ATOM     37  H4  UNL     1      12.399  34.217  19.830  1.00  0.00     0.219 HD
ENDBRANCH  23  36
BRANCH  15  38
HETATM   38  C18 UNL     1       6.709  37.596  17.394  1.00  0.00     0.036 C 
BRANCH  38  39
HETATM   39  C19 UNL     1       7.499  38.742  16.887  1.00  0.00    -0.020 C 
HETATM   40  C20 UNL     1       6.637  40.041  17.017  1.00  0.00     0.009 C 
HETATM   41  C21 UNL     1       8.790  39.080  17.568  1.00  0.00     0.009 C 
ENDBRANCH  38  39
ENDBRANCH  15  38
BRANCH  18  42
HETATM   42  O3  UNL     1       7.615  33.949  16.661  1.00  0.00    -0.348 OA
ATOM     43  H3  UNL     1       7.922  33.997  15.763  1.00  0.00     0.219 HD
ENDBRANCH  18  42
TORSDOF 10
ENDMDL
