MODEL 1
REMARK VINA RESULT: -7.887877469      0.000      0.000
REMARK  8 active torsions:
REMARK  status: ('A' for Active; 'I' for Inactive)
REMARK    1  A    between atoms: C2_2  and  N1_3 
REMARK       I    between atoms: N1_3  and  C3_5 
REMARK       I    between atoms: C3_5  and  N2_7 
REMARK    2  A    between atoms: N3_10  and  S1_11 
REMARK    3  A    between atoms: S1_11  and  C6_14 
REMARK    4  A    between atoms: C6_14  and  C7_15 
REMARK    5  A    between atoms: C12_20  and  O4_21 
REMARK    6  A    between atoms: C14_27  and  C15_28 
REMARK    7  A    between atoms: C18_31  and  O5_32 
REMARK    8  A    between atoms: C18_31  and  C19_34 
ROOT
HETATM    1  C7  UNL     1      10.667  34.493  18.855  1.00  0.00     0.015 C 
HETATM    2  C8  UNL     1      11.263  33.567  19.932  1.00  0.00     0.020 C 
HETATM    3  C9  UNL     1      10.226  32.608  19.682  1.00  0.00    -0.004 C 
HETATM    4  C10 UNL     1       8.991  32.358  20.317  1.00  0.00     0.014 C 
HETATM    5  C11 UNL     1       8.306  33.156  21.316  1.00  0.00     0.048 C 
HETATM    6  C12 UNL     1       7.766  34.492  20.836  1.00  0.00     0.158 C 
HETATM    7  C13 UNL     1       9.033  35.231  20.773  1.00  0.00     0.250 C 
HETATM    8  N4  UNL     1       9.685  34.815  22.002  1.00  0.00    -0.060 N 
ATOM      9  H41 UNL     1       9.727  35.564  22.693  1.00  0.00     0.278 HD
ATOM     10  H42 UNL     1      10.688  34.675  21.882  1.00  0.00     0.278 HD
HETATM   11  C14 UNL     1       9.033  33.656  22.501  1.00  0.00     0.196 C 
HETATM   12  C18 UNL     1       9.787  35.446  19.575  1.00  0.00     0.097 C 
HETATM   13  C21 UNL     1      10.165  33.288  18.269  1.00  0.00    -0.033 C 
HETATM   14  C22 UNL     1       8.844  33.149  17.597  1.00  0.00     0.016 C 
HETATM   15  C23 UNL     1      11.027  32.356  17.418  1.00  0.00     0.016 C 
ENDROOT
BRANCH   1  16
HETATM   16  C6  UNL     1      11.701  35.315  18.162  1.00  0.00     0.171 C 
BRANCH  16  17
HETATM   17  S1  UNL     1      11.780  35.679  16.491  1.00  0.00     0.212 S 
HETATM   18  O2  UNL     1      10.524  35.960  15.745  1.00  0.00    -0.211 OA
HETATM   19  O3  UNL     1      12.810  34.912  15.772  1.00  0.00    -0.211 OA
BRANCH  17  20
HETATM   20  N3  UNL     1      12.479  37.356  16.454  1.00  0.00    -0.207 NA
HETATM   21  C5  UNL     1      12.985  37.593  15.144  1.00  0.00     0.127 C 
HETATM   22  C4  UNL     1      12.917  39.083  14.869  1.00  0.00     0.143 C 
HETATM   23  N2  UNL     1      11.534  39.511  14.862  1.00  0.00    -0.332 N 
HETATM   24  C3  UNL     1      11.098  40.602  14.040  1.00  0.00     0.318 C 
HETATM   25  C25 UNL     1      10.605  38.795  15.711  1.00  0.00     0.143 C 
HETATM   26  N1  UNL     1       9.747  41.013  14.044  1.00  0.00    -0.343 N 
HETATM   27  O1  UNL     1      11.958  41.175  13.318  1.00  0.00    -0.247 OA
ATOM     28  H1  UNL     1       9.078  40.527  14.640  1.00  0.00     0.164 HD
HETATM   29  C24 UNL     1      11.378  38.194  16.857  1.00  0.00     0.127 C 
BRANCH  26  30
HETATM   30  C2  UNL     1       9.293  42.112  13.217  1.00  0.00     0.120 C 
HETATM   31  C1  UNL     1       8.710  41.655  11.914  1.00  0.00     0.026 C 
ENDBRANCH  26  30
ENDBRANCH  17  20
ENDBRANCH  16  17
ENDBRANCH   1  16
BRANCH  12  32
HETATM   32  O5  UNL     1      10.751  36.410  20.069  1.00  0.00    -0.387 OA
ATOM     33  H5  UNL     1      10.432  36.560  20.951  1.00  0.00     0.210 HD
ENDBRANCH  12  32
BRANCH  12  34
HETATM   34  C19 UNL     1       8.989  36.291  18.619  1.00  0.00     0.036 C 
HETATM   35  C20 UNL     1       8.594  37.666  19.206  1.00  0.00     0.008 C 
ENDBRANCH  12  34
BRANCH   6  36
HETATM   36  O4  UNL     1       6.965  34.950  21.914  1.00  0.00    -0.393 OA
ATOM     37  H4  UNL     1       7.529  35.554  22.381  1.00  0.00     0.210 HD
ENDBRANCH   6  36
BRANCH  11  38
HETATM   38  C15 UNL     1       9.822  32.702  23.288  1.00  0.00     0.008 C 
HETATM   39  C16 UNL     1       9.153  32.418  24.624  1.00  0.00     0.011 C 
HETATM   40  C17 UNL     1      11.237  33.147  23.565  1.00  0.00     0.011 C 
ENDBRANCH  11  38
TORSDOF 8
ENDMDL
MODEL 2
REMARK VINA RESULT: -7.854991346      3.777      9.108
REMARK  8 active torsions:
REMARK  status: ('A' for Active; 'I' for Inactive)
REMARK    1  A    between atoms: C2_2  and  N1_3 
REMARK       I    between atoms: N1_3  and  C3_5 
REMARK       I    between atoms: C3_5  and  N2_7 
REMARK    2  A    between atoms: N3_10  and  S1_11 
REMARK    3  A    between atoms: S1_11  and  C6_14 
REMARK    4  A    between atoms: C6_14  and  C7_15 
REMARK    5  A    between atoms: C12_20  and  O4_21 
REMARK    6  A    between atoms: C14_27  and  C15_28 
REMARK    7  A    between atoms: C18_31  and  O5_32 
REMARK    8  A    between atoms: C18_31  and  C19_34 
ROOT
HETATM    1  C7  UNL     1       8.628  34.544  19.790  1.00  0.00     0.015 C 
HETATM    2  C8  UNL     1      10.143  34.576  20.068  1.00  0.00     0.020 C 
HETATM    3  C9  UNL     1      10.167  35.980  19.775  1.00  0.00    -0.004 C 
HETATM    4  C10 UNL     1      10.485  36.701  18.605  1.00  0.00     0.014 C 
HETATM    5  C11 UNL     1      10.694  36.200  17.260  1.00  0.00     0.048 C 
HETATM    6  C12 UNL     1       9.463  35.649  16.562  1.00  0.00     0.158 C 
HETATM    7  C13 UNL     1       9.362  34.369  17.275  1.00  0.00     0.250 C 
HETATM    8  N4  UNL     1      10.748  33.939  17.318  1.00  0.00    -0.060 N 
ATOM      9  H41 UNL     1      10.927  33.142  16.705  1.00  0.00     0.278 HD
ATOM     10  H42 UNL     1      10.990  33.495  18.203  1.00  0.00     0.278 HD
HETATM   11  C14 UNL     1      11.586  35.046  17.022  1.00  0.00     0.196 C 
HETATM   12  C18 UNL     1       8.479  34.123  18.376  1.00  0.00     0.097 C 
HETATM   13  C21 UNL     1       8.651  35.922  20.176  1.00  0.00    -0.033 C 
HETATM   14  C22 UNL     1       7.829  36.997  19.556  1.00  0.00     0.016 C 
HETATM   15  C23 UNL     1       8.678  36.376  21.635  1.00  0.00     0.016 C 
ENDROOT
BRANCH   1  16
HETATM   16  C6  UNL     1       7.912  33.525  20.611  1.00  0.00     0.171 C 
BRANCH  16  17
HETATM   17  S1  UNL     1       8.569  32.568  21.870  1.00  0.00     0.212 S 
HETATM   18  O2  UNL     1       8.952  33.213  23.155  1.00  0.00    -0.211 OA
HETATM   19  O3  UNL     1       9.451  31.494  21.388  1.00  0.00    -0.211 OA
BRANCH  17  20
HETATM   20  N3  UNL     1       7.138  31.624  22.476  1.00  0.00    -0.207 NA
HETATM   21  C5  UNL     1       7.334  31.372  23.865  1.00  0.00     0.127 C 
HETATM   22  C4  UNL     1       5.974  31.249  24.523  1.00  0.00     0.143 C 
HETATM   23  N2  UNL     1       5.272  32.512  24.426  1.00  0.00    -0.332 N 
HETATM   24  C3  UNL     1       4.341  32.924  25.435  1.00  0.00     0.318 C 
HETATM   25  C25 UNL     1       5.549  33.348  23.276  1.00  0.00     0.143 C 
HETATM   26  N1  UNL     1       3.660  34.157  25.328  1.00  0.00    -0.343 N 
HETATM   27  O1  UNL     1       4.154  32.152  26.414  1.00  0.00    -0.247 OA
ATOM     28  H1  UNL     1       3.835  34.756  24.522  1.00  0.00     0.164 HD
HETATM   29  C24 UNL     1       6.013  32.461  22.148  1.00  0.00     0.127 C 
BRANCH  26  30
HETATM   30  C2  UNL     1       2.717  34.586  26.340  1.00  0.00     0.120 C 
HETATM   31  C1  UNL     1       1.300  34.244  25.994  1.00  0.00     0.026 C 
ENDBRANCH  26  30
ENDBRANCH  17  20
ENDBRANCH  16  17
ENDBRANCH   1  16
BRANCH  12  32
HETATM   32  O5  UNL     1       8.632  32.685  18.486  1.00  0.00    -0.387 OA
ATOM     33  H5  UNL     1       7.830  32.445  18.935  1.00  0.00     0.210 HD
ENDBRANCH  12  32
BRANCH  12  34
HETATM   34  C19 UNL     1       7.051  34.234  17.914  1.00  0.00     0.036 C 
HETATM   35  C20 UNL     1       6.858  33.836  16.432  1.00  0.00     0.008 C 
ENDBRANCH  12  34
BRANCH   6  36
HETATM   36  O4  UNL     1       9.884  35.449  15.222  1.00  0.00    -0.393 OA
ATOM     37  H4  UNL     1       9.099  35.161  14.772  1.00  0.00     0.210 HD
ENDBRANCH   6  36
BRANCH  11  38
HETATM   38  C15 UNL     1      12.931  35.074  17.604  1.00  0.00     0.008 C 
HETATM   39  C16 UNL     1      13.696  36.306  17.145  1.00  0.00     0.011 C 
HETATM   40  C17 UNL     1      13.771  33.862  17.282  1.00  0.00     0.011 C 
ENDBRANCH  11  38
TORSDOF 8
ENDMDL
MODEL 3
REMARK VINA RESULT: -7.756477999      1.650      2.039
REMARK  8 active torsions:
REMARK  status: ('A' for Active; 'I' for Inactive)
REMARK    1  A    between atoms: C2_2  and  N1_3 
REMARK       I    between atoms: N1_3  and  C3_5 
REMARK       I    between atoms: C3_5  and  N2_7 
REMARK    2  A    between atoms: N3_10  and  S1_11 
REMARK    3  A    between atoms: S1_11  and  C6_14 
REMARK    4  A    between atoms: C6_14  and  C7_15 
REMARK    5  A    between atoms: C12_20  and  O4_21 
REMARK    6  A    between atoms: C14_27  and  C15_28 
REMARK    7  A    between atoms: C18_31  and  O5_32 
REMARK    8  A    between atoms: C18_31  and  C19_34 
ROOT
HETATM    1  C7  UNL     1      10.349  33.284  20.047  1.00  0.00     0.015 C 
HETATM    2  C8  UNL     1      10.764  32.866  21.470  1.00  0.00     0.020 C 
HETATM    3  C9  UNL     1       9.921  31.709  21.376  1.00  0.00    -0.004 C 
HETATM    4  C10 UNL     1       8.603  31.456  21.813  1.00  0.00     0.014 C 
HETATM    5  C11 UNL     1       7.622  32.393  22.324  1.00  0.00     0.048 C 
HETATM    6  C12 UNL     1       7.076  33.392  21.318  1.00  0.00     0.158 C 
HETATM    7  C13 UNL     1       8.238  34.286  21.245  1.00  0.00     0.250 C 
HETATM    8  N4  UNL     1       8.618  34.400  22.642  1.00  0.00    -0.060 N 
ATOM      9  H41 UNL     1       8.416  35.324  23.026  1.00  0.00     0.278 HD
ATOM     10  H42 UNL     1       9.630  34.410  22.770  1.00  0.00     0.278 HD
HETATM   11  C14 UNL     1       7.990  33.361  23.378  1.00  0.00     0.196 C 
HETATM   12  C18 UNL     1       9.229  34.243  20.213  1.00  0.00     0.097 C 
HETATM   13  C21 UNL     1      10.129  31.887  19.831  1.00  0.00    -0.033 C 
HETATM   14  C22 UNL     1       9.027  31.312  19.011  1.00  0.00     0.016 C 
HETATM   15  C23 UNL     1      11.260  30.904  19.535  1.00  0.00     0.016 C 
ENDROOT
BRANCH   1  16
HETATM   16  C6  UNL     1      11.428  34.016  19.322  1.00  0.00     0.171 C 
BRANCH  16  17
HETATM   17  S1  UNL     1      11.858  33.851  17.674  1.00  0.00     0.212 S 
HETATM   18  O2  UNL     1      10.817  34.032  16.626  1.00  0.00    -0.211 OA
HETATM   19  O3  UNL     1      12.854  32.795  17.432  1.00  0.00    -0.211 OA
BRANCH  17  20
HETATM   20  N3  UNL     1      12.824  35.352  17.334  1.00  0.00    -0.207 NA
HETATM   21  C5  UNL     1      12.941  35.490  15.921  1.00  0.00     0.127 C 
HETATM   22  C4  UNL     1      13.083  36.964  15.596  1.00  0.00     0.143 C 
HETATM   23  N2  UNL     1      11.875  37.664  15.982  1.00  0.00    -0.332 N 
HETATM   24  C3  UNL     1      11.430  38.825  15.269  1.00  0.00     0.318 C 
HETATM   25  C25 UNL     1      11.130  37.146  17.110  1.00  0.00     0.143 C 
HETATM   26  N1  UNL     1      10.252  39.501  15.656  1.00  0.00    -0.343 N 
HETATM   27  O1  UNL     1      12.122  39.217  14.290  1.00  0.00    -0.247 OA
ATOM     28  H1  UNL     1       9.717  39.157  16.453  1.00  0.00     0.164 HD
HETATM   29  C24 UNL     1      12.085  36.393  18.001  1.00  0.00     0.127 C 
BRANCH  26  30
HETATM   30  C2  UNL     1       9.789  40.675  14.945  1.00  0.00     0.120 C 
HETATM   31  C1  UNL     1       8.711  41.411  15.681  1.00  0.00     0.026 C 
ENDBRANCH  26  30
ENDBRANCH  17  20
ENDBRANCH  16  17
ENDBRANCH   1  16
BRANCH  12  32
HETATM   32  O5  UNL     1       9.943  35.469  20.516  1.00  0.00    -0.387 OA
ATOM     33  H5  UNL     1      10.162  35.779  19.646  1.00  0.00     0.210 HD
ENDBRANCH  12  32
BRANCH  12  34
HETATM   34  C19 UNL     1       8.599  34.589  18.890  1.00  0.00     0.036 C 
HETATM   35  C20 UNL     1       8.007  36.017  18.853  1.00  0.00     0.008 C 
ENDBRANCH  12  34
BRANCH   6  36
HETATM   36  O4  UNL     1       5.999  34.015  21.999  1.00  0.00    -0.393 OA
ATOM     37  H4  UNL     1       6.421  34.630  22.587  1.00  0.00     0.210 HD
ENDBRANCH   6  36
BRANCH  11  38
HETATM   38  C15 UNL     1       8.663  32.859  24.580  1.00  0.00     0.008 C 
HETATM   39  C16 UNL     1       7.699  32.798  25.756  1.00  0.00     0.011 C 
HETATM   40  C17 UNL     1       9.860  33.673  25.007  1.00  0.00     0.011 C 
ENDBRANCH  11  38
TORSDOF 8
ENDMDL
MODEL 4
REMARK VINA RESULT: -7.722691163      4.713      9.350
REMARK  8 active torsions:
REMARK  status: ('A' for Active; 'I' for Inactive)
REMARK    1  A    between atoms: C2_2  and  N1_3 
REMARK       I    between atoms: N1_3  and  C3_5 
REMARK       I    between atoms: C3_5  and  N2_7 
REMARK    2  A    between atoms: N3_10  and  S1_11 
REMARK    3  A    between atoms: S1_11  and  C6_14 
REMARK    4  A    between atoms: C6_14  and  C7_15 
REMARK    5  A    between atoms: C12_20  and  O4_21 
REMARK    6  A    between atoms: C14_27  and  C15_28 
REMARK    7  A    between atoms: C18_31  and  O5_32 
REMARK    8  A    between atoms: C18_31  and  C19_34 
ROOT
HETATM    1  C7  UNL     1       7.888  41.948  18.371  1.00  0.00     0.015 C 
HETATM    2  C8  UNL     1       8.600  42.918  19.332  1.00  0.00     0.020 C 
HETATM    3  C9  UNL     1       7.330  43.431  19.757  1.00  0.00    -0.004 C 
HETATM    4  C10 UNL     1       6.580  44.558  19.361  1.00  0.00     0.014 C 
HETATM    5  C11 UNL     1       6.798  45.441  18.231  1.00  0.00     0.048 C 
HETATM    6  C12 UNL     1       6.565  44.830  16.861  1.00  0.00     0.158 C 
HETATM    7  C13 UNL     1       7.789  44.025  16.769  1.00  0.00     0.250 C 
HETATM    8  N4  UNL     1       8.791  44.943  17.282  1.00  0.00    -0.060 N 
ATOM      9  H41 UNL     1       9.419  45.281  16.553  1.00  0.00     0.278 HD
ATOM     10  H42 UNL     1       9.486  44.474  17.863  1.00  0.00     0.278 HD
HETATM   11  C14 UNL     1       8.139  46.002  17.968  1.00  0.00     0.196 C 
HETATM   12  C18 UNL     1       7.861  42.623  17.051  1.00  0.00     0.097 C 
HETATM   13  C21 UNL     1       6.795  42.031  19.292  1.00  0.00    -0.033 C 
HETATM   14  C22 UNL     1       5.356  42.039  18.912  1.00  0.00     0.016 C 
HETATM   15  C23 UNL     1       6.749  41.244  20.601  1.00  0.00     0.016 C 
ENDROOT
BRANCH   1  16
HETATM   16  C6  UNL     1       8.637  40.672  18.178  1.00  0.00     0.171 C 
BRANCH  16  17
HETATM   17  S1  UNL     1       7.992  39.086  18.184  1.00  0.00     0.212 S 
HETATM   18  O2  UNL     1       6.545  38.885  17.899  1.00  0.00    -0.211 OA
HETATM   19  O3  UNL     1       8.583  38.218  19.214  1.00  0.00    -0.211 OA
BRANCH  17  20
HETATM   20  N3  UNL     1       8.656  38.352  16.659  1.00  0.00    -0.207 NA
HETATM   21  C5  UNL     1      10.076  38.450  16.706  1.00  0.00     0.127 C 
HETATM   22  C4  UNL     1      10.659  37.309  15.894  1.00  0.00     0.143 C 
HETATM   23  N2  UNL     1      10.310  36.047  16.513  1.00  0.00    -0.332 N 
HETATM   24  C3  UNL     1      11.177  34.909  16.417  1.00  0.00     0.318 C 
HETATM   25  C25 UNL     1       9.057  35.977  17.235  1.00  0.00     0.143 C 
HETATM   26  N1  UNL     1      10.824  33.682  17.021  1.00  0.00    -0.343 N 
HETATM   27  O1  UNL     1      12.257  35.043  15.781  1.00  0.00    -0.247 OA
ATOM     28  H1  UNL     1       9.943  33.609  17.528  1.00  0.00     0.164 HD
HETATM   29  C24 UNL     1       8.124  37.013  16.664  1.00  0.00     0.127 C 
BRANCH  26  30
HETATM   30  C2  UNL     1      11.690  32.525  16.934  1.00  0.00     0.120 C 
HETATM   31  C1  UNL     1      11.315  31.446  17.905  1.00  0.00     0.026 C 
ENDBRANCH  26  30
ENDBRANCH  17  20
ENDBRANCH  16  17
ENDBRANCH   1  16
BRANCH  12  32
HETATM   32  O5  UNL     1       9.198  42.349  16.561  1.00  0.00    -0.387 OA
ATOM     33  H5  UNL     1       9.343  43.090  15.986  1.00  0.00     0.210 HD
ENDBRANCH  12  32
BRANCH  12  34
HETATM   34  C19 UNL     1       7.021  41.864  16.059  1.00  0.00     0.036 C 
HETATM   35  C20 UNL     1       7.560  41.950  14.612  1.00  0.00     0.008 C 
ENDBRANCH  12  34
BRANCH   6  36
HETATM   36  O4  UNL     1       6.618  45.936  15.974  1.00  0.00    -0.393 OA
ATOM     37  H4  UNL     1       6.747  45.542  15.119  1.00  0.00     0.210 HD
ENDBRANCH   6  36
BRANCH  11  38
HETATM   38  C15 UNL     1       8.850  46.654  19.072  1.00  0.00     0.008 C 
HETATM   39  C16 UNL     1       8.937  48.156  18.849  1.00  0.00     0.011 C 
HETATM   40  C17 UNL     1      10.251  46.139  19.298  1.00  0.00     0.011 C 
ENDBRANCH  11  38
TORSDOF 8
ENDMDL
MODEL 5
REMARK VINA RESULT: -7.617701740      3.279      9.008
REMARK  8 active torsions:
REMARK  status: ('A' for Active; 'I' for Inactive)
REMARK    1  A    between atoms: C2_2  and  N1_3 
REMARK       I    between atoms: N1_3  and  C3_5 
REMARK       I    between atoms: C3_5  and  N2_7 
REMARK    2  A    between atoms: N3_10  and  S1_11 
REMARK    3  A    between atoms: S1_11  and  C6_14 
REMARK    4  A    between atoms: C6_14  and  C7_15 
REMARK    5  A    between atoms: C12_20  and  O4_21 
REMARK    6  A    between atoms: C14_27  and  C15_28 
REMARK    7  A    between atoms: C18_31  and  O5_32 
REMARK    8  A    between atoms: C18_31  and  C19_34 
ROOT
HETATM    1  C7  UNL     1       9.541  34.853  19.409  1.00  0.00     0.015 C 
HETATM    2  C8  UNL     1      10.289  36.184  19.208  1.00  0.00     0.020 C 
HETATM    3  C9  UNL     1       9.310  36.590  18.242  1.00  0.00    -0.004 C 
HETATM    4  C10 UNL     1       9.283  36.527  16.833  1.00  0.00     0.014 C 
HETATM    5  C11 UNL     1      10.186  35.830  15.938  1.00  0.00     0.048 C 
HETATM    6  C12 UNL     1      10.123  34.313  15.987  1.00  0.00     0.158 C 
HETATM    7  C13 UNL     1      10.838  34.104  17.252  1.00  0.00     0.250 C 
HETATM    8  N4  UNL     1      11.940  35.043  17.132  1.00  0.00    -0.060 N 
ATOM      9  H41 UNL     1      12.836  34.575  16.994  1.00  0.00     0.278 HD
ATOM     10  H42 UNL     1      12.155  35.504  18.016  1.00  0.00     0.278 HD
HETATM   11  C14 UNL     1      11.649  35.968  16.096  1.00  0.00     0.196 C 
HETATM   12  C18 UNL     1      10.202  33.872  18.514  1.00  0.00     0.097 C 
HETATM   13  C21 UNL     1       8.379  35.586  19.009  1.00  0.00    -0.033 C 
HETATM   14  C22 UNL     1       7.271  35.044  18.175  1.00  0.00     0.016 C 
HETATM   15  C23 UNL     1       7.611  36.507  19.956  1.00  0.00     0.016 C 
ENDROOT
BRANCH   1  16
HETATM   16  C6  UNL     1       9.676  34.317  20.795  1.00  0.00     0.171 C 
BRANCH  16  17
HETATM   17  S1  UNL     1       8.647  33.190  21.569  1.00  0.00     0.212 S 
HETATM   18  O2  UNL     1       9.184  31.857  21.956  1.00  0.00    -0.211 OA
HETATM   19  O3  UNL     1       7.264  33.218  21.067  1.00  0.00    -0.211 OA
BRANCH  17  20
HETATM   20  N3  UNL     1       8.445  33.876  23.240  1.00  0.00    -0.207 NA
HETATM   21  C5  UNL     1       7.685  35.077  23.134  1.00  0.00     0.127 C 
HETATM   22  C4  UNL     1       6.929  35.278  24.433  1.00  0.00     0.143 C 
HETATM   23  N2  UNL     1       5.979  34.200  24.613  1.00  0.00    -0.332 N 
HETATM   24  C3  UNL     1       4.744  34.408  25.310  1.00  0.00     0.318 C 
HETATM   25  C25 UNL     1       6.319  32.906  24.060  1.00  0.00     0.143 C 
HETATM   26  N1  UNL     1       3.826  33.348  25.483  1.00  0.00    -0.343 N 
HETATM   27  O1  UNL     1       4.507  35.563  25.758  1.00  0.00    -0.247 OA
ATOM     28  H1  UNL     1       4.050  32.427  25.108  1.00  0.00     0.164 HD
HETATM   29  C24 UNL     1       7.821  32.807  23.977  1.00  0.00     0.127 C 
BRANCH  26  30
HETATM   30  C2  UNL     1       2.574  33.544  26.183  1.00  0.00     0.120 C 
HETATM   31  C1  UNL     1       1.484  32.645  25.683  1.00  0.00     0.026 C 
ENDBRANCH  26  30
ENDBRANCH  17  20
ENDBRANCH  16  17
ENDBRANCH   1  16
BRANCH  12  32
HETATM   32  O5  UNL     1      11.362  33.500  19.301  1.00  0.00    -0.387 OA
ATOM     33  H5  UNL     1      11.881  33.031  18.660  1.00  0.00     0.210 HD
ENDBRANCH  12  32
BRANCH  12  34
HETATM   34  C19 UNL     1       9.447  32.570  18.468  1.00  0.00     0.036 C 
HETATM   35  C20 UNL     1      10.361  31.331  18.613  1.00  0.00     0.008 C 
ENDBRANCH  12  34
BRANCH   6  36
HETATM   36  O4  UNL     1      10.913  33.898  14.884  1.00  0.00    -0.393 OA
ATOM     37  H4  UNL     1      11.510  33.258  15.254  1.00  0.00     0.210 HD
ENDBRANCH   6  36
BRANCH  11  38
HETATM   38  C15 UNL     1      12.214  37.317  16.192  1.00  0.00     0.008 C 
HETATM   39  C16 UNL     1      11.624  38.230  15.127  1.00  0.00     0.011 C 
HETATM   40  C17 UNL     1      13.717  37.371  16.063  1.00  0.00     0.011 C 
ENDBRANCH  11  38
TORSDOF 8
ENDMDL
