MODEL 1
REMARK VINA RESULT: -7.909961560      0.000      0.000
REMARK  9 active torsions:
REMARK  status: ('A' for Active; 'I' for Inactive)
REMARK    1  A    between atoms: C2_2  and  C3_3 
REMARK    2  A    between atoms: C3_3  and  C5_5 
REMARK    3  A    between atoms: C5_5  and  O1_6 
REMARK    4  A    between atoms: O1_6  and  C6_7 
REMARK       I    between atoms: N1_10  and  C9_12 
REMARK    5  A    between atoms: C13_20  and  C14_21 
REMARK    6  A    between atoms: C14_21  and  C16_23 
REMARK    7  A    between atoms: C19_29  and  C20_30 
REMARK    8  A    between atoms: C20_30  and  C22_32 
REMARK    9  A    between atoms: C24_36  and  O5_37 
ROOT
HETATM    1  C6  UNL     1      10.184  36.171  16.141  1.00  0.00     0.228 C 
HETATM    2  C7  UNL     1       8.888  36.860  16.384  1.00  0.00     0.110 C 
HETATM    3  C8  UNL     1       8.455  36.981  17.770  1.00  0.00     0.039 C 
HETATM    4  N1  UNL     1       7.615  37.888  18.114  1.00  0.00    -0.331 N 
ATOM      5  H1  UNL     1       7.317  37.966  19.086  1.00  0.00     0.168 HD
HETATM    6  C9  UNL     1       7.101  38.782  17.139  1.00  0.00     0.217 C 
HETATM    7  C10 UNL     1       7.613  40.151  16.973  1.00  0.00     0.117 C 
HETATM    8  O2  UNL     1       6.166  38.351  16.401  1.00  0.00    -0.274 OA
HETATM    9  C11 UNL     1       9.004  36.019  18.823  1.00  0.00     0.218 C 
HETATM   10  N2  UNL     1       8.603  36.532  20.104  1.00  0.00    -0.330 N 
ATOM     11  H2  UNL     1       9.132  37.331  20.454  1.00  0.00     0.164 HD
HETATM   12  C12 UNL     1       7.572  36.067  20.930  1.00  0.00     0.242 C 
HETATM   13  O3  UNL     1       6.695  36.890  21.320  1.00  0.00    -0.271 OA
HETATM   14  C13 UNL     1       7.414  34.664  21.399  1.00  0.00     0.180 C 
HETATM   15  N3  UNL     1       8.652  34.166  21.955  1.00  0.00    -0.346 N 
ATOM     16  H3  UNL     1       8.768  34.194  22.968  1.00  0.00     0.163 HD
HETATM   17  C18 UNL     1       9.730  33.633  21.164  1.00  0.00     0.241 C 
HETATM   18  O4  UNL     1      10.897  33.955  21.507  1.00  0.00    -0.271 OA
HETATM   19  C19 UNL     1       9.520  32.765  20.020  1.00  0.00     0.179 C 
HETATM   20  N4  UNL     1       9.172  33.428  18.775  1.00  0.00    -0.358 N 
ATOM     21  H4  UNL     1       9.398  32.888  17.940  1.00  0.00     0.162 HD
HETATM   22  C24 UNL     1       8.592  34.651  18.510  1.00  0.00     0.157 C 
HETATM   23  C25 UNL     1      10.487  36.221  18.637  1.00  0.00     0.262 C 
HETATM   24  O6  UNL     1      11.261  36.609  19.532  1.00  0.00    -0.270 OA
HETATM   25  N5  UNL     1      10.964  35.932  17.337  1.00  0.00    -0.331 N 
ATOM     26  H5  UNL     1      11.900  35.538  17.238  1.00  0.00     0.165 HD
ENDROOT
BRANCH  22  27
HETATM   27  O5  UNL     1       7.459  34.604  17.854  1.00  0.00    -0.347 OA
ATOM     28  H5  UNL     1       6.809  34.062  18.285  1.00  0.00     0.219 HD
ENDBRANCH  22  27
BRANCH   1  29
HETATM   29  O1  UNL     1      11.011  36.912  15.287  1.00  0.00    -0.366 OA
BRANCH  29  30
HETATM   30  C5  UNL     1      11.067  38.256  15.641  1.00  0.00     0.174 C 
BRANCH  30  31
HETATM   31  C3  UNL     1      11.743  39.021  14.540  1.00  0.00     0.005 C 
HETATM   32  C4  UNL     1      13.256  39.038  14.716  1.00  0.00     0.012 C 
BRANCH  31  33
HETATM   33  C2  UNL     1      11.235  40.445  14.451  1.00  0.00     0.002 C 
HETATM   34  C1  UNL     1      10.879  40.817  13.028  1.00  0.00     0.005 C 
ENDBRANCH  31  33
ENDBRANCH  30  31
ENDBRANCH  29  30
ENDBRANCH   1  29
BRANCH  14  35
HETATM   35  C14 UNL     1       6.365  34.579  22.493  1.00  0.00     0.013 C 
HETATM   36  C15 UNL     1       5.516  33.343  22.377  1.00  0.00     0.012 C 
BRANCH  35  37
HETATM   37  C16 UNL     1       7.071  34.551  23.825  1.00  0.00     0.002 C 
HETATM   38  C17 UNL     1       6.610  35.646  24.759  1.00  0.00     0.005 C 
ENDBRANCH  35  37
ENDBRANCH  14  35
BRANCH  19  39
HETATM   39  C20 UNL     1      10.583  31.715  19.775  1.00  0.00     0.013 C 
HETATM   40  C21 UNL     1       9.887  30.368  19.599  1.00  0.00     0.012 C 
BRANCH  39  41
HETATM   41  C22 UNL     1      11.532  31.971  18.659  1.00  0.00     0.002 C 
HETATM   42  C23 UNL     1      11.357  30.802  17.669  1.00  0.00     0.005 C 
ENDBRANCH  39  41
ENDBRANCH  19  39
TORSDOF 9
ENDMDL
MODEL 2
REMARK VINA RESULT: -7.868641260      1.927      5.276
REMARK  9 active torsions:
REMARK  status: ('A' for Active; 'I' for Inactive)
REMARK    1  A    between atoms: C2_2  and  C3_3 
REMARK    2  A    between atoms: C3_3  and  C5_5 
REMARK    3  A    between atoms: C5_5  and  O1_6 
REMARK    4  A    between atoms: O1_6  and  C6_7 
REMARK       I    between atoms: N1_10  and  C9_12 
REMARK    5  A    between atoms: C13_20  and  C14_21 
REMARK    6  A    between atoms: C14_21  and  C16_23 
REMARK    7  A    between atoms: C19_29  and  C20_30 
REMARK    8  A    between atoms: C20_30  and  C22_32 
REMARK    9  A    between atoms: C24_36  and  O5_37 
ROOT
HETATM    1  C6  UNL     1       8.844  39.352  17.616  1.00  0.00     0.228 C 
HETATM    2  C7  UNL     1      10.146  39.106  16.938  1.00  0.00     0.110 C 
HETATM    3  C8  UNL     1      10.357  37.778  16.378  1.00  0.00     0.039 C 
HETATM    4  N1  UNL     1      11.216  37.594  15.443  1.00  0.00    -0.331 N 
ATOM      5  H1  UNL     1      11.358  36.661  15.056  1.00  0.00     0.168 HD
HETATM    6  C9  UNL     1      11.969  38.691  14.948  1.00  0.00     0.217 C 
HETATM    7  C10 UNL     1      11.631  39.382  13.695  1.00  0.00     0.117 C 
HETATM    8  O2  UNL     1      12.964  39.062  15.640  1.00  0.00    -0.274 OA
HETATM    9  C11 UNL     1       9.549  36.593  16.908  1.00  0.00     0.218 C 
HETATM   10  N2  UNL     1       9.786  35.495  16.012  1.00  0.00    -0.330 N 
ATOM     11  H2  UNL     1       9.290  35.527  15.121  1.00  0.00     0.164 HD
HETATM   12  C12 UNL     1      10.617  34.386  16.215  1.00  0.00     0.242 C 
HETATM   13  O3  UNL     1      11.496  34.125  15.346  1.00  0.00    -0.271 OA
HETATM   14  C13 UNL     1      10.554  33.469  17.384  1.00  0.00     0.180 C 
HETATM   15  N3  UNL     1       9.199  33.024  17.617  1.00  0.00    -0.346 N 
ATOM     16  H3  UNL     1       8.922  32.115  17.247  1.00  0.00     0.163 HD
HETATM   17  C18 UNL     1       8.216  33.788  18.340  1.00  0.00     0.241 C 
HETATM   18  O4  UNL     1       7.047  33.792  17.875  1.00  0.00    -0.271 OA
HETATM   19  C19 UNL     1       8.521  34.531  19.549  1.00  0.00     0.179 C 
HETATM   20  N4  UNL     1       9.133  35.834  19.356  1.00  0.00    -0.358 N 
ATOM     21  H4  UNL     1       8.993  36.478  20.135  1.00  0.00     0.162 HD
HETATM   22  C24 UNL     1       9.868  36.366  18.317  1.00  0.00     0.157 C 
HETATM   23  C25 UNL     1       8.145  37.109  16.720  1.00  0.00     0.262 C 
HETATM   24  O6  UNL     1       7.278  36.548  16.023  1.00  0.00    -0.270 OA
HETATM   25  N5  UNL     1       7.860  38.311  17.408  1.00  0.00    -0.331 N 
ATOM     26  H5  UNL     1       6.918  38.451  17.774  1.00  0.00     0.165 HD
ENDROOT
BRANCH  22  27
HETATM   27  O5  UNL     1      11.082  36.748  18.627  1.00  0.00    -0.347 OA
ATOM     28  H5  UNL     1      11.565  36.081  19.101  1.00  0.00     0.219 HD
ENDBRANCH  22  27
BRANCH   1  29
HETATM   29  O1  UNL     1       8.246  40.539  17.171  1.00  0.00    -0.366 OA
BRANCH  29  30
HETATM   30  C5  UNL     1       8.460  40.761  15.815  1.00  0.00     0.174 C 
BRANCH  30  31
HETATM   31  C3  UNL     1       8.644  42.234  15.587  1.00  0.00     0.005 C 
HETATM   32  C4  UNL     1       7.330  42.916  15.235  1.00  0.00     0.012 C 
BRANCH  31  33
HETATM   33  C2  UNL     1       9.659  42.511  14.497  1.00  0.00     0.002 C 
HETATM   34  C1  UNL     1       9.168  42.028  13.150  1.00  0.00     0.005 C 
ENDBRANCH  31  33
ENDBRANCH  30  31
ENDBRANCH  29  30
ENDBRANCH   1  29
BRANCH  14  35
HETATM   35  C14 UNL     1      11.396  32.229  17.141  1.00  0.00     0.013 C 
HETATM   36  C15 UNL     1      12.838  32.433  17.520  1.00  0.00     0.012 C 
BRANCH  35  37
HETATM   37  C16 UNL     1      10.836  31.105  17.974  1.00  0.00     0.002 C 
HETATM   38  C17 UNL     1      11.711  30.754  19.155  1.00  0.00     0.005 C 
ENDBRANCH  35  37
ENDBRANCH  14  35
BRANCH  19  39
HETATM   39  C20 UNL     1       7.413  34.618  20.576  1.00  0.00     0.013 C 
HETATM   40  C21 UNL     1       7.994  34.234  21.935  1.00  0.00     0.012 C 
BRANCH  39  41
HETATM   41  C22 UNL     1       6.679  35.909  20.660  1.00  0.00     0.002 C 
HETATM   42  C23 UNL     1       5.186  35.569  20.474  1.00  0.00     0.005 C 
ENDBRANCH  39  41
ENDBRANCH  19  39
TORSDOF 9
ENDMDL
MODEL 3
REMARK VINA RESULT: -7.742953101      1.904      5.692
REMARK  9 active torsions:
REMARK  status: ('A' for Active; 'I' for Inactive)
REMARK    1  A    between atoms: C2_2  and  C3_3 
REMARK    2  A    between atoms: C3_3  and  C5_5 
REMARK    3  A    between atoms: C5_5  and  O1_6 
REMARK    4  A    between atoms: O1_6  and  C6_7 
REMARK       I    between atoms: N1_10  and  C9_12 
REMARK    5  A    between atoms: C13_20  and  C14_21 
REMARK    6  A    between atoms: C14_21  and  C16_23 
REMARK    7  A    between atoms: C19_29  and  C20_30 
REMARK    8  A    between atoms: C20_30  and  C22_32 
REMARK    9  A    between atoms: C24_36  and  O5_37 
ROOT
HETATM    1  C6  UNL     1       8.852  39.378  17.600  1.00  0.00     0.228 C 
HETATM    2  C7  UNL     1      10.151  39.124  16.921  1.00  0.00     0.110 C 
HETATM    3  C8  UNL     1      10.356  37.793  16.365  1.00  0.00     0.039 C 
HETATM    4  N1  UNL     1      11.212  37.601  15.430  1.00  0.00    -0.331 N 
ATOM      5  H1  UNL     1      11.350  36.666  15.046  1.00  0.00     0.168 HD
HETATM    6  C9  UNL     1      11.969  38.693  14.930  1.00  0.00     0.217 C 
HETATM    7  C10 UNL     1      11.632  39.381  13.673  1.00  0.00     0.117 C 
HETATM    8  O2  UNL     1      12.967  39.063  15.617  1.00  0.00    -0.274 OA
HETATM    9  C11 UNL     1       9.544  36.614  16.902  1.00  0.00     0.218 C 
HETATM   10  N2  UNL     1       9.775  35.511  16.010  1.00  0.00    -0.330 N 
ATOM     11  H2  UNL     1       9.277  35.541  15.120  1.00  0.00     0.164 HD
HETATM   12  C12 UNL     1      10.601  34.399  16.216  1.00  0.00     0.242 C 
HETATM   13  O3  UNL     1      11.478  34.131  15.346  1.00  0.00    -0.271 OA
HETATM   14  C13 UNL     1      10.537  33.487  17.389  1.00  0.00     0.180 C 
HETATM   15  N3  UNL     1       9.180  33.049  17.626  1.00  0.00    -0.346 N 
ATOM     16  H3  UNL     1       8.900  32.140  17.260  1.00  0.00     0.163 HD
HETATM   17  C18 UNL     1       8.202  33.820  18.348  1.00  0.00     0.241 C 
HETATM   18  O4  UNL     1       7.033  33.826  17.885  1.00  0.00    -0.271 OA
HETATM   19  C19 UNL     1       8.513  34.566  19.553  1.00  0.00     0.179 C 
HETATM   20  N4  UNL     1       9.129  35.866  19.354  1.00  0.00    -0.358 N 
ATOM     21  H4  UNL     1       8.993  36.513  20.131  1.00  0.00     0.162 HD
HETATM   22  C24 UNL     1       9.865  36.391  18.311  1.00  0.00     0.157 C 
HETATM   23  C25 UNL     1       8.141  37.134  16.715  1.00  0.00     0.262 C 
HETATM   24  O6  UNL     1       7.271  36.574  16.021  1.00  0.00    -0.270 OA
HETATM   25  N5  UNL     1       7.863  38.341  17.398  1.00  0.00    -0.331 N 
ATOM     26  H5  UNL     1       6.922  38.486  17.765  1.00  0.00     0.165 HD
ENDROOT
BRANCH  22  27
HETATM   27  O5  UNL     1      11.080  36.769  18.618  1.00  0.00    -0.347 OA
ATOM     28  H5  UNL     1      11.732  36.423  18.020  1.00  0.00     0.219 HD
ENDBRANCH  22  27
BRANCH   1  29
HETATM   29  O1  UNL     1       8.257  40.565  17.151  1.00  0.00    -0.366 OA
BRANCH  29  30
HETATM   30  C5  UNL     1       6.885  40.432  16.971  1.00  0.00     0.174 C 
BRANCH  30  31
HETATM   31  C3  UNL     1       6.202  41.650  17.525  1.00  0.00     0.005 C 
HETATM   32  C4  UNL     1       6.914  42.930  17.108  1.00  0.00     0.012 C 
BRANCH  31  33
HETATM   33  C2  UNL     1       6.106  41.602  19.036  1.00  0.00     0.002 C 
HETATM   34  C1  UNL     1       4.977  42.470  19.546  1.00  0.00     0.005 C 
ENDBRANCH  31  33
ENDBRANCH  30  31
ENDBRANCH  29  30
ENDBRANCH   1  29
BRANCH  14  35
HETATM   35  C14 UNL     1      11.374  32.243  17.149  1.00  0.00     0.013 C 
HETATM   36  C15 UNL     1      12.819  32.446  17.515  1.00  0.00     0.012 C 
BRANCH  35  37
HETATM   37  C16 UNL     1      10.818  31.127  17.996  1.00  0.00     0.002 C 
HETATM   38  C17 UNL     1      11.679  30.813  19.197  1.00  0.00     0.005 C 
ENDBRANCH  35  37
ENDBRANCH  14  35
BRANCH  19  39
HETATM   39  C20 UNL     1       7.406  34.662  20.582  1.00  0.00     0.013 C 
HETATM   40  C21 UNL     1       7.991  34.292  21.943  1.00  0.00     0.012 C 
BRANCH  39  41
HETATM   41  C22 UNL     1       6.671  35.952  20.655  1.00  0.00     0.002 C 
HETATM   42  C23 UNL     1       5.177  35.607  20.494  1.00  0.00     0.005 C 
ENDBRANCH  39  41
ENDBRANCH  19  39
TORSDOF 9
ENDMDL
MODEL 4
REMARK VINA RESULT: -7.557007577      2.009      4.918
REMARK  9 active torsions:
REMARK  status: ('A' for Active; 'I' for Inactive)
REMARK    1  A    between atoms: C2_2  and  C3_3 
REMARK    2  A    between atoms: C3_3  and  C5_5 
REMARK    3  A    between atoms: C5_5  and  O1_6 
REMARK    4  A    between atoms: O1_6  and  C6_7 
REMARK       I    between atoms: N1_10  and  C9_12 
REMARK    5  A    between atoms: C13_20  and  C14_21 
REMARK    6  A    between atoms: C14_21  and  C16_23 
REMARK    7  A    between atoms: C19_29  and  C20_30 
REMARK    8  A    between atoms: C20_30  and  C22_32 
REMARK    9  A    between atoms: C24_36  and  O5_37 
ROOT
HETATM    1  C6  UNL     1      10.009  37.962  17.153  1.00  0.00     0.228 C 
HETATM    2  C7  UNL     1      11.103  37.036  17.550  1.00  0.00     0.110 C 
HETATM    3  C8  UNL     1      10.709  35.748  18.106  1.00  0.00     0.039 C 
HETATM    4  N1  UNL     1      11.517  34.752  18.080  1.00  0.00    -0.331 N 
ATOM      5  H1  UNL     1      11.233  33.854  18.471  1.00  0.00     0.168 HD
HETATM    6  C9  UNL     1      12.806  34.902  17.506  1.00  0.00     0.217 C 
HETATM    7  C10 UNL     1      13.126  34.439  16.147  1.00  0.00     0.117 C 
HETATM    8  O2  UNL     1      13.692  35.460  18.220  1.00  0.00    -0.274 OA
HETATM    9  C11 UNL     1       9.322  35.582  18.727  1.00  0.00     0.218 C 
HETATM   10  N2  UNL     1       9.133  34.176  18.952  1.00  0.00    -0.330 N 
ATOM     11  H2  UNL     1       8.911  33.615  18.129  1.00  0.00     0.164 HD
HETATM   12  C12 UNL     1       9.218  33.483  20.166  1.00  0.00     0.242 C 
HETATM   13  O3  UNL     1       9.991  32.485  20.236  1.00  0.00    -0.271 OA
HETATM   14  C13 UNL     1       8.465  33.821  21.403  1.00  0.00     0.180 C 
HETATM   15  N3  UNL     1       7.058  33.993  21.117  1.00  0.00    -0.346 N 
ATOM     16  H3  UNL     1       6.434  33.206  21.290  1.00  0.00     0.163 HD
HETATM   17  C18 UNL     1       6.487  35.210  20.602  1.00  0.00     0.241 C 
HETATM   18  O4  UNL     1       5.604  35.090  19.714  1.00  0.00    -0.271 OA
HETATM   19  C19 UNL     1       6.884  36.529  21.061  1.00  0.00     0.179 C 
HETATM   20  N4  UNL     1       8.102  37.063  20.477  1.00  0.00    -0.358 N 
ATOM     21  H4  UNL     1       8.161  38.082  20.501  1.00  0.00     0.162 HD
HETATM   22  C24 UNL     1       9.194  36.453  19.895  1.00  0.00     0.157 C 
HETATM   23  C25 UNL     1       8.450  36.036  17.583  1.00  0.00     0.262 C 
HETATM   24  O6  UNL     1       7.576  35.331  17.044  1.00  0.00    -0.270 OA
HETATM   25  N5  UNL     1       8.694  37.358  17.143  1.00  0.00    -0.331 N 
ATOM     26  H5  UNL     1       7.906  37.910  16.802  1.00  0.00     0.165 HD
ENDROOT
BRANCH  22  27
HETATM   27  O5  UNL     1      10.343  36.684  20.480  1.00  0.00    -0.347 OA
ATOM     28  H5  UNL     1      10.335  36.456  21.402  1.00  0.00     0.219 HD
ENDBRANCH  22  27
BRANCH   1  29
HETATM   29  O1  UNL     1      10.206  38.473  15.863  1.00  0.00    -0.366 OA
BRANCH  29  30
HETATM   30  C5  UNL     1      11.422  38.076  15.319  1.00  0.00     0.174 C 
BRANCH  30  31
HETATM   31  C3  UNL     1      12.214  39.300  14.956  1.00  0.00     0.005 C 
HETATM   32  C4  UNL     1      11.558  40.077  13.823  1.00  0.00     0.012 C 
BRANCH  31  33
HETATM   33  C2  UNL     1      13.636  38.954  14.566  1.00  0.00     0.002 C 
HETATM   34  C1  UNL     1      14.248  37.961  15.530  1.00  0.00     0.005 C 
ENDBRANCH  31  33
ENDBRANCH  30  31
ENDBRANCH  29  30
ENDBRANCH   1  29
BRANCH  14  35
HETATM   35  C14 UNL     1       8.581  32.705  22.425  1.00  0.00     0.013 C 
HETATM   36  C15 UNL     1       9.082  33.196  23.755  1.00  0.00     0.012 C 
BRANCH  35  37
HETATM   37  C16 UNL     1       7.214  32.099  22.621  1.00  0.00     0.002 C 
HETATM   38  C17 UNL     1       7.259  30.606  22.851  1.00  0.00     0.005 C 
ENDBRANCH  35  37
ENDBRANCH  14  35
BRANCH  19  39
HETATM   39  C20 UNL     1       5.800  37.585  21.073  1.00  0.00     0.013 C 
HETATM   40  C21 UNL     1       4.827  37.253  22.202  1.00  0.00     0.012 C 
BRANCH  39  41
HETATM   41  C22 UNL     1       6.247  39.001  21.160  1.00  0.00     0.002 C 
HETATM   42  C23 UNL     1       6.180  39.383  22.652  1.00  0.00     0.005 C 
ENDBRANCH  39  41
ENDBRANCH  19  39
TORSDOF 9
ENDMDL
MODEL 5
REMARK VINA RESULT: -7.367582220      2.072      5.056
REMARK  9 active torsions:
REMARK  status: ('A' for Active; 'I' for Inactive)
REMARK    1  A    between atoms: C2_2  and  C3_3 
REMARK    2  A    between atoms: C3_3  and  C5_5 
REMARK    3  A    between atoms: C5_5  and  O1_6 
REMARK    4  A    between atoms: O1_6  and  C6_7 
REMARK       I    between atoms: N1_10  and  C9_12 
REMARK    5  A    between atoms: C13_20  and  C14_21 
REMARK    6  A    between atoms: C14_21  and  C16_23 
REMARK    7  A    between atoms: C19_29  and  C20_30 
REMARK    8  A    between atoms: C20_30  and  C22_32 
REMARK    9  A    between atoms: C24_36  and  O5_37 
ROOT
HETATM    1  C6  UNL     1       7.279  38.440  18.489  1.00  0.00     0.228 C 
HETATM    2  C7  UNL     1       6.521  37.394  19.227  1.00  0.00     0.110 C 
HETATM    3  C8  UNL     1       7.302  36.381  19.924  1.00  0.00     0.039 C 
HETATM    4  N1  UNL     1       6.792  35.720  20.898  1.00  0.00    -0.331 N 
ATOM      5  H1  UNL     1       7.346  35.013  21.381  1.00  0.00     0.168 HD
HETATM    6  C9  UNL     1       5.456  35.976  21.304  1.00  0.00     0.217 C 
HETATM    7  C10 UNL     1       5.128  36.808  22.471  1.00  0.00     0.117 C 
HETATM    8  O2  UNL     1       4.536  35.450  20.610  1.00  0.00    -0.274 OA
HETATM    9  C11 UNL     1       8.741  36.101  19.491  1.00  0.00     0.218 C 
HETATM   10  N2  UNL     1       9.322  35.258  20.499  1.00  0.00    -0.330 N 
ATOM     11  H2  UNL     1       9.597  35.719  21.366  1.00  0.00     0.164 HD
HETATM   12  C12 UNL     1       9.556  33.879  20.433  1.00  0.00     0.242 C 
HETATM   13  O3  UNL     1       9.091  33.145  21.351  1.00  0.00    -0.271 OA
HETATM   14  C13 UNL     1      10.319  33.187  19.360  1.00  0.00     0.180 C 
HETATM   15  N3  UNL     1      11.590  33.838  19.132  1.00  0.00    -0.346 N 
ATOM     16  H3  UNL     1      12.416  33.447  19.582  1.00  0.00     0.163 HD
HETATM   17  C18 UNL     1      11.757  35.006  18.306  1.00  0.00     0.241 C 
HETATM   18  O4  UNL     1      12.539  35.893  18.732  1.00  0.00    -0.271 OA
HETATM   19  C19 UNL     1      11.072  35.185  17.038  1.00  0.00     0.179 C 
HETATM   20  N4  UNL     1       9.701  35.657  17.119  1.00  0.00    -0.358 N 
ATOM     21  H4  UNL     1       9.374  36.128  16.275  1.00  0.00     0.162 HD
HETATM   22  C24 UNL     1       8.756  35.587  18.121  1.00  0.00     0.157 C 
HETATM   23  C25 UNL     1       9.333  37.485  19.582  1.00  0.00     0.262 C 
HETATM   24  O6  UNL     1      10.301  37.789  20.305  1.00  0.00    -0.270 OA
HETATM   25  N5  UNL     1       8.699  38.454  18.770  1.00  0.00    -0.331 N 
ATOM     26  H5  UNL     1       9.269  39.196  18.362  1.00  0.00     0.165 HD
ENDROOT
BRANCH  22  27
HETATM   27  O5  UNL     1       7.657  34.946  17.812  1.00  0.00    -0.347 OA
ATOM     28  H5  UNL     1       7.651  34.644  16.911  1.00  0.00     0.219 HD
ENDBRANCH  22  27
BRANCH   1  29
HETATM   29  O1  UNL     1       6.816  39.727  18.795  1.00  0.00    -0.366 OA
BRANCH  29  30
HETATM   30  C5  UNL     1       7.769  40.706  18.532  1.00  0.00     0.174 C 
BRANCH  30  31
HETATM   31  C3  UNL     1       7.113  41.833  17.788  1.00  0.00     0.005 C 
HETATM   32  C4  UNL     1       5.766  42.199  18.396  1.00  0.00     0.012 C 
BRANCH  31  33
HETATM   33  C2  UNL     1       6.926  41.505  16.321  1.00  0.00     0.002 C 
HETATM   34  C1  UNL     1       7.271  42.687  15.441  1.00  0.00     0.005 C 
ENDBRANCH  31  33
ENDBRANCH  30  31
ENDBRANCH  29  30
ENDBRANCH   1  29
BRANCH  14  35
HETATM   35  C14 UNL     1      10.616  31.751  19.752  1.00  0.00     0.013 C 
HETATM   36  C15 UNL     1       9.458  30.831  19.477  1.00  0.00     0.012 C 
BRANCH  35  37
HETATM   37  C16 UNL     1      11.804  31.278  18.953  1.00  0.00     0.002 C 
HETATM   38  C17 UNL     1      11.419  30.703  17.609  1.00  0.00     0.005 C 
ENDBRANCH  35  37
ENDBRANCH  14  35
BRANCH  19  39
HETATM   39  C20 UNL     1      11.829  35.951  15.974  1.00  0.00     0.013 C 
HETATM   40  C21 UNL     1      11.230  37.352  15.882  1.00  0.00     0.012 C 
BRANCH  39  41
HETATM   41  C22 UNL     1      13.307  36.016  16.121  1.00  0.00     0.002 C 
HETATM   42  C23 UNL     1      13.718  37.447  15.719  1.00  0.00     0.005 C 
ENDBRANCH  39  41
ENDBRANCH  19  39
TORSDOF 9
ENDMDL
