MODEL 1
REMARK VINA RESULT: -7.630207155      0.000      0.000
REMARK  8 active torsions:
REMARK  status: ('A' for Active; 'I' for Inactive)
REMARK    1  A    between atoms: C2_2  and  C3_3 
REMARK    2  A    between atoms: C3_3  and  C4_4 
REMARK    3  A    between atoms: C4_4  and  C5_5 
REMARK    4  A    between atoms: C7_9  and  C8_10 
REMARK    5  A    between atoms: C12_17  and  C13_18 
REMARK    6  A    between atoms: C13_18  and  C14_19 
REMARK    7  A    between atoms: C17_24  and  O4_25 
REMARK    8  A    between atoms: C21_33  and  C22_34 
ROOT
HETATM    1  C5  UNL     1       9.868  34.719  16.365  1.00  0.00     0.223 C 
HETATM    2  O1  UNL     1      10.426  35.857  16.904  1.00  0.00    -0.305 OA
HETATM    3  C6  UNL     1      10.062  37.162  16.955  1.00  0.00     0.283 C 
HETATM    4  O2  UNL     1      10.692  38.084  16.405  1.00  0.00    -0.263 OA
HETATM    5  C7  UNL     1       8.845  37.539  17.709  1.00  0.00     0.188 C 
HETATM    6  N1  UNL     1       9.136  37.492  19.112  1.00  0.00    -0.342 N 
ATOM      7  H1  UNL     1       9.973  36.952  19.332  1.00  0.00     0.163 HD
HETATM    8  C11 UNL     1       8.520  38.026  20.229  1.00  0.00     0.268 C 
HETATM    9  O3  UNL     1       9.339  38.689  20.988  1.00  0.00    -0.266 OA
HETATM   10  C12 UNL     1       7.159  37.995  20.715  1.00  0.00     0.099 C 
HETATM   11  N2  UNL     1       6.384  36.801  20.693  1.00  0.00    -0.335 N 
ATOM     12  H2  UNL     1       5.464  36.981  21.097  1.00  0.00     0.168 HD
HETATM   13  C17 UNL     1       6.469  35.493  20.308  1.00  0.00     0.139 C 
HETATM   14  C18 UNL     1       7.271  34.334  20.710  1.00  0.00     0.155 C 
HETATM   15  C19 UNL     1       6.629  33.543  21.852  1.00  0.00     0.041 C 
HETATM   16  N3  UNL     1       8.627  34.548  21.084  1.00  0.00    -0.348 N 
ATOM     17  H3  UNL     1       8.756  35.300  21.761  1.00  0.00     0.163 HD
HETATM   18  C20 UNL     1       9.805  33.930  20.704  1.00  0.00     0.241 C 
HETATM   19  O5  UNL     1      10.703  33.826  21.637  1.00  0.00    -0.271 OA
HETATM   20  C21 UNL     1      10.254  33.355  19.427  1.00  0.00     0.180 C 
HETATM   21  N4  UNL     1       9.318  33.180  18.391  1.00  0.00    -0.345 N 
ATOM     22  H4  UNL     1       8.775  32.321  18.473  1.00  0.00     0.163 HD
HETATM   23  C25 UNL     1       8.986  33.945  17.278  1.00  0.00     0.248 C 
HETATM   24  O6  UNL     1       7.729  33.986  17.000  1.00  0.00    -0.271 OA
ENDROOT
BRANCH   1  25
HETATM   25  C4  UNL     1      11.015  33.828  15.867  1.00  0.00     0.042 C 
BRANCH  25  26
HETATM   26  C3  UNL     1      12.339  34.478  15.842  1.00  0.00     0.003 C 
BRANCH  26  27
HETATM   27  C2  UNL     1      13.201  34.038  16.998  1.00  0.00    -0.004 C 
HETATM   28  C1  UNL     1      13.602  35.254  17.827  1.00  0.00     0.005 C 
ENDBRANCH  26  27
ENDBRANCH  25  26
ENDBRANCH   1  25
BRANCH   5  29
HETATM   29  C8  UNL     1       8.368  38.872  17.212  1.00  0.00     0.010 C 
HETATM   30  C9  UNL     1       6.888  39.040  17.144  1.00  0.00     0.012 C 
HETATM   31  C10 UNL     1       8.984  39.929  18.142  1.00  0.00     0.012 C 
ENDBRANCH   5  29
BRANCH  20  32
HETATM   32  C22 UNL     1      10.828  31.979  19.832  1.00  0.00     0.009 C 
HETATM   33  C23 UNL     1       9.691  31.033  20.236  1.00  0.00     0.012 C 
HETATM   34  C24 UNL     1      11.622  31.321  18.774  1.00  0.00     0.012 C 
ENDBRANCH  20  32
BRANCH  10  35
HETATM   35  C13 UNL     1       6.909  38.757  21.965  1.00  0.00     0.012 C 
BRANCH  35  36
HETATM   36  C14 UNL     1       6.003  39.882  22.059  1.00  0.00     0.002 C 
HETATM   37  C15 UNL     1       6.156  40.666  20.723  1.00  0.00     0.013 C 
HETATM   38  C16 UNL     1       4.532  39.622  22.139  1.00  0.00     0.013 C 
ENDBRANCH  35  36
ENDBRANCH  10  35
BRANCH  13  39
HETATM   39  O4  UNL     1       5.634  35.175  19.346  1.00  0.00    -0.348 OA
ATOM     40  H4  UNL     1       5.733  34.283  19.038  1.00  0.00     0.219 HD
ENDBRANCH  13  39
TORSDOF 8
ENDMDL
MODEL 2
REMARK VINA RESULT: -7.372114644      1.960      6.882
REMARK  8 active torsions:
REMARK  status: ('A' for Active; 'I' for Inactive)
REMARK    1  A    between atoms: C2_2  and  C3_3 
REMARK    2  A    between atoms: C3_3  and  C4_4 
REMARK    3  A    between atoms: C4_4  and  C5_5 
REMARK    4  A    between atoms: C7_9  and  C8_10 
REMARK    5  A    between atoms: C12_17  and  C13_18 
REMARK    6  A    between atoms: C13_18  and  C14_19 
REMARK    7  A    between atoms: C17_24  and  O4_25 
REMARK    8  A    between atoms: C21_33  and  C22_34 
ROOT
HETATM    1  C5  UNL     1       8.295  33.244  20.706  1.00  0.00     0.223 C 
HETATM    2  O1  UNL     1       9.665  33.203  20.840  1.00  0.00    -0.305 OA
HETATM    3  C6  UNL     1      10.675  32.660  20.116  1.00  0.00     0.283 C 
HETATM    4  O2  UNL     1      11.414  31.745  20.525  1.00  0.00    -0.263 OA
HETATM    5  C7  UNL     1      10.937  33.172  18.751  1.00  0.00     0.188 C 
HETATM    6  N1  UNL     1      11.596  34.440  18.850  1.00  0.00    -0.342 N 
ATOM      7  H1  UNL     1      11.499  34.874  19.769  1.00  0.00     0.163 HD
HETATM    8  C11 UNL     1      12.336  35.199  17.963  1.00  0.00     0.268 C 
HETATM    9  O3  UNL     1      13.483  35.568  18.449  1.00  0.00    -0.266 OA
HETATM   10  C12 UNL     1      12.092  35.659  16.614  1.00  0.00     0.099 C 
HETATM   11  N2  UNL     1      10.831  36.187  16.221  1.00  0.00    -0.335 N 
ATOM     12  H2  UNL     1      10.868  36.474  15.243  1.00  0.00     0.168 HD
HETATM   13  C17 UNL     1       9.585  36.436  16.726  1.00  0.00     0.139 C 
HETATM   14  C18 UNL     1       9.034  37.313  17.763  1.00  0.00     0.155 C 
HETATM   15  C19 UNL     1       8.657  38.695  17.224  1.00  0.00     0.041 C 
HETATM   16  N3  UNL     1       9.803  37.537  18.939  1.00  0.00    -0.348 N 
ATOM     17  H3  UNL     1      10.772  37.798  18.755  1.00  0.00     0.163 HD
HETATM   18  C20 UNL     1       9.488  37.468  20.283  1.00  0.00     0.241 C 
HETATM   19  O5  UNL     1      10.087  38.339  21.039  1.00  0.00    -0.271 OA
HETATM   20  C21 UNL     1       8.590  36.588  21.047  1.00  0.00     0.180 C 
HETATM   21  N4  UNL     1       7.699  35.752  20.348  1.00  0.00    -0.345 N 
ATOM     22  H4  UNL     1       6.838  36.219  20.066  1.00  0.00     0.163 HD
HETATM   23  C25 UNL     1       7.759  34.416  19.966  1.00  0.00     0.248 C 
HETATM   24  O6  UNL     1       7.278  34.161  18.799  1.00  0.00    -0.271 OA
ENDROOT
BRANCH   1  25
HETATM   25  C4  UNL     1       7.689  33.193  22.116  1.00  0.00     0.042 C 
BRANCH  25  26
HETATM   26  C3  UNL     1       6.221  33.045  22.156  1.00  0.00     0.003 C 
BRANCH  26  27
HETATM   27  C2  UNL     1       5.620  33.746  23.348  1.00  0.00    -0.004 C 
HETATM   28  C1  UNL     1       5.132  32.711  24.356  1.00  0.00     0.005 C 
ENDBRANCH  26  27
ENDBRANCH  25  26
ENDBRANCH   1  25
BRANCH   5  29
HETATM   29  C8  UNL     1      11.697  32.128  17.986  1.00  0.00     0.010 C 
HETATM   30  C9  UNL     1      11.209  30.729  18.151  1.00  0.00     0.012 C 
HETATM   31  C10 UNL     1      11.640  32.545  16.509  1.00  0.00     0.012 C 
ENDBRANCH   5  29
BRANCH  20  32
HETATM   32  C22 UNL     1       7.785  37.567  21.927  1.00  0.00     0.009 C 
HETATM   33  C23 UNL     1       6.500  37.991  21.205  1.00  0.00     0.012 C 
HETATM   34  C24 UNL     1       7.413  37.023  23.250  1.00  0.00     0.012 C 
ENDBRANCH  20  32
BRANCH  10  35
HETATM   35  C13 UNL     1      13.198  36.428  15.991  1.00  0.00     0.012 C 
BRANCH  35  36
HETATM   36  C14 UNL     1      13.155  37.854  15.744  1.00  0.00     0.002 C 
HETATM   37  C15 UNL     1      14.465  38.192  14.974  1.00  0.00     0.013 C 
HETATM   38  C16 UNL     1      12.083  38.403  14.858  1.00  0.00     0.013 C 
ENDBRANCH  35  36
ENDBRANCH  10  35
BRANCH  13  39
HETATM   39  O4  UNL     1       8.638  35.731  16.154  1.00  0.00    -0.348 OA
ATOM     40  H4  UNL     1       7.872  36.243  15.922  1.00  0.00     0.219 HD
ENDBRANCH  13  39
TORSDOF 8
ENDMDL
MODEL 3
REMARK VINA RESULT: -7.365100093      2.036      5.444
REMARK  8 active torsions:
REMARK  status: ('A' for Active; 'I' for Inactive)
REMARK    1  A    between atoms: C2_2  and  C3_3 
REMARK    2  A    between atoms: C3_3  and  C4_4 
REMARK    3  A    between atoms: C4_4  and  C5_5 
REMARK    4  A    between atoms: C7_9  and  C8_10 
REMARK    5  A    between atoms: C12_17  and  C13_18 
REMARK    6  A    between atoms: C13_18  and  C14_19 
REMARK    7  A    between atoms: C17_24  and  O4_25 
REMARK    8  A    between atoms: C21_33  and  C22_34 
ROOT
HETATM    1  C5  UNL     1       8.630  38.099  17.180  1.00  0.00     0.223 C 
HETATM    2  O1  UNL     1       8.718  38.290  18.542  1.00  0.00    -0.305 OA
HETATM    3  C6  UNL     1       7.888  38.064  19.589  1.00  0.00     0.283 C 
HETATM    4  O2  UNL     1       7.409  38.962  20.306  1.00  0.00    -0.263 OA
HETATM    5  C7  UNL     1       7.514  36.671  19.923  1.00  0.00     0.188 C 
HETATM    6  N1  UNL     1       8.622  36.037  20.575  1.00  0.00    -0.342 N 
ATOM      7  H1  UNL     1       9.507  36.523  20.428  1.00  0.00     0.163 HD
HETATM    8  C11 UNL     1       8.742  34.906  21.360  1.00  0.00     0.268 C 
HETATM    9  O3  UNL     1       9.362  35.133  22.479  1.00  0.00    -0.266 OA
HETATM   10  C12 UNL     1       8.319  33.534  21.187  1.00  0.00     0.099 C 
HETATM   11  N2  UNL     1       8.478  32.853  19.948  1.00  0.00    -0.335 N 
ATOM     12  H2  UNL     1       8.140  31.894  20.037  1.00  0.00     0.168 HD
HETATM   13  C17 UNL     1       8.935  33.063  18.678  1.00  0.00     0.139 C 
HETATM   14  C18 UNL     1      10.234  33.366  18.071  1.00  0.00     0.155 C 
HETATM   15  C19 UNL     1      11.028  32.105  17.722  1.00  0.00     0.041 C 
HETATM   16  N3  UNL     1      11.127  34.220  18.776  1.00  0.00    -0.348 N 
ATOM     17  H3  UNL     1      11.263  33.960  19.753  1.00  0.00     0.163 HD
HETATM   18  C20 UNL     1      11.847  35.336  18.390  1.00  0.00     0.241 C 
HETATM   19  O5  UNL     1      13.014  35.464  18.947  1.00  0.00    -0.271 OA
HETATM   20  C21 UNL     1      11.550  36.431  17.453  1.00  0.00     0.180 C 
HETATM   21  N4  UNL     1      10.436  36.316  16.602  1.00  0.00    -0.345 N 
ATOM     22  H4  UNL     1      10.622  35.777  15.757  1.00  0.00     0.163 HD
HETATM   23  C25 UNL     1       9.131  36.791  16.683  1.00  0.00     0.248 C 
HETATM   24  O6  UNL     1       8.227  35.974  16.265  1.00  0.00    -0.271 OA
ENDROOT
BRANCH   1  25
HETATM   25  C4  UNL     1       9.393  39.245  16.500  1.00  0.00     0.042 C 
BRANCH  25  26
HETATM   26  C3  UNL     1       8.681  40.536  16.474  1.00  0.00     0.003 C 
BRANCH  26  27
HETATM   27  C2  UNL     1       7.188  40.352  16.370  1.00  0.00    -0.004 C 
HETATM   28  C1  UNL     1       6.495  41.192  17.436  1.00  0.00     0.005 C 
ENDBRANCH  26  27
ENDBRANCH  25  26
ENDBRANCH   1  25
BRANCH   5  29
HETATM   29  C8  UNL     1       6.245  36.694  20.724  1.00  0.00     0.010 C 
HETATM   30  C9  UNL     1       5.321  35.547  20.496  1.00  0.00     0.012 C 
HETATM   31  C10 UNL     1       6.665  36.760  22.200  1.00  0.00     0.012 C 
ENDBRANCH   5  29
BRANCH  20  32
HETATM   32  C22 UNL     1      12.833  36.537  16.601  1.00  0.00     0.009 C 
HETATM   33  C23 UNL     1      13.054  35.237  15.818  1.00  0.00     0.012 C 
HETATM   34  C24 UNL     1      12.829  37.659  15.640  1.00  0.00     0.012 C 
ENDBRANCH  20  32
BRANCH  10  35
HETATM   35  C13 UNL     1       8.615  32.626  22.325  1.00  0.00     0.012 C 
BRANCH  35  36
HETATM   36  C14 UNL     1       7.604  31.904  23.069  1.00  0.00     0.002 C 
HETATM   37  C15 UNL     1       6.249  32.585  22.716  1.00  0.00     0.013 C 
HETATM   38  C16 UNL     1       7.360  30.464  22.748  1.00  0.00     0.013 C 
ENDBRANCH  35  36
ENDBRANCH  10  35
BRANCH  13  39
HETATM   39  O4  UNL     1       7.999  32.972  17.762  1.00  0.00    -0.348 OA
ATOM     40  H4  UNL     1       8.338  32.857  16.883  1.00  0.00     0.219 HD
ENDBRANCH  13  39
TORSDOF 8
ENDMDL
MODEL 4
REMARK VINA RESULT: -7.233493918      2.247      5.812
REMARK  8 active torsions:
REMARK  status: ('A' for Active; 'I' for Inactive)
REMARK    1  A    between atoms: C2_2  and  C3_3 
REMARK    2  A    between atoms: C3_3  and  C4_4 
REMARK    3  A    between atoms: C4_4  and  C5_5 
REMARK    4  A    between atoms: C7_9  and  C8_10 
REMARK    5  A    between atoms: C12_17  and  C13_18 
REMARK    6  A    between atoms: C13_18  and  C14_19 
REMARK    7  A    between atoms: C17_24  and  O4_25 
REMARK    8  A    between atoms: C21_33  and  C22_34 
ROOT
HETATM    1  C5  UNL     1       8.178  33.283  19.939  1.00  0.00     0.223 C 
HETATM    2  O1  UNL     1       9.514  33.417  19.631  1.00  0.00    -0.305 OA
HETATM    3  C6  UNL     1      10.232  33.379  18.482  1.00  0.00     0.283 C 
HETATM    4  O2  UNL     1      11.087  32.511  18.222  1.00  0.00    -0.263 OA
HETATM    5  C7  UNL     1      10.007  34.424  17.458  1.00  0.00     0.188 C 
HETATM    6  N1  UNL     1      10.632  35.639  17.890  1.00  0.00    -0.342 N 
ATOM      7  H1  UNL     1      10.840  35.652  18.889  1.00  0.00     0.163 HD
HETATM    8  C11 UNL     1      11.012  36.797  17.238  1.00  0.00     0.268 C 
HETATM    9  O3  UNL     1      12.247  37.126  17.472  1.00  0.00    -0.266 OA
HETATM   10  C12 UNL     1      10.317  37.706  16.355  1.00  0.00     0.099 C 
HETATM   11  N2  UNL     1       8.985  38.133  16.618  1.00  0.00    -0.335 N 
ATOM     12  H2  UNL     1       8.683  38.785  15.893  1.00  0.00     0.168 HD
HETATM   13  C17 UNL     1       7.977  37.954  17.524  1.00  0.00     0.139 C 
HETATM   14  C18 UNL     1       7.788  38.246  18.947  1.00  0.00     0.155 C 
HETATM   15  C19 UNL     1       7.220  39.646  19.190  1.00  0.00     0.041 C 
HETATM   16  N3  UNL     1       8.903  38.109  19.820  1.00  0.00    -0.348 N 
ATOM     17  H3  UNL     1       9.747  38.576  19.489  1.00  0.00     0.163 HD
HETATM   18  C20 UNL     1       9.061  37.463  21.033  1.00  0.00     0.241 C 
HETATM   19  O5  UNL     1       9.860  38.049  21.874  1.00  0.00    -0.271 OA
HETATM   20  C21 UNL     1       8.494  36.218  21.573  1.00  0.00     0.180 C 
HETATM   21  N4  UNL     1       7.439  35.593  20.882  1.00  0.00    -0.345 N 
ATOM     22  H4  UNL     1       6.523  35.986  21.096  1.00  0.00     0.163 HD
HETATM   23  C25 UNL     1       7.397  34.547  19.967  1.00  0.00     0.248 C 
HETATM   24  O6  UNL     1       6.556  34.700  19.003  1.00  0.00    -0.271 OA
ENDROOT
BRANCH   1  25
HETATM   25  C4  UNL     1       8.084  32.580  21.301  1.00  0.00     0.042 C 
BRANCH  25  26
HETATM   26  C3  UNL     1       9.330  31.934  21.755  1.00  0.00     0.003 C 
BRANCH  26  27
HETATM   27  C2  UNL     1       9.765  32.441  23.106  1.00  0.00    -0.004 C 
HETATM   28  C1  UNL     1      11.104  33.159  22.976  1.00  0.00     0.005 C 
ENDBRANCH  26  27
ENDBRANCH  25  26
ENDBRANCH   1  25
BRANCH   5  29
HETATM   29  C8  UNL     1      10.489  33.908  16.133  1.00  0.00     0.010 C 
HETATM   30  C9  UNL     1       9.785  34.453  14.937  1.00  0.00     0.012 C 
HETATM   31  C10 UNL     1      11.990  34.227  16.063  1.00  0.00     0.012 C 
ENDBRANCH   5  29
BRANCH  20  32
HETATM   32  C22 UNL     1       8.010  36.623  22.983  1.00  0.00     0.009 C 
HETATM   33  C23 UNL     1       6.657  37.336  22.890  1.00  0.00     0.012 C 
HETATM   34  C24 UNL     1       7.871  35.490  23.921  1.00  0.00     0.012 C 
ENDBRANCH  20  32
BRANCH  10  35
HETATM   35  C13 UNL     1      11.130  38.830  15.824  1.00  0.00     0.012 C 
BRANCH  35  36
HETATM   36  C14 UNL     1      11.890  38.770  14.593  1.00  0.00     0.002 C 
HETATM   37  C15 UNL     1      11.491  40.039  13.785  1.00  0.00     0.013 C 
HETATM   38  C16 UNL     1      13.381  38.857  14.659  1.00  0.00     0.013 C 
ENDBRANCH  35  36
ENDBRANCH  10  35
BRANCH  13  39
HETATM   39  O4  UNL     1       6.909  37.388  17.014  1.00  0.00    -0.348 OA
ATOM     40  H4  UNL     1       7.075  36.931  16.199  1.00  0.00     0.219 HD
ENDBRANCH  13  39
TORSDOF 8
ENDMDL
MODEL 5
REMARK VINA RESULT: -7.187913781      2.076      3.367
REMARK  8 active torsions:
REMARK  status: ('A' for Active; 'I' for Inactive)
REMARK    1  A    between atoms: C2_2  and  C3_3 
REMARK    2  A    between atoms: C3_3  and  C4_4 
REMARK    3  A    between atoms: C4_4  and  C5_5 
REMARK    4  A    between atoms: C7_9  and  C8_10 
REMARK    5  A    between atoms: C12_17  and  C13_18 
REMARK    6  A    between atoms: C13_18  and  C14_19 
REMARK    7  A    between atoms: C17_24  and  O4_25 
REMARK    8  A    between atoms: C21_33  and  C22_34 
ROOT
HETATM    1  C5  UNL     1       9.407  33.139  18.720  1.00  0.00     0.223 C 
HETATM    2  O1  UNL     1      10.433  33.931  19.187  1.00  0.00    -0.305 OA
HETATM    3  C6  UNL     1      11.072  35.032  18.721  1.00  0.00     0.283 C 
HETATM    4  O2  UNL     1      12.275  35.058  18.400  1.00  0.00    -0.263 OA
HETATM    5  C7  UNL     1      10.314  36.296  18.578  1.00  0.00     0.188 C 
HETATM    6  N1  UNL     1      10.123  36.871  19.877  1.00  0.00    -0.342 N 
ATOM      7  H1  UNL     1      10.263  36.205  20.637  1.00  0.00     0.163 HD
HETATM    8  C11 UNL     1       9.788  38.138  20.315  1.00  0.00     0.268 C 
HETATM    9  O3  UNL     1      10.608  38.593  21.215  1.00  0.00    -0.266 OA
HETATM   10  C12 UNL     1       8.719  39.051  19.976  1.00  0.00     0.099 C 
HETATM   11  N2  UNL     1       7.377  38.605  19.822  1.00  0.00    -0.335 N 
ATOM     12  H2  UNL     1       6.774  39.399  19.605  1.00  0.00     0.168 HD
HETATM   13  C17 UNL     1       6.631  37.461  19.868  1.00  0.00     0.139 C 
HETATM   14  C18 UNL     1       6.275  36.486  20.902  1.00  0.00     0.155 C 
HETATM   15  C19 UNL     1       5.004  36.872  21.662  1.00  0.00     0.041 C 
HETATM   16  N3  UNL     1       7.248  36.162  21.889  1.00  0.00    -0.348 N 
ATOM     17  H3  UNL     1       7.682  36.975  22.325  1.00  0.00     0.163 HD
HETATM   18  C20 UNL     1       7.718  34.953  22.369  1.00  0.00     0.241 C 
HETATM   19  O5  UNL     1       8.019  34.936  23.633  1.00  0.00    -0.271 OA
HETATM   20  C21 UNL     1       7.951  33.652  21.721  1.00  0.00     0.180 C 
HETATM   21  N4  UNL     1       7.459  33.442  20.419  1.00  0.00    -0.345 N 
ATOM     22  H4  UNL     1       6.477  33.166  20.394  1.00  0.00     0.163 HD
HETATM   23  C25 UNL     1       8.043  33.534  19.161  1.00  0.00     0.248 C 
HETATM   24  O6  UNL     1       7.289  34.036  18.245  1.00  0.00    -0.271 OA
ENDROOT
BRANCH   1  25
HETATM   25  C4  UNL     1       9.699  31.695  19.153  1.00  0.00     0.042 C 
BRANCH  25  26
HETATM   26  C3  UNL     1      11.115  31.292  19.056  1.00  0.00     0.003 C 
BRANCH  26  27
HETATM   27  C2  UNL     1      11.469  30.819  17.669  1.00  0.00    -0.004 C 
HETATM   28  C1  UNL     1      12.282  31.893  16.955  1.00  0.00     0.005 C 
ENDBRANCH  26  27
ENDBRANCH  25  26
ENDBRANCH   1  25
BRANCH   5  29
HETATM   29  C8  UNL     1      11.035  37.179  17.602  1.00  0.00     0.010 C 
HETATM   30  C9  UNL     1      11.854  36.468  16.578  1.00  0.00     0.012 C 
HETATM   31  C10 UNL     1       9.961  38.043  16.923  1.00  0.00     0.012 C 
ENDBRANCH   5  29
BRANCH  20  32
HETATM   32  C22 UNL     1       7.290  32.644  22.685  1.00  0.00     0.009 C 
HETATM   33  C23 UNL     1       5.775  32.607  22.451  1.00  0.00     0.012 C 
HETATM   34  C24 UNL     1       7.809  31.266  22.565  1.00  0.00     0.012 C 
ENDBRANCH  20  32
BRANCH  10  35
HETATM   35  C13 UNL     1       8.758  40.365  20.666  1.00  0.00     0.012 C 
BRANCH  35  36
HETATM   36  C14 UNL     1       8.551  41.635  20.002  1.00  0.00     0.002 C 
HETATM   37  C15 UNL     1       9.828  42.477  20.288  1.00  0.00     0.013 C 
HETATM   38  C16 UNL     1       8.447  41.662  18.510  1.00  0.00     0.013 C 
ENDBRANCH  35  36
ENDBRANCH  10  35
BRANCH  13  39
HETATM   39  O4  UNL     1       6.090  37.142  18.716  1.00  0.00    -0.348 OA
ATOM     40  H4  UNL     1       6.544  36.440  18.265  1.00  0.00     0.219 HD
ENDBRANCH  13  39
TORSDOF 8
ENDMDL
