MODEL 1
REMARK VINA RESULT: -6.301591616      0.000      0.000
REMARK  5 active torsions:
REMARK  status: ('A' for Active; 'I' for Inactive)
REMARK    1  A    between atoms: N1_4  and  C4_5 
REMARK    2  A    between atoms: C4_5  and  C5_6 
REMARK    3  A    between atoms: C5_6  and  C6_7 
REMARK    4  A    between atoms: C6_7  and  N2_8 
REMARK    5  A    between atoms: C8_12  and  N4_13 
ROOT
HETATM    1  C6  UNL     1      16.577  11.288  23.345  1.00  0.00     0.152 C 
ENDROOT
BRANCH   1   2
HETATM    2  C5  UNL     1      15.730  10.433  22.399  1.00  0.00     0.042 C 
BRANCH   2   3
HETATM    3  C4  UNL     1      14.518  10.018  23.224  1.00  0.00     0.129 C 
BRANCH   3   4
HETATM    4  N1  UNL     1      14.537   8.638  23.584  1.00  0.00    -0.363 N 
HETATM    5  C3  UNL     1      14.113   8.208  24.782  1.00  0.00     0.114 A 
HETATM    6  C2  UNL     1      14.154   6.840  25.083  1.00  0.00     0.020 A 
HETATM    7  C1  UNL     1      13.682   6.381  26.413  1.00  0.00     0.069 C 
HETATM    8  N6  UNL     1      14.619   5.965  24.174  1.00  0.00    -0.367 N 
HETATM    9  C10 UNL     1      15.047   6.383  22.972  1.00  0.00     0.105 A 
ATOM     10  H6  UNL     1      14.647   4.971  24.400  1.00  0.00     0.165 HD
HETATM   11  C9  UNL     1      14.995   7.737  22.700  1.00  0.00     0.107 A 
ENDBRANCH   3   4
ENDBRANCH   2   3
ENDBRANCH   1   2
BRANCH   1  12
HETATM   12  N2  UNL     1      17.761  10.627  23.773  1.00  0.00    -0.273 N 
HETATM   13  C7  UNL     1      17.850   9.628  24.665  1.00  0.00     0.218 A 
HETATM   14  N3  UNL     1      19.156   9.269  24.801  1.00  0.00    -0.185 N 
HETATM   15  C8  UNL     1      19.836  10.069  23.977  1.00  0.00     0.691 A 
ATOM     16  H3  UNL     1      19.536   8.541  25.407  1.00  0.00     0.185 HD
HETATM   17  N5  UNL     1      18.983  10.891  23.356  1.00  0.00    -0.129 N 
ATOM     18  H5  UNL     1      19.237  11.604  22.672  1.00  0.00     0.206 HD
BRANCH  15  19
HETATM   19  N4  UNL     1      21.114  10.092  23.770  1.00  0.00    -0.233 N 
ATOM     20  H42 UNL     1      21.527  10.022  22.841  1.00  0.00     0.174 HD
ATOM     21  H41 UNL     1      21.857  10.178  24.464  1.00  0.00     0.174 HD
ENDBRANCH  15  19
ENDBRANCH   1  12
TORSDOF 5
ENDMDL
MODEL 2
REMARK VINA RESULT: -6.238593931      2.125      3.088
REMARK  5 active torsions:
REMARK  status: ('A' for Active; 'I' for Inactive)
REMARK    1  A    between atoms: N1_4  and  C4_5 
REMARK    2  A    between atoms: C4_5  and  C5_6 
REMARK    3  A    between atoms: C5_6  and  C6_7 
REMARK    4  A    between atoms: C6_7  and  N2_8 
REMARK    5  A    between atoms: C8_12  and  N4_13 
ROOT
HETATM    1  C6  UNL     1      18.402  10.492  23.964  1.00  0.00     0.152 C 
ENDROOT
BRANCH   1   2
HETATM    2  C5  UNL     1      17.895   9.421  24.934  1.00  0.00     0.042 C 
BRANCH   2   3
HETATM    3  C4  UNL     1      17.209   8.385  24.052  1.00  0.00     0.129 C 
BRANCH   3   4
HETATM    4  N1  UNL     1      15.815   8.257  24.327  1.00  0.00    -0.363 N 
HETATM    5  C3  UNL     1      15.350   7.452  25.296  1.00  0.00     0.114 A 
HETATM    6  C2  UNL     1      13.971   7.365  25.523  1.00  0.00     0.020 A 
HETATM    7  C1  UNL     1      13.473   6.470  26.598  1.00  0.00     0.069 C 
HETATM    8  N6  UNL     1      13.119   8.084  24.771  1.00  0.00    -0.367 N 
HETATM    9  C10 UNL     1      13.571   8.892  23.799  1.00  0.00     0.105 A 
ATOM     10  H6  UNL     1      12.116   8.014  24.942  1.00  0.00     0.165 HD
HETATM   11  C9  UNL     1      14.936   8.960  23.596  1.00  0.00     0.107 A 
ENDBRANCH   3   4
ENDBRANCH   2   3
ENDBRANCH   1   2
BRANCH   1  12
HETATM   12  N2  UNL     1      18.230  11.812  24.463  1.00  0.00    -0.273 N 
HETATM   13  C7  UNL     1      18.960  12.417  25.412  1.00  0.00     0.218 A 
HETATM   14  N3  UNL     1      18.481  13.677  25.606  1.00  0.00    -0.185 N 
HETATM   15  C8  UNL     1      17.458  13.806  24.758  1.00  0.00     0.691 A 
ATOM     16  H3  UNL     1      18.830  14.376  26.262  1.00  0.00     0.185 HD
HETATM   17  N5  UNL     1      17.312  12.671  24.067  1.00  0.00    -0.129 N 
ATOM     18  H5  UNL     1      16.606  12.498  23.351  1.00  0.00     0.206 HD
BRANCH  15  19
HETATM   19  N4  UNL     1      16.696  14.838  24.587  1.00  0.00    -0.233 N 
ATOM     20  H42 UNL     1      16.725  15.657  25.194  1.00  0.00     0.174 HD
ATOM     21  H41 UNL     1      15.992  14.981  23.864  1.00  0.00     0.174 HD
ENDBRANCH  15  19
ENDBRANCH   1  12
TORSDOF 5
ENDMDL
MODEL 3
REMARK VINA RESULT: -6.216425273      2.201      6.596
REMARK  5 active torsions:
REMARK  status: ('A' for Active; 'I' for Inactive)
REMARK    1  A    between atoms: N1_4  and  C4_5 
REMARK    2  A    between atoms: C4_5  and  C5_6 
REMARK    3  A    between atoms: C5_6  and  C6_7 
REMARK    4  A    between atoms: C6_7  and  N2_8 
REMARK    5  A    between atoms: C8_12  and  N4_13 
ROOT
HETATM    1  C6  UNL     1      16.059   9.155  24.013  1.00  0.00     0.152 C 
ENDROOT
BRANCH   1   2
HETATM    2  C5  UNL     1      17.375   8.832  24.726  1.00  0.00     0.042 C 
BRANCH   2   3
HETATM    3  C4  UNL     1      18.356   9.892  24.240  1.00  0.00     0.129 C 
BRANCH   3   4
HETATM    4  N1  UNL     1      19.266  10.313  25.255  1.00  0.00    -0.363 N 
HETATM    5  C3  UNL     1      20.342  11.067  24.980  1.00  0.00     0.114 A 
HETATM    6  C2  UNL     1      21.203  11.452  26.016  1.00  0.00     0.020 A 
HETATM    7  C1  UNL     1      22.388  12.285  25.695  1.00  0.00     0.069 C 
HETATM    8  N6  UNL     1      20.951  11.065  27.278  1.00  0.00    -0.367 N 
HETATM    9  C10 UNL     1      19.878  10.310  27.567  1.00  0.00     0.105 A 
ATOM     10  H6  UNL     1      21.582  11.348  28.027  1.00  0.00     0.165 HD
HETATM   11  C9  UNL     1      19.044   9.945  26.527  1.00  0.00     0.107 A 
ENDBRANCH   3   4
ENDBRANCH   2   3
ENDBRANCH   1   2
BRANCH   1  12
HETATM   12  N2  UNL     1      14.971   8.368  24.483  1.00  0.00    -0.273 N 
HETATM   13  C7  UNL     1      13.673   8.530  24.187  1.00  0.00     0.218 A 
HETATM   14  N3  UNL     1      12.948   7.576  24.834  1.00  0.00    -0.185 N 
HETATM   15  C8  UNL     1      13.838   6.850  25.515  1.00  0.00     0.691 A 
ATOM     16  H3  UNL     1      11.936   7.443  24.805  1.00  0.00     0.185 HD
HETATM   17  N5  UNL     1      15.064   7.336  25.297  1.00  0.00    -0.129 N 
ATOM     18  H5  UNL     1      15.928   6.969  25.695  1.00  0.00     0.206 HD
BRANCH  15  19
HETATM   19  N4  UNL     1      13.610   5.829  26.278  1.00  0.00    -0.233 N 
ATOM     20  H42 UNL     1      13.683   5.868  27.294  1.00  0.00     0.174 HD
ATOM     21  H41 UNL     1      13.339   4.887  25.996  1.00  0.00     0.174 HD
ENDBRANCH  15  19
ENDBRANCH   1  12
TORSDOF 5
ENDMDL
MODEL 4
REMARK VINA RESULT: -6.187097272      2.084      5.839
REMARK  5 active torsions:
REMARK  status: ('A' for Active; 'I' for Inactive)
REMARK    1  A    between atoms: N1_4  and  C4_5 
REMARK    2  A    between atoms: C4_5  and  C5_6 
REMARK    3  A    between atoms: C5_6  and  C6_7 
REMARK    4  A    between atoms: C6_7  and  N2_8 
REMARK    5  A    between atoms: C8_12  and  N4_13 
ROOT
HETATM    1  C6  UNL     1      14.797   7.219  24.022  1.00  0.00     0.152 C 
ENDROOT
BRANCH   1   2
HETATM    2  C5  UNL     1      15.388   8.547  24.502  1.00  0.00     0.042 C 
BRANCH   2   3
HETATM    3  C4  UNL     1      16.792   8.201  24.983  1.00  0.00     0.129 C 
BRANCH   3   4
HETATM    4  N1  UNL     1      17.713   9.281  24.831  1.00  0.00    -0.363 N 
HETATM    5  C3  UNL     1      17.601  10.179  23.840  1.00  0.00     0.114 A 
HETATM    6  C2  UNL     1      18.534  11.219  23.738  1.00  0.00     0.020 A 
HETATM    7  C1  UNL     1      18.397  12.204  22.636  1.00  0.00     0.069 C 
HETATM    8  N6  UNL     1      19.536  11.313  24.629  1.00  0.00    -0.367 N 
HETATM    9  C10 UNL     1      19.659  10.421  25.625  1.00  0.00     0.105 A 
ATOM     10  H6  UNL     1      20.212  12.073  24.549  1.00  0.00     0.165 HD
HETATM   11  C9  UNL     1      18.726   9.405  25.704  1.00  0.00     0.107 A 
ENDBRANCH   3   4
ENDBRANCH   2   3
ENDBRANCH   1   2
BRANCH   1  12
HETATM   12  N2  UNL     1      14.832   7.081  22.607  1.00  0.00    -0.273 N 
HETATM   13  C7  UNL     1      15.401   6.088  21.907  1.00  0.00     0.218 A 
HETATM   14  N3  UNL     1      15.217   6.320  20.578  1.00  0.00    -0.185 N 
HETATM   15  C8  UNL     1      14.531   7.463  20.504  1.00  0.00     0.691 A 
ATOM     16  H3  UNL     1      15.537   5.741  19.800  1.00  0.00     0.185 HD
HETATM   17  N5  UNL     1      14.300   7.919  21.740  1.00  0.00    -0.129 N 
ATOM     18  H5  UNL     1      13.796   8.775  21.972  1.00  0.00     0.206 HD
BRANCH  15  19
HETATM   19  N4  UNL     1      14.127   8.077  19.439  1.00  0.00    -0.233 N 
ATOM     20  H42 UNL     1      14.057   9.093  19.376  1.00  0.00     0.174 HD
ATOM     21  H41 UNL     1      13.833   7.664  18.554  1.00  0.00     0.174 HD
ENDBRANCH  15  19
ENDBRANCH   1  12
TORSDOF 5
ENDMDL
MODEL 5
REMARK VINA RESULT: -6.180464133      1.970      2.653
REMARK  5 active torsions:
REMARK  status: ('A' for Active; 'I' for Inactive)
REMARK    1  A    between atoms: N1_4  and  C4_5 
REMARK    2  A    between atoms: C4_5  and  C5_6 
REMARK    3  A    between atoms: C5_6  and  C6_7 
REMARK    4  A    between atoms: C6_7  and  N2_8 
REMARK    5  A    between atoms: C8_12  and  N4_13 
ROOT
HETATM    1  C6  UNL     1      19.295  10.108  24.050  1.00  0.00     0.152 C 
ENDROOT
BRANCH   1   2
HETATM    2  C5  UNL     1      17.789  10.111  24.327  1.00  0.00     0.042 C 
BRANCH   2   3
HETATM    3  C4  UNL     1      17.393   8.639  24.359  1.00  0.00     0.129 C 
BRANCH   3   4
HETATM    4  N1  UNL     1      15.984   8.446  24.471  1.00  0.00    -0.363 N 
HETATM    5  C3  UNL     1      15.450   7.603  25.369  1.00  0.00     0.114 A 
HETATM    6  C2  UNL     1      14.059   7.452  25.437  1.00  0.00     0.020 A 
HETATM    7  C1  UNL     1      13.484   6.516  26.435  1.00  0.00     0.069 C 
HETATM    8  N6  UNL     1      13.265   8.148  24.603  1.00  0.00    -0.367 N 
HETATM    9  C10 UNL     1      13.788   8.994  23.700  1.00  0.00     0.105 A 
ATOM     10  H6  UNL     1      12.254   8.032  24.657  1.00  0.00     0.165 HD
HETATM   11  C9  UNL     1      15.162   9.125  23.655  1.00  0.00     0.107 A 
ENDBRANCH   3   4
ENDBRANCH   2   3
ENDBRANCH   1   2
BRANCH   1  12
HETATM   12  N2  UNL     1      20.058  10.567  25.159  1.00  0.00    -0.273 N 
HETATM   13  C7  UNL     1      19.717  10.504  26.455  1.00  0.00     0.218 A 
HETATM   14  N3  UNL     1      20.715  11.048  27.205  1.00  0.00    -0.185 N 
HETATM   15  C8  UNL     1      21.649  11.432  26.332  1.00  0.00     0.691 A 
ATOM     16  H3  UNL     1      20.743  11.143  28.220  1.00  0.00     0.185 HD
HETATM   17  N5  UNL     1      21.245  11.137  25.092  1.00  0.00    -0.129 N 
ATOM     18  H5  UNL     1      21.768  11.322  24.236  1.00  0.00     0.206 HD
BRANCH  15  19
HETATM   19  N4  UNL     1      22.784  12.003  26.586  1.00  0.00    -0.233 N 
ATOM     20  H42 UNL     1      23.225  11.978  27.505  1.00  0.00     0.174 HD
ATOM     21  H41 UNL     1      23.373  12.533  25.944  1.00  0.00     0.174 HD
ENDBRANCH  15  19
ENDBRANCH   1  12
TORSDOF 5
ENDMDL
