MODEL 1
REMARK VINA RESULT: -6.986843899      0.000      0.000
REMARK  5 active torsions:
REMARK  status: ('A' for Active; 'I' for Inactive)
REMARK    1  A    between atoms: C1_2  and  N1_3 
REMARK    2  A    between atoms: N1_3  and  C2_5 
REMARK    3  A    between atoms: C2_5  and  C3_6 
REMARK    4  A    between atoms: C3_6  and  N2_7 
REMARK    5  A    between atoms: N2_7  and  C4_9 
ROOT
HETATM    1  C4  UNL     1      16.307   9.005  24.242  1.00  0.00     0.042 A 
HETATM    2  C5  UNL     1      15.800   9.890  23.335  1.00  0.00     0.047 A 
HETATM    3  C6  UNL     1      14.445   9.969  23.050  1.00  0.00     0.090 A 
HETATM    4  N3  UNL     1      13.624   9.138  23.701  1.00  0.00    -0.365 N 
ATOM      5  H3  UNL     1      12.624   9.182  23.505  1.00  0.00     0.165 HD
HETATM    6  C7  UNL     1      14.064   8.255  24.595  1.00  0.00     0.044 A 
HETATM    7  C8  UNL     1      13.204   7.398  25.263  1.00  0.00     0.030 A 
HETATM    8  C9  UNL     1      13.673   6.493  26.184  1.00  0.00     0.002 A 
HETATM    9  C10 UNL     1      15.010   6.410  26.469  1.00  0.00     0.001 A 
HETATM   10  C11 UNL     1      15.876   7.263  25.806  1.00  0.00     0.016 A 
HETATM   11  C12 UNL     1      15.414   8.168  24.886  1.00  0.00     0.017 A 
ENDROOT
BRANCH   1  12
HETATM   12  N2  UNL     1      17.536   8.903  24.528  1.00  0.00    -0.388 N 
ATOM     13  H2  UNL     1      17.947   7.969  24.535  1.00  0.00     0.159 HD
BRANCH  12  14
HETATM   14  C3  UNL     1      18.400  10.022  24.848  1.00  0.00     0.139 C 
BRANCH  14  15
HETATM   15  C2  UNL     1      19.476  10.078  23.815  1.00  0.00     0.141 C 
BRANCH  15  16
HETATM   16  N1  UNL     1      19.562  11.345  23.125  1.00  0.00    -0.367 N 
ATOM     17  H1  UNL     1      20.488  11.682  22.860  1.00  0.00     0.161 HD
BRANCH  16  18
HETATM   18  C1  UNL     1      18.453  12.143  22.796  1.00  0.00     0.348 C 
HETATM   19  O1  UNL     1      17.987  12.101  21.641  1.00  0.00    -0.284 OA
ENDBRANCH  16  18
ENDBRANCH  15  16
ENDBRANCH  14  15
ENDBRANCH  12  14
ENDBRANCH   1  12
TORSDOF 5
ENDMDL
MODEL 2
REMARK VINA RESULT: -6.706302447      2.667      4.926
REMARK  5 active torsions:
REMARK  status: ('A' for Active; 'I' for Inactive)
REMARK    1  A    between atoms: C1_2  and  N1_3 
REMARK    2  A    between atoms: N1_3  and  C2_5 
REMARK    3  A    between atoms: C2_5  and  C3_6 
REMARK    4  A    between atoms: C3_6  and  N2_7 
REMARK    5  A    between atoms: N2_7  and  C4_9 
ROOT
HETATM    1  C4  UNL     1      15.864   9.016  24.069  1.00  0.00     0.042 A 
HETATM    2  C5  UNL     1      14.777   9.419  23.350  1.00  0.00     0.047 A 
HETATM    3  C6  UNL     1      14.790  10.555  22.554  1.00  0.00     0.090 A 
HETATM    4  N3  UNL     1      15.923  11.266  22.506  1.00  0.00    -0.365 N 
ATOM      5  H3  UNL     1      15.952  12.104  21.926  1.00  0.00     0.165 HD
HETATM    6  C7  UNL     1      17.013  10.919  23.187  1.00  0.00     0.044 A 
HETATM    7  C8  UNL     1      18.180  11.662  23.130  1.00  0.00     0.030 A 
HETATM    8  C9  UNL     1      19.297  11.292  23.839  1.00  0.00     0.002 A 
HETATM    9  C10 UNL     1      19.289  10.171  24.626  1.00  0.00     0.001 A 
HETATM   10  C11 UNL     1      18.126   9.422  24.688  1.00  0.00     0.016 A 
HETATM   11  C12 UNL     1      17.008   9.787  23.984  1.00  0.00     0.017 A 
ENDROOT
BRANCH   1  12
HETATM   12  N2  UNL     1      15.889   7.986  24.806  1.00  0.00    -0.388 N 
ATOM     13  H2  UNL     1      16.386   8.050  25.695  1.00  0.00     0.159 HD
BRANCH  12  14
HETATM   14  C3  UNL     1      15.262   6.722  24.473  1.00  0.00     0.139 C 
BRANCH  14  15
HETATM   15  C2  UNL     1      16.097   6.060  23.428  1.00  0.00     0.141 C 
BRANCH  15  16
HETATM   16  N1  UNL     1      15.358   5.663  22.251  1.00  0.00    -0.367 N 
ATOM     17  H1  UNL     1      14.962   4.724  22.231  1.00  0.00     0.161 HD
BRANCH  16  18
HETATM   18  C1  UNL     1      15.151   6.488  21.133  1.00  0.00     0.348 C 
HETATM   19  O1  UNL     1      15.179   5.992  19.990  1.00  0.00    -0.284 OA
ENDBRANCH  16  18
ENDBRANCH  15  16
ENDBRANCH  14  15
ENDBRANCH  12  14
ENDBRANCH   1  12
TORSDOF 5
ENDMDL
MODEL 3
REMARK VINA RESULT: -6.694212267      2.414      2.663
REMARK  5 active torsions:
REMARK  status: ('A' for Active; 'I' for Inactive)
REMARK    1  A    between atoms: C1_2  and  N1_3 
REMARK    2  A    between atoms: N1_3  and  C2_5 
REMARK    3  A    between atoms: C2_5  and  C3_6 
REMARK    4  A    between atoms: C3_6  and  N2_7 
REMARK    5  A    between atoms: N2_7  and  C4_9 
ROOT
HETATM    1  C4  UNL     1      16.982   9.293  24.364  1.00  0.00     0.042 A 
HETATM    2  C5  UNL     1      16.863  10.365  23.528  1.00  0.00     0.047 A 
HETATM    3  C6  UNL     1      15.651  10.745  22.973  1.00  0.00     0.090 A 
HETATM    4  N3  UNL     1      14.571  10.019  23.283  1.00  0.00    -0.365 N 
ATOM      5  H3  UNL     1      13.670  10.283  22.885  1.00  0.00     0.165 HD
HETATM    6  C7  UNL     1      14.629   8.963  24.092  1.00  0.00     0.044 A 
HETATM    7  C8  UNL     1      13.505   8.217  24.407  1.00  0.00     0.030 A 
HETATM    8  C9  UNL     1      13.581   7.131  25.243  1.00  0.00     0.002 A 
HETATM    9  C10 UNL     1      14.776   6.751  25.795  1.00  0.00     0.001 A 
HETATM   10  C11 UNL     1      15.905   7.492  25.486  1.00  0.00     0.016 A 
HETATM   11  C12 UNL     1      15.835   8.576  24.651  1.00  0.00     0.017 A 
ENDROOT
BRANCH   1  12
HETATM   12  N2  UNL     1      18.071   8.916  24.889  1.00  0.00    -0.388 N 
ATOM     13  H2  UNL     1      18.209   7.915  25.031  1.00  0.00     0.159 HD
BRANCH  12  14
HETATM   14  C3  UNL     1      19.135   9.809  25.304  1.00  0.00     0.139 C 
BRANCH  14  15
HETATM   15  C2  UNL     1      19.100   9.900  26.793  1.00  0.00     0.141 C 
BRANCH  15  16
HETATM   16  N1  UNL     1      20.256  10.549  27.369  1.00  0.00    -0.367 N 
ATOM     17  H1  UNL     1      20.350  10.541  28.385  1.00  0.00     0.161 HD
BRANCH  16  18
HETATM   18  C1  UNL     1      21.257  11.190  26.621  1.00  0.00     0.348 C 
HETATM   19  O1  UNL     1      22.426  11.213  27.052  1.00  0.00    -0.284 OA
ENDBRANCH  16  18
ENDBRANCH  15  16
ENDBRANCH  14  15
ENDBRANCH  12  14
ENDBRANCH   1  12
TORSDOF 5
ENDMDL
MODEL 4
REMARK VINA RESULT: -6.643686856      2.916      5.411
REMARK  5 active torsions:
REMARK  status: ('A' for Active; 'I' for Inactive)
REMARK    1  A    between atoms: C1_2  and  N1_3 
REMARK    2  A    between atoms: N1_3  and  C2_5 
REMARK    3  A    between atoms: C2_5  and  C3_6 
REMARK    4  A    between atoms: C3_6  and  N2_7 
REMARK    5  A    between atoms: N2_7  and  C4_9 
ROOT
HETATM    1  C4  UNL     1      16.060   8.822  23.879  1.00  0.00     0.042 A 
HETATM    2  C5  UNL     1      14.979   9.338  23.226  1.00  0.00     0.047 A 
HETATM    3  C6  UNL     1      14.927  10.657  22.800  1.00  0.00     0.090 A 
HETATM    4  N3  UNL     1      15.989  11.432  23.048  1.00  0.00    -0.365 N 
ATOM      5  H3  UNL     1      15.969  12.405  22.742  1.00  0.00     0.165 HD
HETATM    6  C7  UNL     1      17.070  10.981  23.681  1.00  0.00     0.044 A 
HETATM    7  C8  UNL     1      18.164  11.792  23.933  1.00  0.00     0.030 A 
HETATM    8  C9  UNL     1      19.272  11.312  24.587  1.00  0.00     0.002 A 
HETATM    9  C10 UNL     1      19.329  10.010  25.011  1.00  0.00     0.001 A 
HETATM   10  C11 UNL     1      18.239   9.192  24.762  1.00  0.00     0.016 A 
HETATM   11  C12 UNL     1      17.130   9.666  24.111  1.00  0.00     0.017 A 
ENDROOT
BRANCH   1  12
HETATM   12  N2  UNL     1      16.144   7.624  24.283  1.00  0.00    -0.388 N 
ATOM     13  H2  UNL     1      16.525   7.463  25.215  1.00  0.00     0.159 HD
BRANCH  12  14
HETATM   14  C3  UNL     1      15.736   6.467  23.512  1.00  0.00     0.139 C 
BRANCH  14  15
HETATM   15  C2  UNL     1      14.803   5.663  24.354  1.00  0.00     0.141 C 
BRANCH  15  16
HETATM   16  N1  UNL     1      13.609   6.374  24.751  1.00  0.00    -0.367 N 
ATOM     17  H1  UNL     1      12.939   6.624  24.023  1.00  0.00     0.161 HD
BRANCH  16  18
HETATM   18  C1  UNL     1      13.311   6.743  26.073  1.00  0.00     0.348 C 
HETATM   19  O1  UNL     1      13.279   5.871  26.962  1.00  0.00    -0.284 OA
ENDBRANCH  16  18
ENDBRANCH  15  16
ENDBRANCH  14  15
ENDBRANCH  12  14
ENDBRANCH   1  12
TORSDOF 5
ENDMDL
MODEL 5
REMARK VINA RESULT: -6.567999015      1.595      1.677
REMARK  5 active torsions:
REMARK  status: ('A' for Active; 'I' for Inactive)
REMARK    1  A    between atoms: C1_2  and  N1_3 
REMARK    2  A    between atoms: N1_3  and  C2_5 
REMARK    3  A    between atoms: C2_5  and  C3_6 
REMARK    4  A    between atoms: C3_6  and  N2_7 
REMARK    5  A    between atoms: N2_7  and  C4_9 
ROOT
HETATM    1  C4  UNL     1      16.881   9.332  24.257  1.00  0.00     0.042 A 
HETATM    2  C5  UNL     1      16.656  10.389  23.423  1.00  0.00     0.047 A 
HETATM    3  C6  UNL     1      15.391  10.709  22.952  1.00  0.00     0.090 A 
HETATM    4  N3  UNL     1      14.370   9.939  23.345  1.00  0.00    -0.365 N 
ATOM      5  H3  UNL     1      13.432  10.159  23.009  1.00  0.00     0.165 HD
HETATM    6  C7  UNL     1      14.532   8.896  24.156  1.00  0.00     0.044 A 
HETATM    7  C8  UNL     1      13.467   8.106  24.556  1.00  0.00     0.030 A 
HETATM    8  C9  UNL     1      13.650   7.033  25.394  1.00  0.00     0.002 A 
HETATM    9  C10 UNL     1      14.897   6.712  25.862  1.00  0.00     0.001 A 
HETATM   10  C11 UNL     1      15.967   7.498  25.468  1.00  0.00     0.016 A 
HETATM   11  C12 UNL     1      15.790   8.569  24.631  1.00  0.00     0.017 A 
ENDROOT
BRANCH   1  12
HETATM   12  N2  UNL     1      18.021   9.009  24.707  1.00  0.00    -0.388 N 
ATOM     13  H2  UNL     1      18.127   8.076  25.106  1.00  0.00     0.159 HD
BRANCH  12  14
HETATM   14  C3  UNL     1      19.183   9.874  24.695  1.00  0.00     0.139 C 
BRANCH  14  15
HETATM   15  C2  UNL     1      19.400  10.367  26.086  1.00  0.00     0.141 C 
BRANCH  15  16
HETATM   16  N1  UNL     1      19.001  11.741  26.292  1.00  0.00    -0.367 N 
ATOM     17  H1  UNL     1      18.766  12.032  27.241  1.00  0.00     0.161 HD
BRANCH  16  18
HETATM   18  C1  UNL     1      18.915  12.701  25.269  1.00  0.00     0.348 C 
HETATM   19  O1  UNL     1      17.859  13.343  25.117  1.00  0.00    -0.284 OA
ENDBRANCH  16  18
ENDBRANCH  15  16
ENDBRANCH  14  15
ENDBRANCH  12  14
ENDBRANCH   1  12
TORSDOF 5
ENDMDL
