MODEL 1
REMARK VINA RESULT: -7.113522236      0.000      0.000
REMARK  5 active torsions:
REMARK  status: ('A' for Active; 'I' for Inactive)
REMARK    1  A    between atoms: C6_6  and  N1_7 
REMARK    2  A    between atoms: N1_7  and  C7_9 
REMARK    3  A    between atoms: C7_9  and  C8_10 
REMARK    4  A    between atoms: C8_10  and  C9_11 
REMARK    5  A    between atoms: C9_11  and  N2_12 
ROOT
HETATM    1  C1  UNL     1      21.101  12.947  25.455  1.00  0.00     0.018 C 
HETATM    2  C2  UNL     1      20.276  12.093  25.238  1.00  0.00    -0.076 C 
HETATM    3  C3  UNL     1      19.281  11.092  24.981  1.00  0.00     0.032 A 
HETATM    4  C4  UNL     1      18.300  11.264  24.028  1.00  0.00     0.026 A 
HETATM    5  C5  UNL     1      17.358  10.254  23.821  1.00  0.00     0.050 A 
HETATM    6  C6  UNL     1      17.383   9.097  24.543  1.00  0.00     0.100 A 
HETATM    7  N5  UNL     1      18.346   8.950  25.466  1.00  0.00    -0.351 N 
ATOM      8  H5  UNL     1      18.381   8.090  26.014  1.00  0.00     0.166 HD
HETATM    9  C11 UNL     1      19.270   9.909  25.687  1.00  0.00     0.110 A 
ENDROOT
BRANCH   6  10
HETATM   10  N1  UNL     1      16.529   8.145  24.379  1.00  0.00    -0.376 N 
ATOM     11  H1  UNL     1      16.770   7.212  24.712  1.00  0.00     0.161 HD
BRANCH  10  12
HETATM   12  C7  UNL     1      15.244   8.343  23.743  1.00  0.00     0.123 C 
BRANCH  12  13
HETATM   13  C8  UNL     1      14.883   7.083  22.976  1.00  0.00     0.039 C 
BRANCH  13  14
HETATM   14  C9  UNL     1      14.854   5.947  23.994  1.00  0.00     0.123 C 
BRANCH  14  15
HETATM   15  N2  UNL     1      13.811   6.114  24.957  1.00  0.00    -0.367 N 
HETATM   16  C10 UNL     1      13.970   6.256  26.209  1.00  0.00     0.196 C 
HETATM   17  N3  UNL     1      15.258   6.267  26.820  1.00  0.00    -0.067 NA
HETATM   18  N4  UNL     1      12.843   6.413  27.054  1.00  0.00    -0.067 NA
ATOM     19  H2  UNL     1      12.852   6.120  24.607  1.00  0.00     0.161 HD
ENDBRANCH  14  15
ENDBRANCH  13  14
ENDBRANCH  12  13
ENDBRANCH  10  12
ENDBRANCH   6  10
TORSDOF 5
ENDMDL
MODEL 2
REMARK VINA RESULT: -6.819980830      1.381      1.673
REMARK  5 active torsions:
REMARK  status: ('A' for Active; 'I' for Inactive)
REMARK    1  A    between atoms: C6_6  and  N1_7 
REMARK    2  A    between atoms: N1_7  and  C7_9 
REMARK    3  A    between atoms: C7_9  and  C8_10 
REMARK    4  A    between atoms: C8_10  and  C9_11 
REMARK    5  A    between atoms: C9_11  and  N2_12 
ROOT
HETATM    1  C1  UNL     1      20.942  12.428  25.453  1.00  0.00     0.018 C 
HETATM    2  C2  UNL     1      19.906  11.981  25.023  1.00  0.00    -0.076 C 
HETATM    3  C3  UNL     1      18.685  11.435  24.504  1.00  0.00     0.032 A 
HETATM    4  C4  UNL     1      18.321  10.123  24.721  1.00  0.00     0.026 A 
HETATM    5  C5  UNL     1      17.121   9.646  24.192  1.00  0.00     0.050 A 
HETATM    6  C6  UNL     1      16.295  10.449  23.462  1.00  0.00     0.100 A 
HETATM    7  N5  UNL     1      16.667  11.723  23.263  1.00  0.00    -0.351 N 
ATOM      8  H5  UNL     1      16.061  12.338  22.720  1.00  0.00     0.166 HD
HETATM    9  C11 UNL     1      17.822  12.211  23.762  1.00  0.00     0.110 A 
ENDROOT
BRANCH   6  10
HETATM   10  N1  UNL     1      15.180  10.042  22.959  1.00  0.00    -0.376 N 
ATOM     11  H1  UNL     1      14.875  10.434  22.068  1.00  0.00     0.161 HD
BRANCH  10  12
HETATM   12  C7  UNL     1      14.342   9.054  23.603  1.00  0.00     0.123 C 
BRANCH  12  13
HETATM   13  C8  UNL     1      14.428   7.758  22.816  1.00  0.00     0.039 C 
BRANCH  13  14
HETATM   14  C9  UNL     1      14.628   6.641  23.836  1.00  0.00     0.123 C 
BRANCH  14  15
HETATM   15  N2  UNL     1      13.645   6.677  24.874  1.00  0.00    -0.367 N 
HETATM   16  C10 UNL     1      13.836   6.367  26.090  1.00  0.00     0.196 C 
HETATM   17  N3  UNL     1      15.101   5.930  26.579  1.00  0.00    -0.067 NA
HETATM   18  N4  UNL     1      12.768   6.449  27.018  1.00  0.00    -0.067 NA
ATOM     19  H2  UNL     1      12.706   6.981  24.613  1.00  0.00     0.161 HD
ENDBRANCH  14  15
ENDBRANCH  13  14
ENDBRANCH  12  13
ENDBRANCH  10  12
ENDBRANCH   6  10
TORSDOF 5
ENDMDL
MODEL 3
REMARK VINA RESULT: -6.759280850      1.760      2.477
REMARK  5 active torsions:
REMARK  status: ('A' for Active; 'I' for Inactive)
REMARK    1  A    between atoms: C6_6  and  N1_7 
REMARK    2  A    between atoms: N1_7  and  C7_9 
REMARK    3  A    between atoms: C7_9  and  C8_10 
REMARK    4  A    between atoms: C8_10  and  C9_11 
REMARK    5  A    between atoms: C9_11  and  N2_12 
ROOT
HETATM    1  C1  UNL     1      20.904  13.801  25.210  1.00  0.00     0.018 C 
HETATM    2  C2  UNL     1      20.235  12.807  25.059  1.00  0.00    -0.076 C 
HETATM    3  C3  UNL     1      19.425  11.637  24.883  1.00  0.00     0.032 A 
HETATM    4  C4  UNL     1      18.319  11.630  24.060  1.00  0.00     0.026 A 
HETATM    5  C5  UNL     1      17.567  10.462  23.927  1.00  0.00     0.050 A 
HETATM    6  C6  UNL     1      17.900   9.320  24.596  1.00  0.00     0.100 A 
HETATM    7  N5  UNL     1      18.979   9.347  25.392  1.00  0.00    -0.351 N 
ATOM      8  H5  UNL     1      19.243   8.503  25.899  1.00  0.00     0.166 HD
HETATM    9  C11 UNL     1      19.725  10.463  25.540  1.00  0.00     0.110 A 
ENDROOT
BRANCH   6  10
HETATM   10  N1  UNL     1      17.228   8.224  24.497  1.00  0.00    -0.376 N 
ATOM     11  H1  UNL     1      17.396   7.621  23.692  1.00  0.00     0.161 HD
BRANCH  10  12
HETATM   12  C7  UNL     1      16.248   7.812  25.478  1.00  0.00     0.123 C 
BRANCH  12  13
HETATM   13  C8  UNL     1      14.861   8.049  24.907  1.00  0.00     0.039 C 
BRANCH  13  14
HETATM   14  C9  UNL     1      14.378   6.707  24.364  1.00  0.00     0.123 C 
BRANCH  14  15
HETATM   15  N2  UNL     1      14.479   6.635  22.939  1.00  0.00    -0.367 N 
HETATM   16  C10 UNL     1      15.384   6.028  22.288  1.00  0.00     0.196 C 
HETATM   17  N3  UNL     1      16.444   5.321  22.927  1.00  0.00    -0.067 NA
HETATM   18  N4  UNL     1      15.364   6.037  20.871  1.00  0.00    -0.067 NA
ATOM     19  H2  UNL     1      13.759   7.114  22.398  1.00  0.00     0.161 HD
ENDBRANCH  14  15
ENDBRANCH  13  14
ENDBRANCH  12  13
ENDBRANCH  10  12
ENDBRANCH   6  10
TORSDOF 5
ENDMDL
MODEL 4
REMARK VINA RESULT: -6.751045287      2.190      3.173
REMARK  5 active torsions:
REMARK  status: ('A' for Active; 'I' for Inactive)
REMARK    1  A    between atoms: C6_6  and  N1_7 
REMARK    2  A    between atoms: N1_7  and  C7_9 
REMARK    3  A    between atoms: C7_9  and  C8_10 
REMARK    4  A    between atoms: C8_10  and  C9_11 
REMARK    5  A    between atoms: C9_11  and  N2_12 
ROOT
HETATM    1  C1  UNL     1      20.541  13.493  25.108  1.00  0.00     0.018 C 
HETATM    2  C2  UNL     1      19.863  12.504  24.969  1.00  0.00    -0.076 C 
HETATM    3  C3  UNL     1      19.042  11.339  24.807  1.00  0.00     0.032 A 
HETATM    4  C4  UNL     1      17.967  11.317  23.943  1.00  0.00     0.026 A 
HETATM    5  C5  UNL     1      17.202  10.155  23.826  1.00  0.00     0.050 A 
HETATM    6  C6  UNL     1      17.492   9.035  24.549  1.00  0.00     0.100 A 
HETATM    7  N5  UNL     1      18.543   9.077  25.384  1.00  0.00    -0.351 N 
ATOM      8  H5  UNL     1      18.775   8.249  25.931  1.00  0.00     0.166 HD
HETATM    9  C11 UNL     1      19.299  10.187  25.517  1.00  0.00     0.110 A 
ENDROOT
BRANCH   6  10
HETATM   10  N1  UNL     1      16.808   7.946  24.466  1.00  0.00    -0.376 N 
ATOM     11  H1  UNL     1      17.166   7.189  23.882  1.00  0.00     0.161 HD
BRANCH  10  12
HETATM   12  C7  UNL     1      15.557   7.749  25.165  1.00  0.00     0.123 C 
BRANCH  12  13
HETATM   13  C8  UNL     1      14.422   7.825  24.158  1.00  0.00     0.039 C 
BRANCH  13  14
HETATM   14  C9  UNL     1      14.896   7.087  22.910  1.00  0.00     0.123 C 
BRANCH  14  15
HETATM   15  N2  UNL     1      14.418   7.698  21.709  1.00  0.00    -0.367 N 
HETATM   16  C10 UNL     1      14.588   7.255  20.531  1.00  0.00     0.196 C 
HETATM   17  N3  UNL     1      15.303   6.052  20.262  1.00  0.00    -0.067 NA
HETATM   18  N4  UNL     1      14.058   7.964  19.424  1.00  0.00    -0.067 NA
ATOM     19  H2  UNL     1      13.892   8.566  21.808  1.00  0.00     0.161 HD
ENDBRANCH  14  15
ENDBRANCH  13  14
ENDBRANCH  12  13
ENDBRANCH  10  12
ENDBRANCH   6  10
TORSDOF 5
ENDMDL
MODEL 5
REMARK VINA RESULT: -6.739228062      0.935      1.361
REMARK  5 active torsions:
REMARK  status: ('A' for Active; 'I' for Inactive)
REMARK    1  A    between atoms: C6_6  and  N1_7 
REMARK    2  A    between atoms: N1_7  and  C7_9 
REMARK    3  A    between atoms: C7_9  and  C8_10 
REMARK    4  A    between atoms: C8_10  and  C9_11 
REMARK    5  A    between atoms: C9_11  and  N2_12 
ROOT
HETATM    1  C1  UNL     1      20.161  13.880  24.378  1.00  0.00     0.018 C 
HETATM    2  C2  UNL     1      19.491  12.875  24.381  1.00  0.00    -0.076 C 
HETATM    3  C3  UNL     1      18.711  11.671  24.379  1.00  0.00     0.032 A 
HETATM    4  C4  UNL     1      19.075  10.564  25.116  1.00  0.00     0.026 A 
HETATM    5  C5  UNL     1      18.277   9.419  25.076  1.00  0.00     0.050 A 
HETATM    6  C6  UNL     1      17.142   9.368  24.323  1.00  0.00     0.100 A 
HETATM    7  N5  UNL     1      16.805  10.456  23.613  1.00  0.00    -0.351 N 
ATOM      8  H5  UNL     1      15.958  10.436  23.045  1.00  0.00     0.166 HD
HETATM    9  C11 UNL     1      17.558  11.577  23.633  1.00  0.00     0.110 A 
ENDROOT
BRANCH   6  10
HETATM   10  N1  UNL     1      16.382   8.328  24.262  1.00  0.00    -0.376 N 
ATOM     11  H1  UNL     1      16.713   7.457  24.678  1.00  0.00     0.161 HD
BRANCH  10  12
HETATM   12  C7  UNL     1      15.080   8.342  23.631  1.00  0.00     0.123 C 
BRANCH  12  13
HETATM   13  C8  UNL     1      14.882   7.027  22.897  1.00  0.00     0.039 C 
BRANCH  13  14
HETATM   14  C9  UNL     1      14.901   5.930  23.957  1.00  0.00     0.123 C 
BRANCH  14  15
HETATM   15  N2  UNL     1      13.850   6.087  24.913  1.00  0.00    -0.367 N 
HETATM   16  C10 UNL     1      14.000   6.256  26.162  1.00  0.00     0.196 C 
HETATM   17  N3  UNL     1      15.285   6.311  26.778  1.00  0.00    -0.067 NA
HETATM   18  N4  UNL     1      12.866   6.399  27.000  1.00  0.00    -0.067 NA
ATOM     19  H2  UNL     1      12.893   6.061  24.560  1.00  0.00     0.161 HD
ENDBRANCH  14  15
ENDBRANCH  13  14
ENDBRANCH  12  13
ENDBRANCH  10  12
ENDBRANCH   6  10
TORSDOF 5
ENDMDL
