MODEL 1
REMARK VINA RESULT: -6.136534456      0.000      0.000
REMARK  6 active torsions:
REMARK  status: ('A' for Active; 'I' for Inactive)
REMARK    1  A    between atoms: C2_2  and  C3_3 
REMARK    2  A    between atoms: C3_3  and  N1_4 
REMARK    3  A    between atoms: N1_4  and  C4_6 
REMARK    4  A    between atoms: C4_6  and  N2_8 
REMARK       I    between atoms: N3_11  and  C7_12 
REMARK       I    between atoms: C7_12  and  N5_16 
REMARK    5  A    between atoms: N5_16  and  C8_18 
REMARK    6  A    between atoms: C8_18  and  C9_19 
ROOT
HETATM    1  N2  UNL     1      27.952   9.052  19.772  1.00  0.00    -0.355 N 
HETATM    2  C5  UNL     1      28.353   9.657  18.546  1.00  0.00     0.145 C 
HETATM    3  C6  UNL     1      28.099  11.163  18.732  1.00  0.00     0.161 C 
HETATM    4  N3  UNL     1      28.696  11.585  19.975  1.00  0.00    -0.215 N 
HETATM    5  C7  UNL     1      28.431  12.868  20.476  1.00  0.00     0.669 C 
HETATM    6  N4  UNL     1      27.282  13.401  20.301  1.00  0.00    -0.235 N 
ATOM      7  H41 UNL     1      27.089  14.334  20.666  1.00  0.00     0.174 HD
ATOM      8  H42 UNL     1      26.569  12.887  19.784  1.00  0.00     0.174 HD
HETATM    9  N5  UNL     1      29.418  13.579  21.192  1.00  0.00    -0.226 N 
ATOM     10  H5  UNL     1      29.973  13.080  21.887  1.00  0.00     0.177 HD
HETATM   11  C13 UNL     1      29.562  10.675  20.678  1.00  0.00     0.161 C 
HETATM   12  C14 UNL     1      28.900   9.334  20.887  1.00  0.00     0.145 C 
ENDROOT
BRANCH   9  13
HETATM   13  C8  UNL     1      29.668  14.968  20.981  1.00  0.00     0.146 C 
BRANCH  13  14
HETATM   14  C9  UNL     1      29.522  15.866  22.157  1.00  0.00    -0.035 C 
HETATM   15  C10 UNL     1      28.232  16.619  22.216  1.00  0.00     0.016 C 
HETATM   16  C11 UNL     1      30.701  16.821  22.241  1.00  0.00     0.016 C 
HETATM   17  C12 UNL     1      29.557  14.968  23.404  1.00  0.00     0.016 C 
ENDBRANCH  13  14
ENDBRANCH   9  13
BRANCH   1  18
HETATM   18  C4  UNL     1      26.814   8.279  19.990  1.00  0.00     0.170 C 
HETATM   19  S1  UNL     1      26.328   7.444  18.591  1.00  0.00    -0.041 SA
BRANCH  18  20
HETATM   20  N1  UNL     1      26.027   8.079  21.127  1.00  0.00    -0.364 N 
ATOM     21  H1  UNL     1      25.580   8.916  21.503  1.00  0.00     0.162 HD
BRANCH  20  22
HETATM   22  C3  UNL     1      25.760   6.868  21.837  1.00  0.00     0.148 C 
BRANCH  22  23
HETATM   23  C2  UNL     1      24.408   6.344  21.654  1.00  0.00    -0.018 C 
HETATM   24  C1  UNL     1      24.071   5.337  20.911  1.00  0.00     0.008 C 
ENDBRANCH  22  23
ENDBRANCH  20  22
ENDBRANCH  18  20
ENDBRANCH   1  18
TORSDOF 6
ENDMDL
MODEL 2
REMARK VINA RESULT: -6.068272164      1.157      1.207
REMARK  6 active torsions:
REMARK  status: ('A' for Active; 'I' for Inactive)
REMARK    1  A    between atoms: C2_2  and  C3_3 
REMARK    2  A    between atoms: C3_3  and  N1_4 
REMARK    3  A    between atoms: N1_4  and  C4_6 
REMARK    4  A    between atoms: C4_6  and  N2_8 
REMARK       I    between atoms: N3_11  and  C7_12 
REMARK       I    between atoms: C7_12  and  N5_16 
REMARK    5  A    between atoms: N5_16  and  C8_18 
REMARK    6  A    between atoms: C8_18  and  C9_19 
ROOT
HETATM    1  N2  UNL     1      28.140   9.184  19.009  1.00  0.00    -0.355 N 
HETATM    2  C5  UNL     1      28.865   9.944  18.047  1.00  0.00     0.145 C 
HETATM    3  C6  UNL     1      28.278  11.365  18.122  1.00  0.00     0.161 C 
HETATM    4  N3  UNL     1      28.250  11.783  19.502  1.00  0.00    -0.215 N 
HETATM    5  C7  UNL     1      27.572  12.957  19.862  1.00  0.00     0.669 C 
HETATM    6  N4  UNL     1      26.504  13.296  19.247  1.00  0.00    -0.235 N 
ATOM      7  H41 UNL     1      26.010  14.149  19.508  1.00  0.00     0.174 HD
ATOM      8  H42 UNL     1      26.161  12.709  18.486  1.00  0.00     0.174 HD
HETATM    9  N5  UNL     1      28.046  13.768  20.915  1.00  0.00    -0.226 N 
ATOM     10  H5  UNL     1      28.370  13.319  21.772  1.00  0.00     0.177 HD
HETATM   11  C13 UNL     1      28.928  10.983  20.489  1.00  0.00     0.161 C 
HETATM   12  C14 UNL     1      28.505   9.536  20.411  1.00  0.00     0.145 C 
ENDROOT
BRANCH   9  13
HETATM   13  C8  UNL     1      28.090  15.192  20.827  1.00  0.00     0.146 C 
BRANCH  13  14
HETATM   14  C9  UNL     1      28.768  15.916  21.936  1.00  0.00    -0.035 C 
HETATM   15  C10 UNL     1      27.883  16.821  22.729  1.00  0.00     0.016 C 
HETATM   16  C11 UNL     1      29.974  16.676  21.409  1.00  0.00     0.016 C 
HETATM   17  C12 UNL     1      29.280  14.845  22.913  1.00  0.00     0.016 C 
ENDBRANCH  13  14
ENDBRANCH   9  13
BRANCH   1  18
HETATM   18  C4  UNL     1      27.177   8.212  18.752  1.00  0.00     0.170 C 
HETATM   19  S1  UNL     1      27.062   7.844  17.095  1.00  0.00    -0.041 SA
BRANCH  18  20
HETATM   20  N1  UNL     1      26.314   7.508  19.596  1.00  0.00    -0.364 N 
ATOM     21  H1  UNL     1      26.519   7.583  20.593  1.00  0.00     0.162 HD
BRANCH  20  22
HETATM   22  C3  UNL     1      25.185   6.698  19.260  1.00  0.00     0.148 C 
BRANCH  22  23
HETATM   23  C2  UNL     1      24.286   6.418  20.378  1.00  0.00    -0.018 C 
HETATM   24  C1  UNL     1      24.072   5.258  20.915  1.00  0.00     0.008 C 
ENDBRANCH  22  23
ENDBRANCH  20  22
ENDBRANCH  18  20
ENDBRANCH   1  18
TORSDOF 6
ENDMDL
MODEL 3
REMARK VINA RESULT: -5.893064942      1.356      1.781
REMARK  6 active torsions:
REMARK  status: ('A' for Active; 'I' for Inactive)
REMARK    1  A    between atoms: C2_2  and  C3_3 
REMARK    2  A    between atoms: C3_3  and  N1_4 
REMARK    3  A    between atoms: N1_4  and  C4_6 
REMARK    4  A    between atoms: C4_6  and  N2_8 
REMARK       I    between atoms: N3_11  and  C7_12 
REMARK       I    between atoms: C7_12  and  N5_16 
REMARK    5  A    between atoms: N5_16  and  C8_18 
REMARK    6  A    between atoms: C8_18  and  C9_19 
ROOT
HETATM    1  N2  UNL     1      27.858   8.757  18.826  1.00  0.00    -0.355 N 
HETATM    2  C5  UNL     1      28.762   9.445  17.967  1.00  0.00     0.145 C 
HETATM    3  C6  UNL     1      28.268  10.902  17.936  1.00  0.00     0.161 C 
HETATM    4  N3  UNL     1      28.071  11.354  19.291  1.00  0.00    -0.215 N 
HETATM    5  C7  UNL     1      27.429  12.578  19.532  1.00  0.00     0.669 C 
HETATM    6  N4  UNL     1      26.485  12.969  18.764  1.00  0.00    -0.235 N 
ATOM      7  H41 UNL     1      26.017  13.859  18.939  1.00  0.00     0.174 HD
ATOM      8  H42 UNL     1      26.216  12.388  17.971  1.00  0.00     0.174 HD
HETATM    9  N5  UNL     1      27.801  13.382  20.630  1.00  0.00    -0.226 N 
ATOM     10  H5  UNL     1      27.968  12.935  21.531  1.00  0.00     0.177 HD
HETATM   11  C13 UNL     1      28.546  10.537  20.377  1.00  0.00     0.161 C 
HETATM   12  C14 UNL     1      28.042   9.118  20.261  1.00  0.00     0.145 C 
ENDROOT
BRANCH   9  13
HETATM   13  C8  UNL     1      27.953  14.798  20.528  1.00  0.00     0.146 C 
BRANCH  13  14
HETATM   14  C9  UNL     1      28.805  15.460  21.551  1.00  0.00    -0.035 C 
HETATM   15  C10 UNL     1      30.052  16.088  21.018  1.00  0.00     0.016 C 
HETATM   16  C11 UNL     1      29.134  14.489  22.672  1.00  0.00     0.016 C 
HETATM   17  C12 UNL     1      27.968  16.602  22.150  1.00  0.00     0.016 C 
ENDBRANCH  13  14
ENDBRANCH   9  13
BRANCH   1  18
HETATM   18  C4  UNL     1      26.879   7.842  18.448  1.00  0.00     0.170 C 
HETATM   19  S1  UNL     1      26.858   7.582  16.767  1.00  0.00    -0.041 SA
BRANCH  18  20
HETATM   20  N1  UNL     1      25.937   7.124  19.190  1.00  0.00    -0.364 N 
ATOM     21  H1  UNL     1      26.055   7.163  20.203  1.00  0.00     0.162 HD
BRANCH  20  22
HETATM   22  C3  UNL     1      24.833   6.341  18.730  1.00  0.00     0.148 C 
BRANCH  22  23
HETATM   23  C2  UNL     1      23.858   6.001  19.765  1.00  0.00    -0.018 C 
HETATM   24  C1  UNL     1      24.128   5.567  20.956  1.00  0.00     0.008 C 
ENDBRANCH  22  23
ENDBRANCH  20  22
ENDBRANCH  18  20
ENDBRANCH   1  18
TORSDOF 6
ENDMDL
MODEL 4
REMARK VINA RESULT: -5.844387014      2.780      7.774
REMARK  6 active torsions:
REMARK  status: ('A' for Active; 'I' for Inactive)
REMARK    1  A    between atoms: C2_2  and  C3_3 
REMARK    2  A    between atoms: C3_3  and  N1_4 
REMARK    3  A    between atoms: N1_4  and  C4_6 
REMARK    4  A    between atoms: C4_6  and  N2_8 
REMARK       I    between atoms: N3_11  and  C7_12 
REMARK       I    between atoms: C7_12  and  N5_16 
REMARK    5  A    between atoms: N5_16  and  C8_18 
REMARK    6  A    between atoms: C8_18  and  C9_19 
ROOT
HETATM    1  N2  UNL     1      29.206  11.431  20.136  1.00  0.00    -0.355 N 
HETATM    2  C5  UNL     1      29.880  10.252  19.711  1.00  0.00     0.145 C 
HETATM    3  C6  UNL     1      29.141   9.089  20.395  1.00  0.00     0.161 C 
HETATM    4  N3  UNL     1      27.726   9.236  20.162  1.00  0.00    -0.215 N 
HETATM    5  C7  UNL     1      26.816   8.421  20.851  1.00  0.00     0.669 C 
HETATM    6  N4  UNL     1      27.059   8.062  22.054  1.00  0.00    -0.235 N 
ATOM      7  H41 UNL     1      26.397   7.469  22.555  1.00  0.00     0.174 HD
ATOM      8  H42 UNL     1      27.925   8.365  22.498  1.00  0.00     0.174 HD
HETATM    9  N5  UNL     1      25.617   8.002  20.236  1.00  0.00    -0.226 N 
ATOM     10  H5  UNL     1      25.081   8.679  19.694  1.00  0.00     0.177 HD
HETATM   11  C13 UNL     1      27.273  10.222  19.215  1.00  0.00     0.161 C 
HETATM   12  C14 UNL     1      27.861  11.581  19.510  1.00  0.00     0.145 C 
ENDROOT
BRANCH   9  13
HETATM   13  C8  UNL     1      25.126   6.665  20.344  1.00  0.00     0.146 C 
BRANCH  13  14
HETATM   14  C9  UNL     1      24.531   6.065  19.120  1.00  0.00    -0.035 C 
HETATM   15  C10 UNL     1      24.428   4.575  19.138  1.00  0.00     0.016 C 
HETATM   16  C11 UNL     1      25.282   6.532  17.885  1.00  0.00     0.016 C 
HETATM   17  C12 UNL     1      23.092   6.598  19.023  1.00  0.00     0.016 C 
ENDBRANCH  13  14
ENDBRANCH   9  13
BRANCH   1  18
HETATM   18  C4  UNL     1      29.675  12.383  21.039  1.00  0.00     0.170 C 
HETATM   19  S1  UNL     1      28.691  13.770  21.078  1.00  0.00    -0.041 SA
BRANCH  18  20
HETATM   20  N1  UNL     1      30.783  12.394  21.890  1.00  0.00    -0.364 N 
ATOM     21  H1  UNL     1      30.576  12.263  22.880  1.00  0.00     0.162 HD
BRANCH  20  22
HETATM   22  C3  UNL     1      32.166  12.563  21.568  1.00  0.00     0.148 C 
BRANCH  22  23
HETATM   23  C2  UNL     1      32.877  11.319  21.282  1.00  0.00    -0.018 C 
HETATM   24  C1  UNL     1      32.836  10.234  21.988  1.00  0.00     0.008 C 
ENDBRANCH  22  23
ENDBRANCH  20  22
ENDBRANCH  18  20
ENDBRANCH   1  18
TORSDOF 6
ENDMDL
MODEL 5
REMARK VINA RESULT: -5.730483273      1.185      1.276
REMARK  6 active torsions:
REMARK  status: ('A' for Active; 'I' for Inactive)
REMARK    1  A    between atoms: C2_2  and  C3_3 
REMARK    2  A    between atoms: C3_3  and  N1_4 
REMARK    3  A    between atoms: N1_4  and  C4_6 
REMARK    4  A    between atoms: C4_6  and  N2_8 
REMARK       I    between atoms: N3_11  and  C7_12 
REMARK       I    between atoms: C7_12  and  N5_16 
REMARK    5  A    between atoms: N5_16  and  C8_18 
REMARK    6  A    between atoms: C8_18  and  C9_19 
ROOT
HETATM    1  N2  UNL     1      27.835   8.935  19.622  1.00  0.00    -0.355 N 
HETATM    2  C5  UNL     1      28.102   9.551  18.367  1.00  0.00     0.145 C 
HETATM    3  C6  UNL     1      27.638  11.011  18.520  1.00  0.00     0.161 C 
HETATM    4  N3  UNL     1      28.208  11.554  19.728  1.00  0.00    -0.215 N 
HETATM    5  C7  UNL     1      27.775  12.800  20.205  1.00  0.00     0.669 C 
HETATM    6  N4  UNL     1      26.555  13.155  20.059  1.00  0.00    -0.235 N 
ATOM      7  H41 UNL     1      26.240  14.061  20.405  1.00  0.00     0.174 HD
ATOM      8  H42 UNL     1      25.908  12.527  19.583  1.00  0.00     0.174 HD
HETATM    9  N5  UNL     1      28.671  13.669  20.863  1.00  0.00    -0.226 N 
ATOM     10  H5  UNL     1      29.316  13.280  21.551  1.00  0.00     0.177 HD
HETATM   11  C13 UNL     1      29.220  10.803  20.423  1.00  0.00     0.161 C 
HETATM   12  C14 UNL     1      28.768   9.387  20.693  1.00  0.00     0.145 C 
ENDROOT
BRANCH   9  13
HETATM   13  C8  UNL     1      28.708  15.073  20.605  1.00  0.00     0.146 C 
BRANCH  13  14
HETATM   14  C9  UNL     1      29.043  15.961  21.751  1.00  0.00    -0.035 C 
HETATM   15  C10 UNL     1      27.914  16.809  22.239  1.00  0.00     0.016 C 
HETATM   16  C11 UNL     1      30.250  16.821  21.416  1.00  0.00     0.016 C 
HETATM   17  C12 UNL     1      29.432  15.042  22.921  1.00  0.00     0.016 C 
ENDBRANCH  13  14
ENDBRANCH   9  13
BRANCH   1  18
HETATM   18  C4  UNL     1      26.831   8.012  19.903  1.00  0.00     0.170 C 
HETATM   19  S1  UNL     1      26.479   7.933  21.565  1.00  0.00    -0.041 SA
BRANCH  18  20
HETATM   20  N1  UNL     1      26.085   7.166  19.079  1.00  0.00    -0.364 N 
ATOM     21  H1  UNL     1      26.599   6.744  18.304  1.00  0.00     0.162 HD
BRANCH  20  22
HETATM   22  C3  UNL     1      24.704   6.806  19.168  1.00  0.00     0.148 C 
BRANCH  22  23
HETATM   23  C2  UNL     1      24.459   5.474  19.718  1.00  0.00    -0.018 C 
HETATM   24  C1  UNL     1      23.979   5.208  20.892  1.00  0.00     0.008 C 
ENDBRANCH  22  23
ENDBRANCH  20  22
ENDBRANCH  18  20
ENDBRANCH   1  18
TORSDOF 6
ENDMDL
