MODEL 1
REMARK VINA RESULT: -9.300259811      0.000      0.000
REMARK  9 active torsions:
REMARK  status: ('A' for Active; 'I' for Inactive)
REMARK    1  A    between atoms: C3_3  and  N1_4 
REMARK    2  A    between atoms: C7_8  and  N2_9 
REMARK    3  A    between atoms: N2_9  and  C8_11 
REMARK    4  A    between atoms: C8_11  and  C9_12 
REMARK    5  A    between atoms: C9_12  and  C10_13 
REMARK    6  A    between atoms: C10_13  and  N3_14 
REMARK       I    between atoms: N3_14  and  C11_16 
REMARK       I    between atoms: C11_16  and  N5_20 
REMARK    7  A    between atoms: N5_20  and  C12_22 
REMARK    8  A    between atoms: C12_22  and  C13_23 
REMARK    9  A    between atoms: C13_23  and  C14_24 
ROOT
HETATM    1  C1  UNL     1       3.397  20.023  10.477  1.00  0.00     0.014 C 
HETATM    2  C2  UNL     1       4.134  19.665  11.342  1.00  0.00    -0.098 C 
HETATM    3  C3  UNL     1       5.029  19.200  12.410  1.00  0.00     0.219 C 
ENDROOT
BRANCH   3   4
HETATM    4  N1  UNL     1       4.281  18.681  13.529  1.00  0.00    -0.340 N 
HETATM    5  C4  UNL     1       2.961  18.120  13.248  1.00  0.00     0.127 C 
HETATM    6  C5  UNL     1       2.118  18.114  14.511  1.00  0.00     0.022 C 
HETATM    7  C6  UNL     1       2.936  17.433  15.576  1.00  0.00     0.036 C 
HETATM    8  C7  UNL     1       4.138  18.189  16.015  1.00  0.00     0.169 C 
HETATM    9  C22 UNL     1       4.828  18.732  14.820  1.00  0.00     0.242 C 
HETATM   10  O1  UNL     1       5.958  19.262  14.993  1.00  0.00    -0.271 OA
BRANCH   8  11
HETATM   11  N2  UNL     1       3.917  19.281  16.902  1.00  0.00    -0.409 N 
ATOM     12  H2  UNL     1       4.395  20.172  16.766  1.00  0.00     0.154 HD
BRANCH  11  13
HETATM   13  C8  UNL     1       3.018  19.097  17.976  1.00  0.00     0.116 C 
BRANCH  13  14
HETATM   14  C9  UNL     1       3.543  18.184  19.087  1.00  0.00     0.039 C 
BRANCH  14  15
HETATM   15  C10 UNL     1       2.306  17.721  19.842  1.00  0.00     0.139 C 
BRANCH  15  16
HETATM   16  N3  UNL     1       1.327  18.743  20.036  1.00  0.00    -0.227 N 
HETATM   17  C11 UNL     1      -0.048  18.599  19.726  1.00  0.00     0.667 C 
HETATM   18  N4  UNL     1      -0.905  18.535  20.671  1.00  0.00    -0.235 N 
HETATM   19  N5  UNL     1      -0.476  18.524  18.388  1.00  0.00    -0.227 N 
ATOM     20  H42 UNL     1      -0.595  18.589  21.641  1.00  0.00     0.174 HD
ATOM     21  H41 UNL     1      -1.895  18.431  20.448  1.00  0.00     0.174 HD
ATOM     22  H5  UNL     1      -0.389  17.627  17.909  1.00  0.00     0.177 HD
ATOM     23  H3  UNL     1       1.638  19.635  20.423  1.00  0.00     0.177 HD
BRANCH  19  24
HETATM   24  C12 UNL     1      -1.036  19.643  17.640  1.00  0.00     0.142 C 
BRANCH  24  25
HETATM   25  C13 UNL     1      -0.379  20.876  18.163  1.00  0.00     0.054 C 
BRANCH  25  26
HETATM   26  C14 UNL     1      -1.235  22.037  18.381  1.00  0.00    -0.082 C 
HETATM   27  C15 UNL     1      -0.608  23.191  18.457  1.00  0.00    -0.024 C 
HETATM   28  C16 UNL     1      -1.058  24.618  18.669  1.00  0.00     0.027 C 
HETATM   29  C17 UNL     1      -1.934  25.114  17.561  1.00  0.00     0.004 C 
HETATM   30  C18 UNL     1      -3.369  25.154  17.996  1.00  0.00     0.000 C 
HETATM   31  C19 UNL     1      -3.879  23.872  18.568  1.00  0.00     0.000 C 
HETATM   32  C20 UNL     1      -3.545  22.675  17.740  1.00  0.00     0.004 C 
HETATM   33  C21 UNL     1      -2.669  21.674  18.468  1.00  0.00     0.034 C 
ENDBRANCH  25  26
ENDBRANCH  24  25
ENDBRANCH  19  24
ENDBRANCH  15  16
ENDBRANCH  14  15
ENDBRANCH  13  14
ENDBRANCH  11  13
ENDBRANCH   8  11
ENDBRANCH   3   4
TORSDOF 9
ENDMDL
MODEL 2
REMARK VINA RESULT: -9.102096737      2.842      5.375
REMARK  9 active torsions:
REMARK  status: ('A' for Active; 'I' for Inactive)
REMARK    1  A    between atoms: C3_3  and  N1_4 
REMARK    2  A    between atoms: C7_8  and  N2_9 
REMARK    3  A    between atoms: N2_9  and  C8_11 
REMARK    4  A    between atoms: C8_11  and  C9_12 
REMARK    5  A    between atoms: C9_12  and  C10_13 
REMARK    6  A    between atoms: C10_13  and  N3_14 
REMARK       I    between atoms: N3_14  and  C11_16 
REMARK       I    between atoms: C11_16  and  N5_20 
REMARK    7  A    between atoms: N5_20  and  C12_22 
REMARK    8  A    between atoms: C12_22  and  C13_23 
REMARK    9  A    between atoms: C13_23  and  C14_24 
ROOT
HETATM    1  C1  UNL     1       5.726  12.926  22.884  1.00  0.00     0.014 C 
HETATM    2  C2  UNL     1       5.690  13.235  21.734  1.00  0.00    -0.098 C 
HETATM    3  C3  UNL     1       5.648  13.641  20.322  1.00  0.00     0.219 C 
ENDROOT
BRANCH   3   4
HETATM    4  N1  UNL     1       4.776  14.773  20.130  1.00  0.00    -0.340 N 
HETATM    5  C4  UNL     1       3.404  14.650  20.618  1.00  0.00     0.127 C 
HETATM    6  C5  UNL     1       2.505  15.644  19.903  1.00  0.00     0.022 C 
HETATM    7  C6  UNL     1       3.159  16.995  20.038  1.00  0.00     0.036 C 
HETATM    8  C7  UNL     1       4.436  17.145  19.291  1.00  0.00     0.169 C 
HETATM    9  C22 UNL     1       5.258  15.928  19.495  1.00  0.00     0.242 C 
HETATM   10  O1  UNL     1       6.444  15.951  19.070  1.00  0.00    -0.271 OA
BRANCH   8  11
HETATM   11  N2  UNL     1       4.334  17.349  17.886  1.00  0.00    -0.409 N 
ATOM     12  H2  UNL     1       4.975  16.886  17.241  1.00  0.00     0.154 HD
BRANCH  11  13
HETATM   13  C8  UNL     1       3.321  18.211  17.409  1.00  0.00     0.116 C 
BRANCH  13  14
HETATM   14  C9  UNL     1       3.513  18.668  15.961  1.00  0.00     0.039 C 
BRANCH  14  15
HETATM   15  C10 UNL     1       2.388  18.006  15.180  1.00  0.00     0.139 C 
BRANCH  15  16
HETATM   16  N3  UNL     1       1.311  17.539  15.995  1.00  0.00    -0.227 N 
HETATM   17  C11 UNL     1       0.003  18.085  15.978  1.00  0.00     0.667 C 
HETATM   18  N4  UNL     1      -0.960  17.403  15.490  1.00  0.00    -0.235 N 
HETATM   19  N5  UNL     1      -0.242  19.372  16.492  1.00  0.00    -0.227 N 
ATOM     20  H42 UNL     1      -0.782  16.471  15.117  1.00  0.00     0.174 HD
ATOM     21  H41 UNL     1      -1.901  17.796  15.477  1.00  0.00     0.174 HD
ATOM     22  H5  UNL     1      -0.020  20.172  15.899  1.00  0.00     0.177 HD
ATOM     23  H3  UNL     1       1.496  16.762  16.631  1.00  0.00     0.177 HD
BRANCH  19  24
HETATM   24  C12 UNL     1      -0.791  19.638  17.816  1.00  0.00     0.142 C 
BRANCH  24  25
HETATM   25  C13 UNL     1      -0.200  20.931  18.270  1.00  0.00     0.054 C 
BRANCH  25  26
HETATM   26  C14 UNL     1      -1.119  22.054  18.431  1.00  0.00    -0.082 C 
HETATM   27  C15 UNL     1      -0.549  23.232  18.559  1.00  0.00    -0.024 C 
HETATM   28  C16 UNL     1      -1.072  24.638  18.746  1.00  0.00     0.027 C 
HETATM   29  C17 UNL     1      -1.885  25.106  17.579  1.00  0.00     0.004 C 
HETATM   30  C18 UNL     1      -3.349  25.082  17.909  1.00  0.00     0.000 C 
HETATM   31  C19 UNL     1      -3.845  23.775  18.435  1.00  0.00     0.000 C 
HETATM   32  C20 UNL     1      -3.401  22.600  17.627  1.00  0.00     0.004 C 
HETATM   33  C21 UNL     1      -2.539  21.630  18.412  1.00  0.00     0.034 C 
ENDBRANCH  25  26
ENDBRANCH  24  25
ENDBRANCH  19  24
ENDBRANCH  15  16
ENDBRANCH  14  15
ENDBRANCH  13  14
ENDBRANCH  11  13
ENDBRANCH   8  11
ENDBRANCH   3   4
TORSDOF 9
ENDMDL
MODEL 3
REMARK VINA RESULT: -9.051414859      0.757      1.571
REMARK  9 active torsions:
REMARK  status: ('A' for Active; 'I' for Inactive)
REMARK    1  A    between atoms: C3_3  and  N1_4 
REMARK    2  A    between atoms: C7_8  and  N2_9 
REMARK    3  A    between atoms: N2_9  and  C8_11 
REMARK    4  A    between atoms: C8_11  and  C9_12 
REMARK    5  A    between atoms: C9_12  and  C10_13 
REMARK    6  A    between atoms: C10_13  and  N3_14 
REMARK       I    between atoms: N3_14  and  C11_16 
REMARK       I    between atoms: C11_16  and  N5_20 
REMARK    7  A    between atoms: N5_20  and  C12_22 
REMARK    8  A    between atoms: C12_22  and  C13_23 
REMARK    9  A    between atoms: C13_23  and  C14_24 
ROOT
HETATM    1  C1  UNL     1       3.410  20.005  10.465  1.00  0.00     0.014 C 
HETATM    2  C2  UNL     1       4.142  19.658  11.338  1.00  0.00    -0.098 C 
HETATM    3  C3  UNL     1       5.031  19.207  12.417  1.00  0.00     0.219 C 
ENDROOT
BRANCH   3   4
HETATM    4  N1  UNL     1       4.280  18.643  13.512  1.00  0.00    -0.340 N 
HETATM    5  C4  UNL     1       2.984  18.047  13.196  1.00  0.00     0.127 C 
HETATM    6  C5  UNL     1       2.118  17.990  14.442  1.00  0.00     0.022 C 
HETATM    7  C6  UNL     1       2.939  17.314  15.510  1.00  0.00     0.036 C 
HETATM    8  C7  UNL     1       4.108  18.099  15.985  1.00  0.00     0.169 C 
HETATM    9  C22 UNL     1       4.801  18.686  14.814  1.00  0.00     0.242 C 
HETATM   10  O1  UNL     1       5.912  19.247  15.017  1.00  0.00    -0.271 OA
BRANCH   8  11
HETATM   11  N2  UNL     1       3.837  19.166  16.888  1.00  0.00    -0.409 N 
ATOM     12  H2  UNL     1       4.154  20.115  16.688  1.00  0.00     0.154 HD
BRANCH  11  13
HETATM   13  C8  UNL     1       3.117  18.875  18.068  1.00  0.00     0.116 C 
BRANCH  13  14
HETATM   14  C9  UNL     1       3.840  17.928  19.030  1.00  0.00     0.039 C 
BRANCH  14  15
HETATM   15  C10 UNL     1       2.735  17.201  19.780  1.00  0.00     0.139 C 
BRANCH  15  16
HETATM   16  N3  UNL     1       2.063  18.007  20.749  1.00  0.00    -0.227 N 
HETATM   17  C11 UNL     1       0.670  17.947  21.008  1.00  0.00     0.667 C 
HETATM   18  N4  UNL     1       0.253  17.459  22.112  1.00  0.00    -0.235 N 
HETATM   19  N5  UNL     1      -0.255  18.419  20.058  1.00  0.00    -0.227 N 
ATOM     20  H42 UNL     1       0.923  17.117  22.800  1.00  0.00     0.174 HD
ATOM     21  H41 UNL     1      -0.749  17.416  22.298  1.00  0.00     0.174 HD
ATOM     22  H5  UNL     1      -0.487  17.808  19.274  1.00  0.00     0.177 HD
ATOM     23  H3  UNL     1       2.621  18.668  21.290  1.00  0.00     0.177 HD
BRANCH  19  24
HETATM   24  C12 UNL     1      -0.903  19.723  20.119  1.00  0.00     0.142 C 
BRANCH  24  25
HETATM   25  C13 UNL     1      -0.296  20.551  19.036  1.00  0.00     0.054 C 
BRANCH  25  26
HETATM   26  C14 UNL     1      -1.109  21.641  18.506  1.00  0.00    -0.082 C 
HETATM   27  C15 UNL     1      -2.338  21.312  18.168  1.00  0.00    -0.024 C 
HETATM   28  C16 UNL     1      -3.508  22.075  17.593  1.00  0.00     0.027 C 
HETATM   29  C17 UNL     1      -3.998  23.151  18.511  1.00  0.00     0.004 C 
HETATM   30  C18 UNL     1      -3.558  24.502  18.028  1.00  0.00     0.000 C 
HETATM   31  C19 UNL     1      -2.092  24.623  17.774  1.00  0.00     0.000 C 
HETATM   32  C20 UNL     1      -1.248  24.088  18.884  1.00  0.00     0.004 C 
HETATM   33  C21 UNL     1      -0.372  22.926  18.459  1.00  0.00     0.034 C 
ENDBRANCH  25  26
ENDBRANCH  24  25
ENDBRANCH  19  24
ENDBRANCH  15  16
ENDBRANCH  14  15
ENDBRANCH  13  14
ENDBRANCH  11  13
ENDBRANCH   8  11
ENDBRANCH   3   4
TORSDOF 9
ENDMDL
MODEL 4
REMARK VINA RESULT: -8.943471337      1.111      1.764
REMARK  9 active torsions:
REMARK  status: ('A' for Active; 'I' for Inactive)
REMARK    1  A    between atoms: C3_3  and  N1_4 
REMARK    2  A    between atoms: C7_8  and  N2_9 
REMARK    3  A    between atoms: N2_9  and  C8_11 
REMARK    4  A    between atoms: C8_11  and  C9_12 
REMARK    5  A    between atoms: C9_12  and  C10_13 
REMARK    6  A    between atoms: C10_13  and  N3_14 
REMARK       I    between atoms: N3_14  and  C11_16 
REMARK       I    between atoms: C11_16  and  N5_20 
REMARK    7  A    between atoms: N5_20  and  C12_22 
REMARK    8  A    between atoms: C12_22  and  C13_23 
REMARK    9  A    between atoms: C13_23  and  C14_24 
ROOT
HETATM    1  C1  UNL     1       3.402  20.017  10.472  1.00  0.00     0.014 C 
HETATM    2  C2  UNL     1       4.137  19.653  11.336  1.00  0.00    -0.098 C 
HETATM    3  C3  UNL     1       5.030  19.182  12.404  1.00  0.00     0.219 C 
ENDROOT
BRANCH   3   4
HETATM    4  N1  UNL     1       4.279  18.637  13.509  1.00  0.00    -0.340 N 
HETATM    5  C4  UNL     1       2.981  18.040  13.206  1.00  0.00     0.127 C 
HETATM    6  C5  UNL     1       2.118  18.005  14.455  1.00  0.00     0.022 C 
HETATM    7  C6  UNL     1       2.940  17.343  15.531  1.00  0.00     0.036 C 
HETATM    8  C7  UNL     1       4.113  18.133  15.991  1.00  0.00     0.169 C 
HETATM    9  C22 UNL     1       4.805  18.699  14.809  1.00  0.00     0.242 C 
HETATM   10  O1  UNL     1       5.917  19.260  15.001  1.00  0.00    -0.271 OA
BRANCH   8  11
HETATM   11  N2  UNL     1       3.847  19.214  16.878  1.00  0.00    -0.409 N 
ATOM     12  H2  UNL     1       3.861  20.179  16.547  1.00  0.00     0.154 HD
BRANCH  11  13
HETATM   13  C8  UNL     1       3.563  18.915  18.229  1.00  0.00     0.116 C 
BRANCH  13  14
HETATM   14  C9  UNL     1       2.075  18.966  18.586  1.00  0.00     0.039 C 
BRANCH  14  15
HETATM   15  C10 UNL     1       1.716  17.548  19.004  1.00  0.00     0.139 C 
BRANCH  15  16
HETATM   16  N3  UNL     1       0.316  17.270  18.973  1.00  0.00    -0.227 N 
HETATM   17  C11 UNL     1      -0.430  17.060  17.786  1.00  0.00     0.667 C 
HETATM   18  N4  UNL     1      -0.876  15.894  17.518  1.00  0.00    -0.235 N 
HETATM   19  N5  UNL     1      -0.681  18.126  16.902  1.00  0.00    -0.227 N 
ATOM     20  H42 UNL     1      -0.694  15.122  18.159  1.00  0.00     0.174 HD
ATOM     21  H41 UNL     1      -1.413  15.743  16.664  1.00  0.00     0.174 HD
ATOM     22  H5  UNL     1       0.061  18.394  16.255  1.00  0.00     0.177 HD
ATOM     23  H3  UNL     1      -0.180  17.218  19.864  1.00  0.00     0.177 HD
BRANCH  19  24
HETATM   24  C12 UNL     1      -1.932  18.873  16.848  1.00  0.00     0.142 C 
BRANCH  24  25
HETATM   25  C13 UNL     1      -1.988  19.699  18.089  1.00  0.00     0.054 C 
BRANCH  25  26
HETATM   26  C14 UNL     1      -1.745  21.130  17.939  1.00  0.00    -0.082 C 
HETATM   27  C15 UNL     1      -2.528  21.746  17.080  1.00  0.00    -0.024 C 
HETATM   28  C16 UNL     1      -2.647  23.175  16.605  1.00  0.00     0.027 C 
HETATM   29  C17 UNL     1      -3.036  24.114  17.704  1.00  0.00     0.004 C 
HETATM   30  C18 UNL     1      -1.854  24.918  18.158  1.00  0.00     0.000 C 
HETATM   31  C19 UNL     1      -0.657  24.107  18.528  1.00  0.00     0.000 C 
HETATM   32  C20 UNL     1      -0.971  22.957  19.427  1.00  0.00     0.004 C 
HETATM   33  C21 UNL     1      -0.645  21.611  18.809  1.00  0.00     0.034 C 
ENDBRANCH  25  26
ENDBRANCH  24  25
ENDBRANCH  19  24
ENDBRANCH  15  16
ENDBRANCH  14  15
ENDBRANCH  13  14
ENDBRANCH  11  13
ENDBRANCH   8  11
ENDBRANCH   3   4
TORSDOF 9
ENDMDL
MODEL 5
REMARK VINA RESULT: -8.878057573      0.852      1.659
REMARK  9 active torsions:
REMARK  status: ('A' for Active; 'I' for Inactive)
REMARK    1  A    between atoms: C3_3  and  N1_4 
REMARK    2  A    between atoms: C7_8  and  N2_9 
REMARK    3  A    between atoms: N2_9  and  C8_11 
REMARK    4  A    between atoms: C8_11  and  C9_12 
REMARK    5  A    between atoms: C9_12  and  C10_13 
REMARK    6  A    between atoms: C10_13  and  N3_14 
REMARK       I    between atoms: N3_14  and  C11_16 
REMARK       I    between atoms: C11_16  and  N5_20 
REMARK    7  A    between atoms: N5_20  and  C12_22 
REMARK    8  A    between atoms: C12_22  and  C13_23 
REMARK    9  A    between atoms: C13_23  and  C14_24 
ROOT
HETATM    1  C1  UNL     1       3.406  20.009  10.461  1.00  0.00     0.014 C 
HETATM    2  C2  UNL     1       4.139  19.656  11.331  1.00  0.00    -0.098 C 
HETATM    3  C3  UNL     1       5.029  19.200  12.407  1.00  0.00     0.219 C 
ENDROOT
BRANCH   3   4
HETATM    4  N1  UNL     1       4.277  18.674  13.520  1.00  0.00    -0.340 N 
HETATM    5  C4  UNL     1       2.958  18.116  13.231  1.00  0.00     0.127 C 
HETATM    6  C5  UNL     1       2.109  18.103  14.490  1.00  0.00     0.022 C 
HETATM    7  C6  UNL     1       2.924  17.414  15.555  1.00  0.00     0.036 C 
HETATM    8  C7  UNL     1       4.125  18.168  16.002  1.00  0.00     0.169 C 
HETATM    9  C22 UNL     1       4.819  18.717  14.813  1.00  0.00     0.242 C 
HETATM   10  O1  UNL     1       5.949  19.245  14.993  1.00  0.00    -0.271 OA
BRANCH   8  11
HETATM   11  N2  UNL     1       3.901  19.254  16.895  1.00  0.00    -0.409 N 
ATOM     12  H2  UNL     1       4.194  20.201  16.652  1.00  0.00     0.154 HD
BRANCH  11  13
HETATM   13  C8  UNL     1       3.262  18.986  18.126  1.00  0.00     0.116 C 
BRANCH  13  14
HETATM   14  C9  UNL     1       3.808  17.762  18.865  1.00  0.00     0.039 C 
BRANCH  14  15
HETATM   15  C10 UNL     1       2.873  17.561  20.048  1.00  0.00     0.139 C 
BRANCH  15  16
HETATM   16  N3  UNL     1       1.801  18.503  20.109  1.00  0.00    -0.227 N 
HETATM   17  C11 UNL     1       0.445  18.155  20.333  1.00  0.00     0.667 C 
HETATM   18  N4  UNL     1      -0.112  18.465  21.440  1.00  0.00    -0.235 N 
HETATM   19  N5  UNL     1      -0.290  17.470  19.348  1.00  0.00    -0.227 N 
ATOM     20  H42 UNL     1       0.420  18.961  22.153  1.00  0.00     0.174 HD
ATOM     21  H41 UNL     1      -1.088  18.214  21.601  1.00  0.00     0.174 HD
ATOM     22  H5  UNL     1      -0.160  16.461  19.272  1.00  0.00     0.177 HD
ATOM     23  H3  UNL     1       2.026  19.490  19.984  1.00  0.00     0.177 HD
BRANCH  19  24
HETATM   24  C12 UNL     1      -1.225  18.106  18.429  1.00  0.00     0.142 C 
BRANCH  24  25
HETATM   25  C13 UNL     1      -0.412  18.974  17.527  1.00  0.00     0.054 C 
BRANCH  25  26
HETATM   26  C14 UNL     1      -0.763  20.390  17.483  1.00  0.00    -0.082 C 
HETATM   27  C15 UNL     1      -1.691  20.711  16.607  1.00  0.00    -0.024 C 
HETATM   28  C16 UNL     1      -2.358  22.008  16.213  1.00  0.00     0.027 C 
HETATM   29  C17 UNL     1      -3.140  22.615  17.335  1.00  0.00     0.004 C 
HETATM   30  C18 UNL     1      -2.405  23.784  17.923  1.00  0.00     0.000 C 
HETATM   31  C19 UNL     1      -0.999  23.491  18.330  1.00  0.00     0.000 C 
HETATM   32  C20 UNL     1      -0.858  22.239  19.132  1.00  0.00     0.004 C 
HETATM   33  C21 UNL     1       0.010  21.195  18.458  1.00  0.00     0.034 C 
ENDBRANCH  25  26
ENDBRANCH  24  25
ENDBRANCH  19  24
ENDBRANCH  15  16
ENDBRANCH  14  15
ENDBRANCH  13  14
ENDBRANCH  11  13
ENDBRANCH   8  11
ENDBRANCH   3   4
TORSDOF 9
ENDMDL
