MODEL 1
REMARK VINA RESULT: -8.599177610      0.000      0.000
REMARK  9 active torsions:
REMARK  status: ('A' for Active; 'I' for Inactive)
REMARK    1  A    between atoms: C2_2  and  C4_4 
REMARK    2  A    between atoms: C4_4  and  C5_5 
REMARK    3  A    between atoms: C5_5  and  N1_6 
REMARK    4  A    between atoms: C5_5  and  C13_18 
REMARK       I    between atoms: N1_6  and  C6_8 
REMARK       I    between atoms: C6_8  and  N2_10 
REMARK    5  A    between atoms: N2_10  and  C7_12 
REMARK       I    between atoms: C13_18  and  N3_20 
REMARK    6  A    between atoms: N3_20  and  C14_22 
REMARK    7  A    between atoms: C14_22  and  C16_24 
REMARK       I    between atoms: C16_24  and  N4_26 
REMARK    8  A    between atoms: N4_26  and  C17_28 
REMARK    9  A    between atoms: C17_28  and  C18_29 
ROOT
HETATM    1  C5  UNL     1       0.166  16.722  15.936  1.00  0.00     0.178 C 
ENDROOT
BRANCH   1   2
HETATM    2  C4  UNL     1      -1.097  15.960  15.825  1.00  0.00     0.038 C 
BRANCH   2   3
HETATM    3  C2  UNL     1      -1.611  15.611  14.483  1.00  0.00    -0.020 C 
HETATM    4  C1  UNL     1      -1.536  14.157  14.097  1.00  0.00     0.009 C 
HETATM    5  C3  UNL     1      -3.113  15.961  14.504  1.00  0.00     0.009 C 
ENDBRANCH   2   3
ENDBRANCH   1   2
BRANCH   1   6
HETATM    6  N1  UNL     1       0.571  17.491  14.790  1.00  0.00    -0.330 N 
HETATM    7  C6  UNL     1       1.870  17.478  14.248  1.00  0.00     0.317 C 
HETATM    8  O1  UNL     1       2.738  16.758  14.784  1.00  0.00    -0.247 OA
HETATM    9  N2  UNL     1       2.199  18.252  13.128  1.00  0.00    -0.339 N 
ATOM     10  H2  UNL     1       1.459  18.823  12.719  1.00  0.00     0.164 HD
ATOM     11  H1  UNL     1      -0.128  18.084  14.341  1.00  0.00     0.165 HD
BRANCH   9  12
HETATM   12  C7  UNL     1       3.502  18.308  12.507  1.00  0.00     0.086 C 
HETATM   13  C8  UNL     1       4.509  18.594  13.567  1.00  0.00     0.025 C 
HETATM   14  C9  UNL     1       5.865  18.989  13.063  1.00  0.00     0.002 C 
HETATM   15  C10 UNL     1       5.674  20.234  12.203  1.00  0.00     0.000 C 
HETATM   16  C11 UNL     1       4.869  19.782  10.993  1.00  0.00     0.002 C 
HETATM   17  C12 UNL     1       3.520  19.275  11.355  1.00  0.00     0.025 C 
ENDBRANCH   9  12
ENDBRANCH   1   6
BRANCH   1  18
HETATM   18  C13 UNL     1       0.290  17.496  17.200  1.00  0.00     0.241 C 
HETATM   19  O2  UNL     1       1.419  17.567  17.756  1.00  0.00    -0.271 OA
HETATM   20  N3  UNL     1      -0.815  18.154  17.799  1.00  0.00    -0.346 N 
ATOM     21  H3  UNL     1      -1.731  18.104  17.354  1.00  0.00     0.163 HD
BRANCH  20  22
HETATM   22  C14 UNL     1      -0.662  18.895  19.032  1.00  0.00     0.172 C 
HETATM   23  C15 UNL     1      -1.099  18.086  20.233  1.00  0.00     0.042 C 
BRANCH  22  24
HETATM   24  C16 UNL     1      -1.333  20.208  18.938  1.00  0.00     0.240 C 
HETATM   25  O3  UNL     1      -2.452  20.275  18.384  1.00  0.00    -0.271 OA
HETATM   26  N4  UNL     1      -0.764  21.407  19.452  1.00  0.00    -0.359 N 
ATOM     27  H4  UNL     1       0.148  21.350  19.905  1.00  0.00     0.162 HD
BRANCH  26  28
HETATM   28  C17 UNL     1      -1.401  22.700  19.368  1.00  0.00     0.127 C 
BRANCH  28  29
HETATM   29  C18 UNL     1      -1.053  23.440  18.115  1.00  0.00     0.003 C 
HETATM   30  C19 UNL     1      -1.110  24.950  18.404  1.00  0.00     0.006 C 
HETATM   31  C20 UNL     1      -2.583  24.887  18.008  1.00  0.00     0.001 C 
HETATM   32  C21 UNL     1      -2.266  23.632  17.228  1.00  0.00     0.006 C 
ENDBRANCH  28  29
ENDBRANCH  26  28
ENDBRANCH  22  24
ENDBRANCH  20  22
ENDBRANCH   1  18
TORSDOF 9
ENDMDL
MODEL 2
REMARK VINA RESULT: -8.557064142      2.639      6.924
REMARK  9 active torsions:
REMARK  status: ('A' for Active; 'I' for Inactive)
REMARK    1  A    between atoms: C2_2  and  C4_4 
REMARK    2  A    between atoms: C4_4  and  C5_5 
REMARK    3  A    between atoms: C5_5  and  N1_6 
REMARK    4  A    between atoms: C5_5  and  C13_18 
REMARK       I    between atoms: N1_6  and  C6_8 
REMARK       I    between atoms: C6_8  and  N2_10 
REMARK    5  A    between atoms: N2_10  and  C7_12 
REMARK       I    between atoms: C13_18  and  N3_20 
REMARK    6  A    between atoms: N3_20  and  C14_22 
REMARK    7  A    between atoms: C14_22  and  C16_24 
REMARK       I    between atoms: C16_24  and  N4_26 
REMARK    8  A    between atoms: N4_26  and  C17_28 
REMARK    9  A    between atoms: C17_28  and  C18_29 
ROOT
HETATM    1  C5  UNL     1       0.454  17.762  16.282  1.00  0.00     0.178 C 
ENDROOT
BRANCH   1   2
HETATM    2  C4  UNL     1       1.792  17.511  15.702  1.00  0.00     0.038 C 
BRANCH   2   3
HETATM    3  C2  UNL     1       2.859  18.517  15.892  1.00  0.00    -0.020 C 
HETATM    4  C1  UNL     1       3.330  18.732  17.306  1.00  0.00     0.009 C 
HETATM    5  C3  UNL     1       4.083  17.982  15.121  1.00  0.00     0.009 C 
ENDBRANCH   2   3
ENDBRANCH   1   2
BRANCH   1   6
HETATM    6  N1  UNL     1      -0.141  19.046  16.024  1.00  0.00    -0.330 N 
HETATM    7  C6  UNL     1      -0.598  19.920  17.028  1.00  0.00     0.317 C 
HETATM    8  O1  UNL     1      -0.488  19.575  18.223  1.00  0.00    -0.247 OA
HETATM    9  N2  UNL     1      -1.170  21.159  16.709  1.00  0.00    -0.339 N 
ATOM     10  H2  UNL     1      -1.237  21.403  15.722  1.00  0.00     0.164 HD
ATOM     11  H1  UNL     1      -0.238  19.342  15.053  1.00  0.00     0.165 HD
BRANCH   9  12
HETATM   12  C7  UNL     1      -1.670  22.117  17.667  1.00  0.00     0.086 C 
HETATM   13  C8  UNL     1      -2.644  23.004  16.970  1.00  0.00     0.025 C 
HETATM   14  C9  UNL     1      -3.028  24.241  17.725  1.00  0.00     0.002 C 
HETATM   15  C10 UNL     1      -1.742  25.017  17.991  1.00  0.00     0.000 C 
HETATM   16  C11 UNL     1      -0.927  24.155  18.944  1.00  0.00     0.002 C 
HETATM   17  C12 UNL     1      -0.547  22.845  18.354  1.00  0.00     0.025 C 
ENDBRANCH   9  12
ENDBRANCH   1   6
BRANCH   1  18
HETATM   18  C13 UNL     1      -0.509  16.648  16.071  1.00  0.00     0.241 C 
HETATM   19  O2  UNL     1      -1.124  16.186  17.070  1.00  0.00    -0.271 OA
HETATM   20  N3  UNL     1      -0.756  16.090  14.791  1.00  0.00    -0.346 N 
ATOM     21  H3  UNL     1      -0.265  16.460  13.978  1.00  0.00     0.163 HD
BRANCH  20  22
HETATM   22  C14 UNL     1      -1.696  15.003  14.621  1.00  0.00     0.172 C 
HETATM   23  C15 UNL     1      -1.183  13.963  13.649  1.00  0.00     0.042 C 
BRANCH  22  24
HETATM   24  C16 UNL     1      -3.034  15.520  14.268  1.00  0.00     0.240 C 
HETATM   25  O3  UNL     1      -3.712  14.909  13.413  1.00  0.00    -0.271 OA
HETATM   26  N4  UNL     1      -3.593  16.688  14.858  1.00  0.00    -0.359 N 
ATOM     27  H4  UNL     1      -3.040  17.185  15.557  1.00  0.00     0.162 HD
BRANCH  26  28
HETATM   28  C17 UNL     1      -4.897  17.212  14.527  1.00  0.00     0.127 C 
BRANCH  28  29
HETATM   29  C18 UNL     1      -4.862  18.658  14.144  1.00  0.00     0.003 C 
HETATM   30  C19 UNL     1      -3.892  19.393  15.086  1.00  0.00     0.006 C 
HETATM   31  C20 UNL     1      -5.089  19.621  16.006  1.00  0.00     0.001 C 
HETATM   32  C21 UNL     1      -5.983  19.434  14.802  1.00  0.00     0.006 C 
ENDBRANCH  28  29
ENDBRANCH  26  28
ENDBRANCH  22  24
ENDBRANCH  20  22
ENDBRANCH   1  18
TORSDOF 9
ENDMDL
MODEL 3
REMARK VINA RESULT: -8.446564471      1.777      2.123
REMARK  9 active torsions:
REMARK  status: ('A' for Active; 'I' for Inactive)
REMARK    1  A    between atoms: C2_2  and  C4_4 
REMARK    2  A    between atoms: C4_4  and  C5_5 
REMARK    3  A    between atoms: C5_5  and  N1_6 
REMARK    4  A    between atoms: C5_5  and  C13_18 
REMARK       I    between atoms: N1_6  and  C6_8 
REMARK       I    between atoms: C6_8  and  N2_10 
REMARK    5  A    between atoms: N2_10  and  C7_12 
REMARK       I    between atoms: C13_18  and  N3_20 
REMARK    6  A    between atoms: N3_20  and  C14_22 
REMARK    7  A    between atoms: C14_22  and  C16_24 
REMARK       I    between atoms: C16_24  and  N4_26 
REMARK    8  A    between atoms: N4_26  and  C17_28 
REMARK    9  A    between atoms: C17_28  and  C18_29 
ROOT
HETATM    1  C5  UNL     1      -0.576  16.714  15.567  1.00  0.00     0.178 C 
ENDROOT
BRANCH   1   2
HETATM    2  C4  UNL     1      -1.201  15.378  15.456  1.00  0.00     0.038 C 
BRANCH   2   3
HETATM    3  C2  UNL     1      -1.720  14.933  14.145  1.00  0.00    -0.020 C 
HETATM    4  C1  UNL     1      -1.532  13.476  13.812  1.00  0.00     0.009 C 
HETATM    5  C3  UNL     1      -3.246  15.155  14.200  1.00  0.00     0.009 C 
ENDBRANCH   2   3
ENDBRANCH   1   2
BRANCH   1   6
HETATM    6  N1  UNL     1       0.111  17.214  14.406  1.00  0.00    -0.330 N 
HETATM    7  C6  UNL     1       1.511  17.324  14.303  1.00  0.00     0.317 C 
HETATM    8  O1  UNL     1       2.215  16.970  15.271  1.00  0.00    -0.247 OA
HETATM    9  N2  UNL     1       2.118  17.820  13.143  1.00  0.00    -0.339 N 
ATOM     10  H2  UNL     1       1.507  18.094  12.374  1.00  0.00     0.164 HD
ATOM     11  H1  UNL     1      -0.451  17.507  13.607  1.00  0.00     0.165 HD
BRANCH   9  12
HETATM   12  C7  UNL     1       3.541  17.974  12.947  1.00  0.00     0.086 C 
HETATM   13  C8  UNL     1       4.158  18.290  14.266  1.00  0.00     0.025 C 
HETATM   14  C9  UNL     1       5.573  18.783  14.202  1.00  0.00     0.002 C 
HETATM   15  C10 UNL     1       5.567  20.039  13.338  1.00  0.00     0.000 C 
HETATM   16  C11 UNL     1       5.199  19.576  11.935  1.00  0.00     0.002 C 
HETATM   17  C12 UNL     1       3.841  18.975  11.865  1.00  0.00     0.025 C 
ENDBRANCH   9  12
ENDBRANCH   1   6
BRANCH   1  18
HETATM   18  C13 UNL     1      -1.462  17.742  16.176  1.00  0.00     0.241 C 
HETATM   19  O2  UNL     1      -1.373  17.958  17.414  1.00  0.00    -0.271 OA
HETATM   20  N3  UNL     1      -2.402  18.483  15.413  1.00  0.00    -0.346 N 
ATOM     21  H3  UNL     1      -2.478  18.316  14.410  1.00  0.00     0.163 HD
BRANCH  20  22
HETATM   22  C14 UNL     1      -3.253  19.472  16.038  1.00  0.00     0.172 C 
HETATM   23  C15 UNL     1      -4.594  19.578  15.345  1.00  0.00     0.042 C 
BRANCH  22  24
HETATM   24  C16 UNL     1      -2.552  20.767  16.151  1.00  0.00     0.240 C 
HETATM   25  O3  UNL     1      -2.488  21.509  15.146  1.00  0.00    -0.271 OA
HETATM   26  N4  UNL     1      -1.942  21.215  17.356  1.00  0.00    -0.359 N 
ATOM     27  H4  UNL     1      -1.996  20.610  18.176  1.00  0.00     0.162 HD
BRANCH  26  28
HETATM   28  C17 UNL     1      -1.250  22.475  17.488  1.00  0.00     0.127 C 
BRANCH  28  29
HETATM   29  C18 UNL     1      -1.893  23.390  18.482  1.00  0.00     0.003 C 
HETATM   30  C19 UNL     1      -3.160  23.991  17.850  1.00  0.00     0.006 C 
HETATM   31  C20 UNL     1      -2.267  25.115  17.329  1.00  0.00     0.001 C 
HETATM   32  C21 UNL     1      -1.289  24.778  18.431  1.00  0.00     0.006 C 
ENDBRANCH  28  29
ENDBRANCH  26  28
ENDBRANCH  22  24
ENDBRANCH  20  22
ENDBRANCH   1  18
TORSDOF 9
ENDMDL
MODEL 4
REMARK VINA RESULT: -8.234181795      3.044      8.629
REMARK  9 active torsions:
REMARK  status: ('A' for Active; 'I' for Inactive)
REMARK    1  A    between atoms: C2_2  and  C4_4 
REMARK    2  A    between atoms: C4_4  and  C5_5 
REMARK    3  A    between atoms: C5_5  and  N1_6 
REMARK    4  A    between atoms: C5_5  and  C13_18 
REMARK       I    between atoms: N1_6  and  C6_8 
REMARK       I    between atoms: C6_8  and  N2_10 
REMARK    5  A    between atoms: N2_10  and  C7_12 
REMARK       I    between atoms: C13_18  and  N3_20 
REMARK    6  A    between atoms: N3_20  and  C14_22 
REMARK    7  A    between atoms: C14_22  and  C16_24 
REMARK       I    between atoms: C16_24  and  N4_26 
REMARK    8  A    between atoms: N4_26  and  C17_28 
REMARK    9  A    between atoms: C17_28  and  C18_29 
ROOT
HETATM    1  C5  UNL     1       0.253  17.675  16.364  1.00  0.00     0.178 C 
ENDROOT
BRANCH   1   2
HETATM    2  C4  UNL     1       1.673  17.442  16.710  1.00  0.00     0.038 C 
BRANCH   2   3
HETATM    3  C2  UNL     1       2.635  18.558  16.583  1.00  0.00    -0.020 C 
HETATM    4  C1  UNL     1       3.354  18.966  17.842  1.00  0.00     0.009 C 
HETATM    5  C3  UNL     1       3.732  18.058  15.620  1.00  0.00     0.009 C 
ENDBRANCH   2   3
ENDBRANCH   1   2
BRANCH   1   6
HETATM    6  N1  UNL     1      -0.144  19.032  16.101  1.00  0.00    -0.330 N 
HETATM    7  C6  UNL     1      -0.681  19.899  17.071  1.00  0.00     0.317 C 
HETATM    8  O1  UNL     1      -0.830  19.480  18.237  1.00  0.00    -0.247 OA
HETATM    9  N2  UNL     1      -1.049  21.212  16.750  1.00  0.00    -0.339 N 
ATOM     10  H2  UNL     1      -0.907  21.516  15.787  1.00  0.00     0.164 HD
ATOM     11  H1  UNL     1      -0.028  19.389  15.153  1.00  0.00     0.165 HD
BRANCH   9  12
HETATM   12  C7  UNL     1      -1.612  22.170  17.673  1.00  0.00     0.086 C 
HETATM   13  C8  UNL     1      -2.550  23.046  16.916  1.00  0.00     0.025 C 
HETATM   14  C9  UNL     1      -2.987  24.283  17.643  1.00  0.00     0.002 C 
HETATM   15  C10 UNL     1      -1.725  25.071  17.979  1.00  0.00     0.000 C 
HETATM   16  C11 UNL     1      -0.959  24.219  18.981  1.00  0.00     0.002 C 
HETATM   17  C12 UNL     1      -0.536  22.910  18.420  1.00  0.00     0.025 C 
ENDBRANCH   9  12
ENDBRANCH   1   6
BRANCH   1  18
HETATM   18  C13 UNL     1      -0.277  16.732  15.343  1.00  0.00     0.241 C 
HETATM   19  O2  UNL     1       0.369  16.577  14.271  1.00  0.00    -0.271 OA
HETATM   20  N3  UNL     1      -1.480  16.005  15.532  1.00  0.00    -0.346 N 
ATOM     21  H3  UNL     1      -2.007  16.122  16.397  1.00  0.00     0.163 HD
BRANCH  20  22
HETATM   22  C14 UNL     1      -1.971  15.099  14.516  1.00  0.00     0.172 C 
HETATM   23  C15 UNL     1      -3.435  15.331  14.216  1.00  0.00     0.042 C 
BRANCH  22  24
HETATM   24  C16 UNL     1      -1.664  13.698  14.874  1.00  0.00     0.240 C 
HETATM   25  O3  UNL     1      -0.931  13.028  14.114  1.00  0.00    -0.271 OA
HETATM   26  N4  UNL     1      -2.166  13.071  16.049  1.00  0.00    -0.359 N 
ATOM     27  H4  UNL     1      -2.762  13.619  16.669  1.00  0.00     0.162 HD
BRANCH  26  28
HETATM   28  C17 UNL     1      -1.881  11.704  16.415  1.00  0.00     0.127 C 
BRANCH  28  29
HETATM   29  C18 UNL     1      -2.555  11.290  17.685  1.00  0.00     0.003 C 
HETATM   30  C19 UNL     1      -1.628  10.323  18.441  1.00  0.00     0.006 C 
HETATM   31  C20 UNL     1      -2.306   9.197  17.665  1.00  0.00     0.001 C 
HETATM   32  C21 UNL     1      -3.487  10.117  17.463  1.00  0.00     0.006 C 
ENDBRANCH  28  29
ENDBRANCH  26  28
ENDBRANCH  22  24
ENDBRANCH  20  22
ENDBRANCH   1  18
TORSDOF 9
ENDMDL
MODEL 5
REMARK VINA RESULT: -8.200970038      2.121      3.245
REMARK  9 active torsions:
REMARK  status: ('A' for Active; 'I' for Inactive)
REMARK    1  A    between atoms: C2_2  and  C4_4 
REMARK    2  A    between atoms: C4_4  and  C5_5 
REMARK    3  A    between atoms: C5_5  and  N1_6 
REMARK    4  A    between atoms: C5_5  and  C13_18 
REMARK       I    between atoms: N1_6  and  C6_8 
REMARK       I    between atoms: C6_8  and  N2_10 
REMARK    5  A    between atoms: N2_10  and  C7_12 
REMARK       I    between atoms: C13_18  and  N3_20 
REMARK    6  A    between atoms: N3_20  and  C14_22 
REMARK    7  A    between atoms: C14_22  and  C16_24 
REMARK       I    between atoms: C16_24  and  N4_26 
REMARK    8  A    between atoms: N4_26  and  C17_28 
REMARK    9  A    between atoms: C17_28  and  C18_29 
ROOT
HETATM    1  C5  UNL     1       0.751  18.271  16.648  1.00  0.00     0.178 C 
ENDROOT
BRANCH   1   2
HETATM    2  C4  UNL     1       1.139  17.285  17.681  1.00  0.00     0.038 C 
BRANCH   2   3
HETATM    3  C2  UNL     1       2.240  17.613  18.611  1.00  0.00    -0.020 C 
HETATM    4  C1  UNL     1       2.620  19.067  18.709  1.00  0.00     0.009 C 
HETATM    5  C3  UNL     1       1.736  17.218  20.014  1.00  0.00     0.009 C 
ENDBRANCH   2   3
ENDBRANCH   1   2
BRANCH   1   6
HETATM    6  N1  UNL     1       1.030  17.931  15.279  1.00  0.00    -0.330 N 
HETATM    7  C6  UNL     1       2.235  18.236  14.619  1.00  0.00     0.317 C 
HETATM    8  O1  UNL     1       3.130  18.839  15.247  1.00  0.00    -0.247 OA
HETATM    9  N2  UNL     1       2.444  17.876  13.281  1.00  0.00    -0.339 N 
ATOM     10  H2  UNL     1       1.690  17.380  12.806  1.00  0.00     0.164 HD
ATOM     11  H1  UNL     1       0.309  17.437  14.752  1.00  0.00     0.165 HD
BRANCH   9  12
HETATM   12  C7  UNL     1       3.641  18.149  12.522  1.00  0.00     0.086 C 
HETATM   13  C8  UNL     1       4.732  18.485  13.480  1.00  0.00     0.025 C 
HETATM   14  C9  UNL     1       5.954  19.093  12.861  1.00  0.00     0.002 C 
HETATM   15  C10 UNL     1       5.506  20.363  12.145  1.00  0.00     0.000 C 
HETATM   16  C11 UNL     1       4.617  19.901  11.000  1.00  0.00     0.002 C 
HETATM   17  C12 UNL     1       3.396  19.194  11.467  1.00  0.00     0.025 C 
ENDBRANCH   9  12
ENDBRANCH   1   6
BRANCH   1  18
HETATM   18  C13 UNL     1      -0.625  18.809  16.820  1.00  0.00     0.241 C 
HETATM   19  O2  UNL     1      -0.975  19.218  17.960  1.00  0.00    -0.271 OA
HETATM   20  N3  UNL     1      -1.554  18.876  15.750  1.00  0.00    -0.346 N 
ATOM     21  H3  UNL     1      -1.277  18.550  14.824  1.00  0.00     0.163 HD
BRANCH  20  22
HETATM   22  C14 UNL     1      -2.887  19.400  15.951  1.00  0.00     0.172 C 
HETATM   23  C15 UNL     1      -3.844  18.933  14.876  1.00  0.00     0.042 C 
BRANCH  22  24
HETATM   24  C16 UNL     1      -2.853  20.869  16.104  1.00  0.00     0.240 C 
HETATM   25  O3  UNL     1      -2.665  21.577  15.090  1.00  0.00    -0.271 OA
HETATM   26  N4  UNL     1      -3.025  21.523  17.356  1.00  0.00    -0.359 N 
ATOM     27  H4  UNL     1      -3.180  20.944  18.182  1.00  0.00     0.162 HD
BRANCH  26  28
HETATM   28  C17 UNL     1      -2.993  22.955  17.527  1.00  0.00     0.127 C 
BRANCH  28  29
HETATM   29  C18 UNL     1      -1.609  23.519  17.449  1.00  0.00     0.003 C 
HETATM   30  C19 UNL     1      -0.732  22.815  18.499  1.00  0.00     0.006 C 
HETATM   31  C20 UNL     1      -1.167  23.907  19.474  1.00  0.00     0.001 C 
HETATM   32  C21 UNL     1      -1.475  24.779  18.279  1.00  0.00     0.006 C 
ENDBRANCH  28  29
ENDBRANCH  26  28
ENDBRANCH  22  24
ENDBRANCH  20  22
ENDBRANCH   1  18
TORSDOF 9
ENDMDL
