MODEL 1
REMARK VINA RESULT: -8.051794946      0.000      0.000
REMARK  15 active torsions:
REMARK  status: ('A' for Active; 'I' for Inactive)
REMARK    1  A    between atoms: C2_2  and  O2_4 
REMARK    2  A    between atoms: O2_4  and  C3_5 
REMARK    3  A    between atoms: C10_12  and  O3_13 
REMARK    4  A    between atoms: C12_16  and  C13_17 
REMARK    5  A    between atoms: C14_18  and  C15_19 
REMARK    6  A    between atoms: C15_19  and  C16_20 
REMARK    7  A    between atoms: C15_19  and  N1_23 
REMARK    8  A    between atoms: N1_23  and  C19_24 
REMARK    9  A    between atoms: N1_23  and  C21_27 
REMARK   10  A    between atoms: C19_24  and  C20_25 
REMARK   11  A    between atoms: C21_27  and  C22_28 
REMARK   12  A    between atoms: C22_28  and  C23_29 
REMARK   13  A    between atoms: C23_29  and  N2_30 
REMARK   14  A    between atoms: C28_39  and  O4_40 
REMARK   15  A    between atoms: O4_40  and  C29_41 
ROOT
HETATM    1  C3  UNL     1      18.648  34.839  38.839  1.00  0.00     0.138 C 
HETATM    2  C4  UNL     1      19.954  34.530  38.138  1.00  0.00     0.067 C 
HETATM    3  C5  UNL     1      19.786  33.275  37.376  1.00  0.00    -0.070 C 
HETATM    4  C6  UNL     1      20.698  32.390  37.732  1.00  0.00    -0.023 C 
HETATM    5  C7  UNL     1      20.850  31.022  37.195  1.00  0.00     0.035 C 
HETATM    6  C8  UNL     1      20.965  31.051  35.693  1.00  0.00     0.036 C 
HETATM    7  C9  UNL     1      21.988  32.052  35.325  1.00  0.00     0.044 C 
HETATM    8  C10 UNL     1      21.971  32.539  33.935  1.00  0.00     0.142 C 
HETATM    9  C11 UNL     1      20.877  32.082  33.113  1.00  0.00     0.015 C 
HETATM   10  C12 UNL     1      19.800  31.476  33.544  1.00  0.00    -0.020 C 
HETATM   11  C24 UNL     1      19.641  31.188  34.985  1.00  0.00     0.135 C 
HETATM   12  F1  UNL     1      19.194  29.823  34.952  1.00  0.00    -0.237 F 
HETATM   13  C25 UNL     1      18.557  31.871  35.689  1.00  0.00     0.065 C 
HETATM   14  C26 UNL     1      18.707  33.141  36.398  1.00  0.00     0.009 C 
HETATM   15  C27 UNL     1      18.630  34.366  35.506  1.00  0.00     0.023 C 
HETATM   16  C28 UNL     1      17.437  33.282  37.280  1.00  0.00     0.146 C 
HETATM   17  C31 UNL     1      17.446  34.637  37.962  1.00  0.00     0.066 C 
ENDROOT
BRANCH  10  18
HETATM   18  C13 UNL     1      18.816  31.098  32.550  1.00  0.00     0.008 C 
HETATM   19  C14 UNL     1      18.863  30.165  31.632  1.00  0.00     0.009 C 
BRANCH  19  20
HETATM   20  C15 UNL     1      17.799  29.881  30.677  1.00  0.00     0.249 C 
BRANCH  20  21
HETATM   21  C16 UNL     1      17.408  28.405  30.600  1.00  0.00     0.014 C 
HETATM   22  C17 UNL     1      17.756  27.625  31.816  1.00  0.00     0.012 C 
HETATM   23  C18 UNL     1      15.884  28.353  30.425  1.00  0.00     0.012 C 
ENDBRANCH  20  21
BRANCH  20  24
HETATM   24  N1  UNL     1      17.870  30.361  29.350  1.00  0.00     0.098 N 
BRANCH  24  25
HETATM   25  C19 UNL     1      19.037  30.171  28.596  1.00  0.00     0.288 C 
BRANCH  25  26
HETATM   26  C20 UNL     1      19.002  29.844  27.167  1.00  0.00     0.145 C 
HETATM   27 CL1  UNL     1      17.551  28.764  26.952  1.00  0.00    -0.129 Cl
ENDBRANCH  25  26
ENDBRANCH  24  25
BRANCH  24  28
HETATM   28  C21 UNL     1      17.348  31.734  29.254  1.00  0.00     0.275 C 
BRANCH  28  29
HETATM   29  C22 UNL     1      16.033  31.766  28.537  1.00  0.00     0.057 C 
BRANCH  29  30
HETATM   30  C23 UNL     1      16.209  32.303  27.116  1.00  0.00     0.231 C 
BRANCH  30  31
HETATM   31  N2  UNL     1      16.161  33.735  27.107  1.00  0.00    -0.079 N 
ATOM     32  H23 UNL     1      15.205  34.081  27.187  1.00  0.00     0.274 HD
ATOM     33  H22 UNL     1      16.541  34.132  27.966  1.00  0.00     0.274 HD
ATOM     34  H21 UNL     1      16.629  34.106  26.279  1.00  0.00     0.274 HD
ENDBRANCH  30  31
ENDBRANCH  29  30
ENDBRANCH  28  29
ENDBRANCH  24  28
ENDBRANCH  20  24
ENDBRANCH  19  20
ENDBRANCH  10  18
BRANCH   8  35
HETATM   35  O3  UNL     1      21.998  33.962  33.874  1.00  0.00    -0.392 OA
ATOM     36  H3  UNL     1      21.172  34.316  33.568  1.00  0.00     0.210 HD
ENDBRANCH   8  35
BRANCH  16  37
HETATM   37  O4  UNL     1      16.259  33.124  36.572  1.00  0.00    -0.315 OA
BRANCH  37  38
HETATM   38  C29 UNL     1      15.095  32.787  37.255  1.00  0.00     0.255 C 
HETATM   39  C30 UNL     1      13.743  32.818  36.665  1.00  0.00     0.126 C 
HETATM   40  O5  UNL     1      15.140  32.420  38.480  1.00  0.00    -0.266 OA
ENDBRANCH  37  38
ENDBRANCH  16  37
BRANCH   1  41
HETATM   41  O2  UNL     1      18.549  34.096  40.046  1.00  0.00    -0.316 OA
BRANCH  41  42
HETATM   42  C2  UNL     1      17.572  34.354  41.004  1.00  0.00     0.255 C 
HETATM   43  C1  UNL     1      16.731  33.289  41.587  1.00  0.00     0.126 C 
HETATM   44  O1  UNL     1      17.380  35.541  41.405  1.00  0.00    -0.266 OA
ENDBRANCH  41  42
ENDBRANCH   1  41
TORSDOF 15
ENDMDL
MODEL 2
REMARK VINA RESULT: -7.872086958      1.340      1.796
REMARK  15 active torsions:
REMARK  status: ('A' for Active; 'I' for Inactive)
REMARK    1  A    between atoms: C2_2  and  O2_4 
REMARK    2  A    between atoms: O2_4  and  C3_5 
REMARK    3  A    between atoms: C10_12  and  O3_13 
REMARK    4  A    between atoms: C12_16  and  C13_17 
REMARK    5  A    between atoms: C14_18  and  C15_19 
REMARK    6  A    between atoms: C15_19  and  C16_20 
REMARK    7  A    between atoms: C15_19  and  N1_23 
REMARK    8  A    between atoms: N1_23  and  C19_24 
REMARK    9  A    between atoms: N1_23  and  C21_27 
REMARK   10  A    between atoms: C19_24  and  C20_25 
REMARK   11  A    between atoms: C21_27  and  C22_28 
REMARK   12  A    between atoms: C22_28  and  C23_29 
REMARK   13  A    between atoms: C23_29  and  N2_30 
REMARK   14  A    between atoms: C28_39  and  O4_40 
REMARK   15  A    between atoms: O4_40  and  C29_41 
ROOT
HETATM    1  C3  UNL     1      18.465  34.716  38.814  1.00  0.00     0.138 C 
HETATM    2  C4  UNL     1      19.838  34.505  38.210  1.00  0.00     0.067 C 
HETATM    3  C5  UNL     1      19.807  33.261  37.412  1.00  0.00    -0.070 C 
HETATM    4  C6  UNL     1      20.743  32.425  37.820  1.00  0.00    -0.023 C 
HETATM    5  C7  UNL     1      21.020  31.083  37.268  1.00  0.00     0.035 C 
HETATM    6  C8  UNL     1      21.249  31.157  35.780  1.00  0.00     0.036 C 
HETATM    7  C9  UNL     1      22.231  32.227  35.514  1.00  0.00     0.044 C 
HETATM    8  C10 UNL     1      22.291  32.747  34.137  1.00  0.00     0.142 C 
HETATM    9  C11 UNL     1      21.294  32.246  33.223  1.00  0.00     0.015 C 
HETATM   10  C12 UNL     1      20.227  31.565  33.557  1.00  0.00    -0.020 C 
HETATM   11  C24 UNL     1      19.976  31.230  34.974  1.00  0.00     0.135 C 
HETATM   12  F1  UNL     1      19.619  29.842  34.878  1.00  0.00    -0.237 F 
HETATM   13  C25 UNL     1      18.801  31.828  35.606  1.00  0.00     0.065 C 
HETATM   14  C26 UNL     1      18.817  33.087  36.350  1.00  0.00     0.009 C 
HETATM   15  C27 UNL     1      18.731  34.327  35.480  1.00  0.00     0.023 C 
HETATM   16  C28 UNL     1      17.477  33.128  37.133  1.00  0.00     0.146 C 
HETATM   17  C31 UNL     1      17.349  34.464  37.842  1.00  0.00     0.066 C 
ENDROOT
BRANCH  10  18
HETATM   18  C13 UNL     1      19.347  31.152  32.481  1.00  0.00     0.008 C 
HETATM   19  C14 UNL     1      19.507  30.223  31.572  1.00  0.00     0.009 C 
BRANCH  19  20
HETATM   20  C15 UNL     1      18.541  29.902  30.529  1.00  0.00     0.249 C 
BRANCH  20  21
HETATM   21  C16 UNL     1      19.171  29.421  29.222  1.00  0.00     0.014 C 
HETATM   22  C17 UNL     1      20.657  29.395  29.243  1.00  0.00     0.012 C 
HETATM   23  C18 UNL     1      18.676  27.987  28.985  1.00  0.00     0.012 C 
ENDBRANCH  20  21
BRANCH  20  24
HETATM   24  N1  UNL     1      17.517  30.812  30.186  1.00  0.00     0.098 N 
BRANCH  24  25
HETATM   25  C19 UNL     1      16.195  30.563  30.582  1.00  0.00     0.288 C 
BRANCH  25  26
HETATM   26  C20 UNL     1      15.869  29.761  31.767  1.00  0.00     0.145 C 
HETATM   27 CL1  UNL     1      15.950  30.917  33.173  1.00  0.00    -0.129 Cl
ENDBRANCH  25  26
ENDBRANCH  24  25
BRANCH  24  28
HETATM   28  C21 UNL     1      17.620  31.222  28.777  1.00  0.00     0.275 C 
BRANCH  28  29
HETATM   29  C22 UNL     1      16.300  31.702  28.253  1.00  0.00     0.057 C 
BRANCH  29  30
HETATM   30  C23 UNL     1      16.481  32.401  26.905  1.00  0.00     0.231 C 
BRANCH  30  31
HETATM   31  N2  UNL     1      16.084  33.775  26.990  1.00  0.00    -0.079 N 
ATOM     32  H23 UNL     1      15.549  34.065  26.172  1.00  0.00     0.274 HD
ATOM     33  H22 UNL     1      15.366  33.918  27.701  1.00  0.00     0.274 HD
ATOM     34  H21 UNL     1      16.894  34.376  27.144  1.00  0.00     0.274 HD
ENDBRANCH  30  31
ENDBRANCH  29  30
ENDBRANCH  28  29
ENDBRANCH  24  28
ENDBRANCH  20  24
ENDBRANCH  19  20
ENDBRANCH  10  18
BRANCH   8  35
HETATM   35  O3  UNL     1      22.233  34.170  34.107  1.00  0.00    -0.392 OA
ATOM     36  H3  UNL     1      23.065  34.550  33.852  1.00  0.00     0.210 HD
ENDBRANCH   8  35
BRANCH  16  37
HETATM   37  O4  UNL     1      16.368  32.917  36.333  1.00  0.00    -0.315 OA
BRANCH  37  38
HETATM   38  C29 UNL     1      15.156  32.580  36.925  1.00  0.00     0.255 C 
HETATM   39  C30 UNL     1      13.835  32.795  36.303  1.00  0.00     0.126 C 
HETATM   40  O5  UNL     1      15.123  32.047  38.088  1.00  0.00    -0.266 OA
ENDBRANCH  37  38
ENDBRANCH  16  37
BRANCH   1  41
HETATM   41  O2  UNL     1      18.321  33.938  39.994  1.00  0.00    -0.316 OA
BRANCH  41  42
HETATM   42  C2  UNL     1      17.367  34.227  40.967  1.00  0.00     0.255 C 
HETATM   43  C1  UNL     1      16.531  33.183  41.592  1.00  0.00     0.126 C 
HETATM   44  O1  UNL     1      17.194  35.424  41.343  1.00  0.00    -0.266 OA
ENDBRANCH  41  42
ENDBRANCH   1  41
TORSDOF 15
ENDMDL
MODEL 3
REMARK VINA RESULT: -7.772655369      1.133      1.624
REMARK  15 active torsions:
REMARK  status: ('A' for Active; 'I' for Inactive)
REMARK    1  A    between atoms: C2_2  and  O2_4 
REMARK    2  A    between atoms: O2_4  and  C3_5 
REMARK    3  A    between atoms: C10_12  and  O3_13 
REMARK    4  A    between atoms: C12_16  and  C13_17 
REMARK    5  A    between atoms: C14_18  and  C15_19 
REMARK    6  A    between atoms: C15_19  and  C16_20 
REMARK    7  A    between atoms: C15_19  and  N1_23 
REMARK    8  A    between atoms: N1_23  and  C19_24 
REMARK    9  A    between atoms: N1_23  and  C21_27 
REMARK   10  A    between atoms: C19_24  and  C20_25 
REMARK   11  A    between atoms: C21_27  and  C22_28 
REMARK   12  A    between atoms: C22_28  and  C23_29 
REMARK   13  A    between atoms: C23_29  and  N2_30 
REMARK   14  A    between atoms: C28_39  and  O4_40 
REMARK   15  A    between atoms: O4_40  and  C29_41 
ROOT
HETATM    1  C3  UNL     1      18.542  34.745  38.940  1.00  0.00     0.138 C 
HETATM    2  C4  UNL     1      19.857  34.425  38.259  1.00  0.00     0.067 C 
HETATM    3  C5  UNL     1      19.667  33.217  37.428  1.00  0.00    -0.070 C 
HETATM    4  C6  UNL     1      20.537  32.283  37.762  1.00  0.00    -0.023 C 
HETATM    5  C7  UNL     1      20.656  30.940  37.157  1.00  0.00     0.035 C 
HETATM    6  C8  UNL     1      20.816  31.043  35.662  1.00  0.00     0.036 C 
HETATM    7  C9  UNL     1      21.883  32.024  35.376  1.00  0.00     0.044 C 
HETATM    8  C10 UNL     1      21.924  32.582  34.014  1.00  0.00     0.142 C 
HETATM    9  C11 UNL     1      20.840  32.209  33.139  1.00  0.00     0.015 C 
HETATM   10  C12 UNL     1      19.730  31.621  33.508  1.00  0.00    -0.020 C 
HETATM   11  C24 UNL     1      19.518  31.264  34.927  1.00  0.00     0.135 C 
HETATM   12  F1  UNL     1      19.025  29.920  34.809  1.00  0.00    -0.237 F 
HETATM   13  C25 UNL     1      18.439  31.949  35.636  1.00  0.00     0.065 C 
HETATM   14  C26 UNL     1      18.613  33.174  36.415  1.00  0.00     0.009 C 
HETATM   15  C27 UNL     1      18.604  34.445  35.587  1.00  0.00     0.023 C 
HETATM   16  C28 UNL     1      17.323  33.316  37.269  1.00  0.00     0.146 C 
HETATM   17  C31 UNL     1      17.360  34.632  38.021  1.00  0.00     0.066 C 
ENDROOT
BRANCH  10  18
HETATM   18  C13 UNL     1      18.762  31.330  32.469  1.00  0.00     0.008 C 
HETATM   19  C14 UNL     1      18.847  30.521  31.443  1.00  0.00     0.009 C 
BRANCH  19  20
HETATM   20  C15 UNL     1      17.796  30.316  30.454  1.00  0.00     0.249 C 
BRANCH  20  21
HETATM   21  C16 UNL     1      17.463  28.848  30.192  1.00  0.00     0.014 C 
HETATM   22  C17 UNL     1      18.313  27.892  30.950  1.00  0.00     0.012 C 
HETATM   23  C18 UNL     1      16.007  28.632  30.627  1.00  0.00     0.012 C 
ENDBRANCH  20  21
BRANCH  20  24
HETATM   24  N1  UNL     1      17.849  30.960  29.197  1.00  0.00     0.098 N 
BRANCH  24  25
HETATM   25  C19 UNL     1      16.924  31.967  28.886  1.00  0.00     0.288 C 
BRANCH  25  26
HETATM   26  C20 UNL     1      16.017  31.870  27.736  1.00  0.00     0.145 C 
HETATM   27 CL1  UNL     1      16.552  33.177  26.585  1.00  0.00    -0.129 Cl
ENDBRANCH  25  26
ENDBRANCH  24  25
BRANCH  24  28
HETATM   28  C21 UNL     1      18.017  29.986  28.108  1.00  0.00     0.275 C 
BRANCH  28  29
HETATM   29  C22 UNL     1      19.317  30.192  27.392  1.00  0.00     0.057 C 
BRANCH  29  30
HETATM   30  C23 UNL     1      19.071  30.562  25.928  1.00  0.00     0.231 C 
BRANCH  30  31
HETATM   31  N2  UNL     1      20.298  30.932  25.286  1.00  0.00    -0.079 N 
ATOM     32  H23 UNL     1      21.044  31.093  25.962  1.00  0.00     0.274 HD
ATOM     33  H22 UNL     1      20.713  30.147  24.783  1.00  0.00     0.274 HD
ATOM     34  H21 UNL     1      20.157  31.739  24.679  1.00  0.00     0.274 HD
ENDBRANCH  30  31
ENDBRANCH  29  30
ENDBRANCH  28  29
ENDBRANCH  24  28
ENDBRANCH  20  24
ENDBRANCH  19  20
ENDBRANCH  10  18
BRANCH   8  35
HETATM   35  O3  UNL     1      22.003  34.004  34.028  1.00  0.00    -0.392 OA
ATOM     36  H3  UNL     1      21.301  34.389  34.540  1.00  0.00     0.210 HD
ENDBRANCH   8  35
BRANCH  16  37
HETATM   37  O4  UNL     1      16.162  33.238  36.521  1.00  0.00    -0.315 OA
BRANCH  37  38
HETATM   38  C29 UNL     1      15.014  32.706  37.101  1.00  0.00     0.255 C 
HETATM   39  C30 UNL     1      13.660  32.821  36.528  1.00  0.00     0.126 C 
HETATM   40  O5  UNL     1      15.079  32.067  38.208  1.00  0.00    -0.266 OA
ENDBRANCH  37  38
ENDBRANCH  16  37
BRANCH   1  41
HETATM   41  O2  UNL     1      18.383  33.944  40.103  1.00  0.00    -0.316 OA
BRANCH  41  42
HETATM   42  C2  UNL     1      17.420  34.219  41.072  1.00  0.00     0.255 C 
HETATM   43  C1  UNL     1      16.499  33.187  41.590  1.00  0.00     0.126 C 
HETATM   44  O1  UNL     1      17.315  35.391  41.540  1.00  0.00    -0.266 OA
ENDBRANCH  41  42
ENDBRANCH   1  41
TORSDOF 15
ENDMDL
MODEL 4
REMARK VINA RESULT: -7.734827556      5.455      9.976
REMARK  15 active torsions:
REMARK  status: ('A' for Active; 'I' for Inactive)
REMARK    1  A    between atoms: C2_2  and  O2_4 
REMARK    2  A    between atoms: O2_4  and  C3_5 
REMARK    3  A    between atoms: C10_12  and  O3_13 
REMARK    4  A    between atoms: C12_16  and  C13_17 
REMARK    5  A    between atoms: C14_18  and  C15_19 
REMARK    6  A    between atoms: C15_19  and  C16_20 
REMARK    7  A    between atoms: C15_19  and  N1_23 
REMARK    8  A    between atoms: N1_23  and  C19_24 
REMARK    9  A    between atoms: N1_23  and  C21_27 
REMARK   10  A    between atoms: C19_24  and  C20_25 
REMARK   11  A    between atoms: C21_27  and  C22_28 
REMARK   12  A    between atoms: C22_28  and  C23_29 
REMARK   13  A    between atoms: C23_29  and  N2_30 
REMARK   14  A    between atoms: C28_39  and  O4_40 
REMARK   15  A    between atoms: O4_40  and  C29_41 
ROOT
HETATM    1  C3  UNL     1      18.218  31.227  33.461  1.00  0.00     0.138 C 
HETATM    2  C4  UNL     1      19.439  31.799  34.152  1.00  0.00     0.067 C 
HETATM    3  C5  UNL     1      18.984  32.781  35.159  1.00  0.00    -0.070 C 
HETATM    4  C6  UNL     1      19.547  33.956  34.950  1.00  0.00    -0.023 C 
HETATM    5  C7  UNL     1      19.339  35.182  35.746  1.00  0.00     0.035 C 
HETATM    6  C8  UNL     1      19.614  34.923  37.205  1.00  0.00     0.036 C 
HETATM    7  C9  UNL     1      20.921  34.244  37.316  1.00  0.00     0.044 C 
HETATM    8  C10 UNL     1      21.196  33.536  38.578  1.00  0.00     0.142 C 
HETATM    9  C11 UNL     1      20.109  33.472  39.523  1.00  0.00     0.015 C 
HETATM   10  C12 UNL     1      18.861  33.776  39.271  1.00  0.00    -0.020 C 
HETATM   11  C24 UNL     1      18.472  34.254  37.927  1.00  0.00     0.135 C 
HETATM   12  F1  UNL     1      17.645  35.380  38.256  1.00  0.00    -0.237 F 
HETATM   13  C25 UNL     1      17.575  33.403  37.148  1.00  0.00     0.065 C 
HETATM   14  C26 UNL     1      18.022  32.392  36.190  1.00  0.00     0.009 C 
HETATM   15  C27 UNL     1      18.408  31.066  36.819  1.00  0.00     0.023 C 
HETATM   16  C28 UNL     1      16.767  32.021  35.355  1.00  0.00     0.146 C 
HETATM   17  C31 UNL     1      17.110  30.882  34.413  1.00  0.00     0.066 C 
ENDROOT
BRANCH  10  18
HETATM   18  C13 UNL     1      17.918  33.643  40.364  1.00  0.00     0.008 C 
HETATM   19  C14 UNL     1      17.528  34.524  41.251  1.00  0.00     0.009 C 
BRANCH  19  20
HETATM   20  C15 UNL     1      16.566  34.266  42.316  1.00  0.00     0.249 C 
BRANCH  20  21
HETATM   21  C16 UNL     1      15.269  33.613  41.840  1.00  0.00     0.014 C 
HETATM   22  C17 UNL     1      15.109  33.597  40.362  1.00  0.00     0.012 C 
HETATM   23  C18 UNL     1      15.293  32.158  42.329  1.00  0.00     0.012 C 
ENDBRANCH  20  21
BRANCH  20  24
HETATM   24  N1  UNL     1      16.209  35.282  43.231  1.00  0.00     0.098 N 
BRANCH  24  25
HETATM   25  C19 UNL     1      16.468  35.117  44.599  1.00  0.00     0.288 C 
BRANCH  25  26
HETATM   26  C20 UNL     1      17.703  35.600  45.227  1.00  0.00     0.145 C 
HETATM   27 CL1  UNL     1      17.621  37.416  45.124  1.00  0.00    -0.129 Cl
ENDBRANCH  25  26
ENDBRANCH  24  25
BRANCH  24  28
HETATM   28  C21 UNL     1      14.851  35.781  42.965  1.00  0.00     0.275 C 
BRANCH  28  29
HETATM   29  C22 UNL     1      14.171  36.204  44.232  1.00  0.00     0.057 C 
BRANCH  29  30
HETATM   30  C23 UNL     1      13.463  37.546  44.038  1.00  0.00     0.231 C 
BRANCH  30  31
HETATM   31  N2  UNL     1      14.416  38.604  43.884  1.00  0.00    -0.079 N 
ATOM     32  H23 UNL     1      15.365  38.246  43.782  1.00  0.00     0.274 HD
ATOM     33  H22 UNL     1      14.328  39.063  42.977  1.00  0.00     0.274 HD
ATOM     34  H21 UNL     1      14.344  39.270  44.653  1.00  0.00     0.274 HD
ENDBRANCH  30  31
ENDBRANCH  29  30
ENDBRANCH  28  29
ENDBRANCH  24  28
ENDBRANCH  20  24
ENDBRANCH  19  20
ENDBRANCH  10  18
BRANCH   8  35
HETATM   35  O3  UNL     1      21.653  32.206  38.349  1.00  0.00    -0.392 OA
ATOM     36  H3  UNL     1      21.421  31.627  39.064  1.00  0.00     0.210 HD
ENDBRANCH   8  35
BRANCH  16  37
HETATM   37  O4  UNL     1      15.677  31.672  36.131  1.00  0.00    -0.315 OA
BRANCH  37  38
HETATM   38  C29 UNL     1      14.441  32.253  35.868  1.00  0.00     0.255 C 
HETATM   39  C30 UNL     1      13.631  32.980  36.864  1.00  0.00     0.126 C 
HETATM   40  O5  UNL     1      13.921  32.180  34.700  1.00  0.00    -0.266 OA
ENDBRANCH  37  38
ENDBRANCH  16  37
BRANCH   1  41
HETATM   41  O2  UNL     1      17.777  32.105  32.435  1.00  0.00    -0.316 OA
BRANCH  41  42
HETATM   42  C2  UNL     1      17.697  31.714  31.101  1.00  0.00     0.255 C 
HETATM   43  C1  UNL     1      17.791  30.301  30.681  1.00  0.00     0.126 C 
HETATM   44  O1  UNL     1      17.537  32.587  30.197  1.00  0.00    -0.266 OA
ENDBRANCH  41  42
ENDBRANCH   1  41
TORSDOF 15
ENDMDL
MODEL 5
REMARK VINA RESULT: -7.437468993      1.640      2.673
REMARK  15 active torsions:
REMARK  status: ('A' for Active; 'I' for Inactive)
REMARK    1  A    between atoms: C2_2  and  O2_4 
REMARK    2  A    between atoms: O2_4  and  C3_5 
REMARK    3  A    between atoms: C10_12  and  O3_13 
REMARK    4  A    between atoms: C12_16  and  C13_17 
REMARK    5  A    between atoms: C14_18  and  C15_19 
REMARK    6  A    between atoms: C15_19  and  C16_20 
REMARK    7  A    between atoms: C15_19  and  N1_23 
REMARK    8  A    between atoms: N1_23  and  C19_24 
REMARK    9  A    between atoms: N1_23  and  C21_27 
REMARK   10  A    between atoms: C19_24  and  C20_25 
REMARK   11  A    between atoms: C21_27  and  C22_28 
REMARK   12  A    between atoms: C22_28  and  C23_29 
REMARK   13  A    between atoms: C23_29  and  N2_30 
REMARK   14  A    between atoms: C28_39  and  O4_40 
REMARK   15  A    between atoms: O4_40  and  C29_41 
ROOT
HETATM    1  C3  UNL     1      18.227  34.981  38.995  1.00  0.00     0.138 C 
HETATM    2  C4  UNL     1      19.594  35.015  38.343  1.00  0.00     0.067 C 
HETATM    3  C5  UNL     1      19.852  33.691  37.738  1.00  0.00    -0.070 C 
HETATM    4  C6  UNL     1      20.976  33.179  38.203  1.00  0.00    -0.023 C 
HETATM    5  C7  UNL     1      21.563  31.875  37.836  1.00  0.00     0.035 C 
HETATM    6  C8  UNL     1      21.728  31.768  36.342  1.00  0.00     0.036 C 
HETATM    7  C9  UNL     1      22.408  32.988  35.861  1.00  0.00     0.044 C 
HETATM    8  C10 UNL     1      22.302  33.284  34.423  1.00  0.00     0.142 C 
HETATM    9  C11 UNL     1      21.438  32.421  33.656  1.00  0.00     0.015 C 
HETATM   10  C12 UNL     1      20.582  31.564  34.152  1.00  0.00    -0.020 C 
HETATM   11  C24 UNL     1      20.457  31.405  35.616  1.00  0.00     0.135 C 
HETATM   12  F1  UNL     1      20.453  29.975  35.746  1.00  0.00    -0.237 F 
HETATM   13  C25 UNL     1      19.187  31.794  36.227  1.00  0.00     0.065 C 
HETATM   14  C26 UNL     1      18.909  33.120  36.778  1.00  0.00     0.009 C 
HETATM   15  C27 UNL     1      18.497  34.150  35.743  1.00  0.00     0.023 C 
HETATM   16  C28 UNL     1      17.621  32.959  37.629  1.00  0.00     0.146 C 
HETATM   17  C31 UNL     1      17.184  34.318  38.142  1.00  0.00     0.066 C 
ENDROOT
BRANCH  10  18
HETATM   18  C13 UNL     1      19.805  30.788  33.206  1.00  0.00     0.008 C 
HETATM   19  C14 UNL     1      18.728  31.113  32.534  1.00  0.00     0.009 C 
BRANCH  19  20
HETATM   20  C15 UNL     1      18.028  30.234  31.605  1.00  0.00     0.249 C 
BRANCH  20  21
HETATM   21  C16 UNL     1      16.553  30.018  31.943  1.00  0.00     0.014 C 
HETATM   22  C17 UNL     1      16.076  30.819  33.100  1.00  0.00     0.012 C 
HETATM   23  C18 UNL     1      15.743  30.440  30.709  1.00  0.00     0.012 C 
ENDBRANCH  20  21
BRANCH  20  24
HETATM   24  N1  UNL     1      18.564  28.974  31.258  1.00  0.00     0.098 N 
BRANCH  24  25
HETATM   25  C19 UNL     1      18.971  28.723  29.940  1.00  0.00     0.288 C 
BRANCH  25  26
HETATM   26  C20 UNL     1      18.892  29.742  28.888  1.00  0.00     0.145 C 
HETATM   27 CL1  UNL     1      17.551  29.195  27.783  1.00  0.00    -0.129 Cl
ENDBRANCH  25  26
ENDBRANCH  24  25
BRANCH  24  28
HETATM   28  C21 UNL     1      17.757  27.880  31.822  1.00  0.00     0.275 C 
BRANCH  28  29
HETATM   29  C22 UNL     1      17.530  26.797  30.811  1.00  0.00     0.057 C 
BRANCH  29  30
HETATM   30  C23 UNL     1      17.552  25.423  31.483  1.00  0.00     0.231 C 
BRANCH  30  31
HETATM   31  N2  UNL     1      18.849  25.146  32.026  1.00  0.00    -0.079 N 
ATOM     32  H23 UNL     1      19.572  25.715  31.585  1.00  0.00     0.274 HD
ATOM     33  H22 UNL     1      18.942  25.493  32.981  1.00  0.00     0.274 HD
ATOM     34  H21 UNL     1      19.061  24.150  31.963  1.00  0.00     0.274 HD
ENDBRANCH  30  31
ENDBRANCH  29  30
ENDBRANCH  28  29
ENDBRANCH  24  28
ENDBRANCH  20  24
ENDBRANCH  19  20
ENDBRANCH  10  18
BRANCH   8  35
HETATM   35  O3  UNL     1      21.893  34.629  34.190  1.00  0.00    -0.392 OA
ATOM     36  H3  UNL     1      22.581  35.140  33.783  1.00  0.00     0.210 HD
ENDBRANCH   8  35
BRANCH  16  37
HETATM   37  O4  UNL     1      16.580  32.364  36.939  1.00  0.00    -0.315 OA
BRANCH  37  38
HETATM   38  C29 UNL     1      15.276  32.539  37.392  1.00  0.00     0.255 C 
HETATM   39  C30 UNL     1      14.123  32.836  36.521  1.00  0.00     0.126 C 
HETATM   40  O5  UNL     1      15.001  32.451  38.639  1.00  0.00    -0.266 OA
ENDBRANCH  37  38
ENDBRANCH  16  37
BRANCH   1  41
HETATM   41  O2  UNL     1      18.310  34.386  40.282  1.00  0.00    -0.316 OA
BRANCH  41  42
HETATM   42  C2  UNL     1      17.371  34.632  41.280  1.00  0.00     0.255 C 
HETATM   43  C1  UNL     1      16.527  33.566  41.856  1.00  0.00     0.126 C 
HETATM   44  O1  UNL     1      17.218  35.808  41.726  1.00  0.00    -0.266 OA
ENDBRANCH  41  42
ENDBRANCH   1  41
TORSDOF 15
ENDMDL
