MODEL 1
REMARK VINA RESULT: -7.861796841      0.000      0.000
REMARK  15 active torsions:
REMARK  status: ('A' for Active; 'I' for Inactive)
REMARK    1  A    between atoms: C2_2  and  O1_3 
REMARK    2  A    between atoms: O1_3  and  C3_4 
REMARK    3  A    between atoms: C3_4  and  C4_6 
REMARK    4  A    between atoms: C4_6  and  N1_8 
REMARK    5  A    between atoms: N1_8  and  C6_9 
REMARK    6  A    between atoms: N1_8  and  C13_17 
REMARK    7  A    between atoms: C6_9  and  C7_10 
REMARK    8  A    between atoms: C7_10  and  C8_11 
REMARK    9  A    between atoms: C8_11  and  N2_12 
REMARK   10  A    between atoms: N2_12  and  C9_13 
REMARK   11  A    between atoms: N2_12  and  C11_15 
REMARK   12  A    between atoms: C13_17  and  O3_18 
REMARK   13  A    between atoms: C13_17  and  C14_20 
REMARK   14  A    between atoms: C17_25  and  N4_26 
REMARK   15  A    between atoms: N4_26  and  C18_28 
ROOT
HETATM    1  C14 UNL     1      16.439  32.309  36.473  1.00  0.00     0.043 C 
HETATM    2  C15 UNL     1      15.377  32.480  35.604  1.00  0.00     0.035 C 
HETATM    3  C16 UNL     1      14.095  33.132  36.052  1.00  0.00     0.069 C 
HETATM    4  N3  UNL     1      15.302  31.902  34.306  1.00  0.00    -0.196 N 
ATOM      5  H3  UNL     1      14.479  32.095  33.734  1.00  0.00     0.184 HD
HETATM    6  C17 UNL     1      16.207  31.160  33.827  1.00  0.00     0.675 C 
HETATM    7  N5  UNL     1      17.283  30.892  34.707  1.00  0.00    -0.213 N 
ATOM      8  H5  UNL     1      17.815  30.025  34.644  1.00  0.00     0.178 HD
HETATM    9  C27 UNL     1      17.606  31.910  35.713  1.00  0.00     0.073 C 
HETATM   10  C28 UNL     1      17.924  33.193  34.818  1.00  0.00     0.044 C 
HETATM   11  C29 UNL     1      18.917  31.551  36.215  1.00  0.00     0.044 C 
ENDROOT
BRANCH   1  12
HETATM   12  C13 UNL     1      16.253  32.757  37.815  1.00  0.00     0.149 C 
BRANCH  12  13
HETATM   13  N1  UNL     1      16.381  33.867  38.639  1.00  0.00    -0.348 N 
BRANCH  13  14
HETATM   14  C4  UNL     1      17.507  34.728  38.761  1.00  0.00     0.182 C 
HETATM   15  C5  UNL     1      17.945  35.396  37.464  1.00  0.00     0.043 C 
BRANCH  14  16
HETATM   16  C3  UNL     1      18.702  34.002  39.354  1.00  0.00     0.281 C 
HETATM   17  O2  UNL     1      18.729  33.853  40.582  1.00  0.00    -0.263 OA
BRANCH  16  18
HETATM   18  O1  UNL     1      19.709  33.532  38.570  1.00  0.00    -0.320 OA
BRANCH  18  19
HETATM   19  C2  UNL     1      21.080  33.547  38.913  1.00  0.00     0.174 C 
HETATM   20  C1  UNL     1      21.823  32.328  38.453  1.00  0.00     0.034 C 
ENDBRANCH  18  19
ENDBRANCH  16  18
ENDBRANCH  14  16
ENDBRANCH  13  14
BRANCH  13  21
HETATM   21  C6  UNL     1      15.225  34.185  39.535  1.00  0.00     0.127 C 
BRANCH  21  22
HETATM   22  C7  UNL     1      15.518  34.868  40.787  1.00  0.00     0.050 C 
BRANCH  22  23
HETATM   23  C8  UNL     1      15.694  34.112  42.049  1.00  0.00     0.274 C 
BRANCH  23  24
HETATM   24  N2  UNL     1      15.721  35.009  43.194  1.00  0.00     0.087 N 
BRANCH  24  25
HETATM   25  C9  UNL     1      16.926  35.734  43.377  1.00  0.00     0.268 C 
HETATM   26  C10 UNL     1      17.317  35.590  44.847  1.00  0.00     0.037 C 
ENDBRANCH  24  25
BRANCH  24  27
HETATM   27  C11 UNL     1      15.173  34.416  44.372  1.00  0.00     0.268 C 
HETATM   28  C12 UNL     1      14.758  32.975  44.207  1.00  0.00     0.037 C 
ENDBRANCH  24  27
ENDBRANCH  23  24
ENDBRANCH  22  23
ENDBRANCH  21  22
ENDBRANCH  13  21
ENDBRANCH  12  13
BRANCH  12  29
HETATM   29  O3  UNL     1      15.785  31.783  38.633  1.00  0.00    -0.346 OA
ATOM     30  H3  UNL     1      14.862  31.985  38.735  1.00  0.00     0.219 HD
ENDBRANCH  12  29
ENDBRANCH   1  12
BRANCH   6  31
HETATM   31  N4  UNL     1      16.205  30.551  32.544  1.00  0.00    -0.222 N 
ATOM     32  H4  UNL     1      15.411  30.694  31.920  1.00  0.00     0.178 HD
BRANCH  31  33
HETATM   33  C18 UNL     1      17.308  29.732  32.113  1.00  0.00     0.103 C 
HETATM   34  C19 UNL     1      16.824  28.450  31.489  1.00  0.00     0.069 C 
HETATM   35  C20 UNL     1      17.742  28.186  30.311  1.00  0.00     0.122 C 
HETATM   36 CL1  UNL     1      16.893  27.208  29.116  1.00  0.00    -0.101 Cl
HETATM   37 CL2  UNL     1      19.238  27.371  30.832  1.00  0.00    -0.101 Cl
HETATM   38  C21 UNL     1      18.036  29.582  29.828  1.00  0.00    -0.003 C 
HETATM   39  C22 UNL     1      19.319  29.692  29.057  1.00  0.00     0.012 C 
HETATM   40  C25 UNL     1      16.942  30.045  28.919  1.00  0.00     0.012 C 
HETATM   41  C26 UNL     1      18.144  30.432  31.079  1.00  0.00     0.038 C 
HETATM   42  C23 UNL     1      18.934  30.212  27.672  1.00  0.00     0.001 C 
HETATM   43  C24 UNL     1      17.468  29.927  27.512  1.00  0.00     0.001 C 
ENDBRANCH  31  33
ENDBRANCH   6  31
TORSDOF 15
ENDMDL
MODEL 2
REMARK VINA RESULT: -7.778550623      4.172     10.941
REMARK  15 active torsions:
REMARK  status: ('A' for Active; 'I' for Inactive)
REMARK    1  A    between atoms: C2_2  and  O1_3 
REMARK    2  A    between atoms: O1_3  and  C3_4 
REMARK    3  A    between atoms: C3_4  and  C4_6 
REMARK    4  A    between atoms: C4_6  and  N1_8 
REMARK    5  A    between atoms: N1_8  and  C6_9 
REMARK    6  A    between atoms: N1_8  and  C13_17 
REMARK    7  A    between atoms: C6_9  and  C7_10 
REMARK    8  A    between atoms: C7_10  and  C8_11 
REMARK    9  A    between atoms: C8_11  and  N2_12 
REMARK   10  A    between atoms: N2_12  and  C9_13 
REMARK   11  A    between atoms: N2_12  and  C11_15 
REMARK   12  A    between atoms: C13_17  and  O3_18 
REMARK   13  A    between atoms: C13_17  and  C14_20 
REMARK   14  A    between atoms: C17_25  and  N4_26 
REMARK   15  A    between atoms: N4_26  and  C18_28 
ROOT
HETATM    1  C14 UNL     1      17.368  33.370  36.777  1.00  0.00     0.043 C 
HETATM    2  C15 UNL     1      16.356  32.956  37.623  1.00  0.00     0.035 C 
HETATM    3  C16 UNL     1      15.391  31.872  37.218  1.00  0.00     0.069 C 
HETATM    4  N3  UNL     1      15.998  33.618  38.831  1.00  0.00    -0.196 N 
ATOM      5  H3  UNL     1      15.241  33.229  39.393  1.00  0.00     0.184 HD
HETATM    6  C17 UNL     1      16.576  34.666  39.240  1.00  0.00     0.675 C 
HETATM    7  N5  UNL     1      17.572  35.174  38.371  1.00  0.00    -0.213 N 
ATOM      8  H5  UNL     1      17.788  36.170  38.339  1.00  0.00     0.178 HD
HETATM    9  C27 UNL     1      18.282  34.214  37.519  1.00  0.00     0.073 C 
HETATM   10  C28 UNL     1      18.928  33.217  38.585  1.00  0.00     0.044 C 
HETATM   11  C29 UNL     1      19.441  34.927  37.021  1.00  0.00     0.044 C 
ENDROOT
BRANCH   1  12
HETATM   12  C13 UNL     1      17.440  32.739  35.500  1.00  0.00     0.149 C 
BRANCH  12  13
HETATM   13  N1  UNL     1      17.871  31.585  34.857  1.00  0.00    -0.348 N 
BRANCH  13  14
HETATM   14  C4  UNL     1      19.176  31.021  34.876  1.00  0.00     0.182 C 
HETATM   15  C5  UNL     1      19.659  30.570  36.250  1.00  0.00     0.043 C 
BRANCH  14  16
HETATM   16  C3  UNL     1      20.205  31.977  34.297  1.00  0.00     0.281 C 
HETATM   17  O2  UNL     1      20.281  32.057  33.063  1.00  0.00    -0.263 OA
BRANCH  16  18
HETATM   18  O1  UNL     1      21.015  32.719  35.097  1.00  0.00    -0.320 OA
BRANCH  18  19
HETATM   19  C2  UNL     1      22.006  33.618  34.639  1.00  0.00     0.174 C 
HETATM   20  C1  UNL     1      22.893  34.135  35.732  1.00  0.00     0.034 C 
ENDBRANCH  18  19
ENDBRANCH  16  18
ENDBRANCH  14  16
ENDBRANCH  13  14
BRANCH  13  21
HETATM   21  C6  UNL     1      16.867  30.862  34.015  1.00  0.00     0.127 C 
BRANCH  21  22
HETATM   22  C7  UNL     1      17.328  30.319  32.745  1.00  0.00     0.050 C 
BRANCH  22  23
HETATM   23  C8  UNL     1      17.298  31.135  31.507  1.00  0.00     0.274 C 
BRANCH  23  24
HETATM   24  N2  UNL     1      17.146  30.291  30.332  1.00  0.00     0.087 N 
BRANCH  24  25
HETATM   25  C9  UNL     1      17.401  30.921  29.087  1.00  0.00     0.268 C 
HETATM   26  C10 UNL     1      16.106  31.610  28.660  1.00  0.00     0.037 C 
ENDBRANCH  24  25
BRANCH  24  27
HETATM   27  C11 UNL     1      15.970  29.481  30.383  1.00  0.00     0.268 C 
HETATM   28  C12 UNL     1      16.209  28.020  30.089  1.00  0.00     0.037 C 
ENDBRANCH  24  27
ENDBRANCH  23  24
ENDBRANCH  22  23
ENDBRANCH  21  22
ENDBRANCH  13  21
ENDBRANCH  12  13
BRANCH  12  29
HETATM   29  O3  UNL     1      16.914  33.498  34.508  1.00  0.00    -0.346 OA
ATOM     30  H3  UNL     1      16.025  33.178  34.413  1.00  0.00     0.219 HD
ENDBRANCH  12  29
ENDBRANCH   1  12
BRANCH   6  31
HETATM   31  N4  UNL     1      16.279  35.380  40.431  1.00  0.00    -0.222 N 
ATOM     32  H4  UNL     1      16.531  36.366  40.503  1.00  0.00     0.178 HD
BRANCH  31  33
HETATM   33  C18 UNL     1      15.628  34.731  41.540  1.00  0.00     0.103 C 
HETATM   34  C19 UNL     1      16.627  34.302  42.582  1.00  0.00     0.069 C 
HETATM   35  C20 UNL     1      15.973  34.572  43.923  1.00  0.00     0.122 C 
HETATM   36 CL1  UNL     1      17.221  34.820  45.143  1.00  0.00    -0.101 Cl
HETATM   37 CL2  UNL     1      14.900  33.231  44.396  1.00  0.00    -0.101 Cl
HETATM   38  C21 UNL     1      15.176  35.817  43.635  1.00  0.00    -0.003 C 
HETATM   39  C22 UNL     1      14.011  36.011  44.561  1.00  0.00     0.012 C 
HETATM   40  C25 UNL     1      16.050  37.022  43.777  1.00  0.00     0.012 C 
HETATM   41  C26 UNL     1      14.653  35.647  42.222  1.00  0.00     0.038 C 
HETATM   42  C23 UNL     1      14.246  37.353  45.256  1.00  0.00     0.001 C 
HETATM   43  C24 UNL     1      15.710  37.651  45.104  1.00  0.00     0.001 C 
ENDBRANCH  31  33
ENDBRANCH   6  31
TORSDOF 15
ENDMDL
MODEL 3
REMARK VINA RESULT: -7.700877185      3.903      6.666
REMARK  15 active torsions:
REMARK  status: ('A' for Active; 'I' for Inactive)
REMARK    1  A    between atoms: C2_2  and  O1_3 
REMARK    2  A    between atoms: O1_3  and  C3_4 
REMARK    3  A    between atoms: C3_4  and  C4_6 
REMARK    4  A    between atoms: C4_6  and  N1_8 
REMARK    5  A    between atoms: N1_8  and  C6_9 
REMARK    6  A    between atoms: N1_8  and  C13_17 
REMARK    7  A    between atoms: C6_9  and  C7_10 
REMARK    8  A    between atoms: C7_10  and  C8_11 
REMARK    9  A    between atoms: C8_11  and  N2_12 
REMARK   10  A    between atoms: N2_12  and  C9_13 
REMARK   11  A    between atoms: N2_12  and  C11_15 
REMARK   12  A    between atoms: C13_17  and  O3_18 
REMARK   13  A    between atoms: C13_17  and  C14_20 
REMARK   14  A    between atoms: C17_25  and  N4_26 
REMARK   15  A    between atoms: N4_26  and  C18_28 
ROOT
HETATM    1  C14 UNL     1      19.682  33.665  38.127  1.00  0.00     0.043 C 
HETATM    2  C15 UNL     1      19.562  34.654  37.169  1.00  0.00     0.035 C 
HETATM    3  C16 UNL     1      18.641  35.830  37.369  1.00  0.00     0.069 C 
HETATM    4  N3  UNL     1      20.111  34.574  35.859  1.00  0.00    -0.196 N 
ATOM      5  H3  UNL     1      19.976  35.362  35.226  1.00  0.00     0.184 HD
HETATM    6  C17 UNL     1      20.758  33.571  35.443  1.00  0.00     0.675 C 
HETATM    7  N5  UNL     1      20.846  32.497  36.362  1.00  0.00    -0.213 N 
ATOM      8  H5  UNL     1      20.931  31.532  36.042  1.00  0.00     0.178 HD
HETATM    9  C27 UNL     1      20.812  32.823  37.791  1.00  0.00     0.073 C 
HETATM   10  C28 UNL     1      22.064  33.799  37.954  1.00  0.00     0.044 C 
HETATM   11  C29 UNL     1      21.264  31.625  38.469  1.00  0.00     0.044 C 
ENDROOT
BRANCH   1  12
HETATM   12  C13 UNL     1      18.878  33.799  39.298  1.00  0.00     0.149 C 
BRANCH  12  13
HETATM   13  N1  UNL     1      17.576  33.675  39.768  1.00  0.00    -0.348 N 
BRANCH  13  14
HETATM   14  C4  UNL     1      17.149  33.618  41.124  1.00  0.00     0.182 C 
HETATM   15  C5  UNL     1      16.064  32.587  41.410  1.00  0.00     0.043 C 
BRANCH  14  16
HETATM   16  C3  UNL     1      16.665  34.972  41.613  1.00  0.00     0.281 C 
HETATM   17  O2  UNL     1      17.448  35.927  41.520  1.00  0.00    -0.263 OA
BRANCH  16  18
HETATM   18  O1  UNL     1      15.421  35.136  42.135  1.00  0.00    -0.320 OA
BRANCH  18  19
HETATM   19  C2  UNL     1      15.143  35.579  43.449  1.00  0.00     0.174 C 
HETATM   20  C1  UNL     1      15.427  34.547  44.499  1.00  0.00     0.034 C 
ENDBRANCH  18  19
ENDBRANCH  16  18
ENDBRANCH  14  16
ENDBRANCH  13  14
BRANCH  13  21
HETATM   21  C6  UNL     1      16.493  33.549  38.744  1.00  0.00     0.127 C 
BRANCH  21  22
HETATM   22  C7  UNL     1      16.585  32.437  37.808  1.00  0.00     0.050 C 
BRANCH  22  23
HETATM   23  C8  UNL     1      15.462  32.104  36.899  1.00  0.00     0.274 C 
BRANCH  23  24
HETATM   24  N2  UNL     1      15.948  31.796  35.564  1.00  0.00     0.087 N 
BRANCH  24  25
HETATM   25  C9  UNL     1      17.336  32.001  35.353  1.00  0.00     0.268 C 
HETATM   26  C10 UNL     1      17.486  32.707  34.006  1.00  0.00     0.037 C 
ENDBRANCH  24  25
BRANCH  24  27
HETATM   27  C11 UNL     1      15.090  32.293  34.536  1.00  0.00     0.268 C 
HETATM   28  C12 UNL     1      13.888  33.052  35.044  1.00  0.00     0.037 C 
ENDBRANCH  24  27
ENDBRANCH  23  24
ENDBRANCH  22  23
ENDBRANCH  21  22
ENDBRANCH  13  21
ENDBRANCH  12  13
BRANCH  12  29
HETATM   29  O3  UNL     1      19.590  34.192  40.382  1.00  0.00    -0.346 OA
ATOM     30  H3  UNL     1      20.465  34.344  40.046  1.00  0.00     0.219 HD
ENDBRANCH  12  29
ENDBRANCH   1  12
BRANCH   6  31
HETATM   31  N4  UNL     1      21.337  33.417  34.155  1.00  0.00    -0.222 N 
ATOM     32  H4  UNL     1      20.805  32.958  33.416  1.00  0.00     0.178 HD
BRANCH  31  33
HETATM   33  C18 UNL     1      22.665  33.901  33.879  1.00  0.00     0.103 C 
HETATM   34  C19 UNL     1      23.710  32.967  34.431  1.00  0.00     0.069 C 
HETATM   35  C20 UNL     1      24.819  32.924  33.398  1.00  0.00     0.122 C 
HETATM   36 CL1  UNL     1      25.689  31.398  33.537  1.00  0.00    -0.101 Cl
HETATM   37 CL2  UNL     1      25.937  34.297  33.597  1.00  0.00    -0.101 Cl
HETATM   38  C21 UNL     1      24.048  33.046  32.110  1.00  0.00    -0.003 C 
HETATM   39  C22 UNL     1      24.863  33.588  30.971  1.00  0.00     0.012 C 
HETATM   40  C25 UNL     1      23.551  31.700  31.687  1.00  0.00     0.012 C 
HETATM   41  C26 UNL     1      22.917  34.013  32.403  1.00  0.00     0.038 C 
HETATM   42  C23 UNL     1      24.840  32.509  29.888  1.00  0.00     0.001 C 
HETATM   43  C24 UNL     1      24.458  31.232  30.578  1.00  0.00     0.001 C 
ENDBRANCH  31  33
ENDBRANCH   6  31
TORSDOF 15
ENDMDL
MODEL 4
REMARK VINA RESULT: -7.697166420      4.857     11.018
REMARK  15 active torsions:
REMARK  status: ('A' for Active; 'I' for Inactive)
REMARK    1  A    between atoms: C2_2  and  O1_3 
REMARK    2  A    between atoms: O1_3  and  C3_4 
REMARK    3  A    between atoms: C3_4  and  C4_6 
REMARK    4  A    between atoms: C4_6  and  N1_8 
REMARK    5  A    between atoms: N1_8  and  C6_9 
REMARK    6  A    between atoms: N1_8  and  C13_17 
REMARK    7  A    between atoms: C6_9  and  C7_10 
REMARK    8  A    between atoms: C7_10  and  C8_11 
REMARK    9  A    between atoms: C8_11  and  N2_12 
REMARK   10  A    between atoms: N2_12  and  C9_13 
REMARK   11  A    between atoms: N2_12  and  C11_15 
REMARK   12  A    between atoms: C13_17  and  O3_18 
REMARK   13  A    between atoms: C13_17  and  C14_20 
REMARK   14  A    between atoms: C17_25  and  N4_26 
REMARK   15  A    between atoms: N4_26  and  C18_28 
ROOT
HETATM    1  C14 UNL     1      18.474  33.051  38.049  1.00  0.00     0.043 C 
HETATM    2  C15 UNL     1      19.387  33.844  38.719  1.00  0.00     0.035 C 
HETATM    3  C16 UNL     1      20.817  33.955  38.257  1.00  0.00     0.069 C 
HETATM    4  N3  UNL     1      19.144  34.455  39.981  1.00  0.00    -0.196 N 
ATOM      5  H3  UNL     1      19.879  35.032  40.392  1.00  0.00     0.184 HD
HETATM    6  C17 UNL     1      18.061  34.316  40.618  1.00  0.00     0.675 C 
HETATM    7  N5  UNL     1      17.120  33.451  40.009  1.00  0.00    -0.213 N 
ATOM      8  H5  UNL     1      16.449  32.923  40.566  1.00  0.00     0.178 HD
HETATM    9  C27 UNL     1      17.146  33.343  38.546  1.00  0.00     0.073 C 
HETATM   10  C28 UNL     1      16.898  34.850  38.084  1.00  0.00     0.044 C 
HETATM   11  C29 UNL     1      15.898  32.700  38.187  1.00  0.00     0.044 C 
ENDROOT
BRANCH   1  12
HETATM   12  C13 UNL     1      18.956  32.328  36.917  1.00  0.00     0.149 C 
BRANCH  12  13
HETATM   13  N1  UNL     1      18.973  32.327  35.528  1.00  0.00    -0.348 N 
BRANCH  13  14
HETATM   14  C4  UNL     1      18.271  31.451  34.656  1.00  0.00     0.182 C 
HETATM   15  C5  UNL     1      19.155  30.514  33.842  1.00  0.00     0.043 C 
BRANCH  14  16
HETATM   16  C3  UNL     1      17.375  32.217  33.698  1.00  0.00     0.281 C 
HETATM   17  O2  UNL     1      17.716  32.264  32.509  1.00  0.00    -0.263 OA
BRANCH  16  18
HETATM   18  O1  UNL     1      16.240  32.832  34.125  1.00  0.00    -0.320 OA
BRANCH  18  19
HETATM   19  C2  UNL     1      15.090  32.170  34.612  1.00  0.00     0.174 C 
HETATM   20  C1  UNL     1      14.029  33.104  35.111  1.00  0.00     0.034 C 
ENDBRANCH  18  19
ENDBRANCH  16  18
ENDBRANCH  14  16
ENDBRANCH  13  14
BRANCH  13  21
HETATM   21  C6  UNL     1      19.855  33.334  34.859  1.00  0.00     0.127 C 
BRANCH  21  22
HETATM   22  C7  UNL     1      21.280  33.040  34.802  1.00  0.00     0.050 C 
BRANCH  22  23
HETATM   23  C8  UNL     1      22.206  33.883  34.008  1.00  0.00     0.274 C 
BRANCH  23  24
HETATM   24  N2  UNL     1      23.540  33.879  34.588  1.00  0.00     0.087 N 
BRANCH  24  25
HETATM   25  C9  UNL     1      24.610  33.762  33.664  1.00  0.00     0.268 C 
HETATM   26  C10 UNL     1      24.056  34.131  32.288  1.00  0.00     0.037 C 
ENDBRANCH  24  25
BRANCH  24  27
HETATM   27  C11 UNL     1      23.634  33.052  35.749  1.00  0.00     0.268 C 
HETATM   28  C12 UNL     1      24.388  33.676  36.897  1.00  0.00     0.037 C 
ENDBRANCH  24  27
ENDBRANCH  23  24
ENDBRANCH  22  23
ENDBRANCH  21  22
ENDBRANCH  13  21
ENDBRANCH  12  13
BRANCH  12  29
HETATM   29  O3  UNL     1      19.662  31.223  37.262  1.00  0.00    -0.346 OA
ATOM     30  H3  UNL     1      19.061  30.503  37.111  1.00  0.00     0.219 HD
ENDBRANCH  12  29
ENDBRANCH   1  12
BRANCH   6  31
HETATM   31  N4  UNL     1      17.744  34.893  41.877  1.00  0.00    -0.222 N 
ATOM     32  H4  UNL     1      18.371  35.588  42.284  1.00  0.00     0.178 HD
BRANCH  31  33
HETATM   33  C18 UNL     1      16.551  34.510  42.586  1.00  0.00     0.103 C 
HETATM   34  C19 UNL     1      16.829  34.317  44.053  1.00  0.00     0.069 C 
HETATM   35  C20 UNL     1      15.627  34.881  44.784  1.00  0.00     0.122 C 
HETATM   36 CL1  UNL     1      16.109  35.386  46.402  1.00  0.00    -0.101 Cl
HETATM   37 CL2  UNL     1      14.309  33.686  44.873  1.00  0.00    -0.101 Cl
HETATM   38  C21 UNL     1      15.240  36.037  43.899  1.00  0.00    -0.003 C 
HETATM   39  C22 UNL     1      13.799  36.440  44.032  1.00  0.00     0.012 C 
HETATM   40  C25 UNL     1      16.061  37.238  44.245  1.00  0.00     0.012 C 
HETATM   41  C26 UNL     1      15.483  35.561  42.479  1.00  0.00     0.038 C 
HETATM   42  C23 UNL     1      13.812  37.900  44.484  1.00  0.00     0.001 C 
HETATM   43  C24 UNL     1      15.177  38.148  45.059  1.00  0.00     0.001 C 
ENDBRANCH  31  33
ENDBRANCH   6  31
TORSDOF 15
ENDMDL
MODEL 5
REMARK VINA RESULT: -7.688287647      3.731      6.722
REMARK  15 active torsions:
REMARK  status: ('A' for Active; 'I' for Inactive)
REMARK    1  A    between atoms: C2_2  and  O1_3 
REMARK    2  A    between atoms: O1_3  and  C3_4 
REMARK    3  A    between atoms: C3_4  and  C4_6 
REMARK    4  A    between atoms: C4_6  and  N1_8 
REMARK    5  A    between atoms: N1_8  and  C6_9 
REMARK    6  A    between atoms: N1_8  and  C13_17 
REMARK    7  A    between atoms: C6_9  and  C7_10 
REMARK    8  A    between atoms: C7_10  and  C8_11 
REMARK    9  A    between atoms: C8_11  and  N2_12 
REMARK   10  A    between atoms: N2_12  and  C9_13 
REMARK   11  A    between atoms: N2_12  and  C11_15 
REMARK   12  A    between atoms: C13_17  and  O3_18 
REMARK   13  A    between atoms: C13_17  and  C14_20 
REMARK   14  A    between atoms: C17_25  and  N4_26 
REMARK   15  A    between atoms: N4_26  and  C18_28 
ROOT
HETATM    1  C14 UNL     1      19.504  33.696  38.187  1.00  0.00     0.043 C 
HETATM    2  C15 UNL     1      19.399  34.697  37.239  1.00  0.00     0.035 C 
HETATM    3  C16 UNL     1      18.450  35.854  37.422  1.00  0.00     0.069 C 
HETATM    4  N3  UNL     1      19.995  34.646  35.948  1.00  0.00    -0.196 N 
ATOM      5  H3  UNL     1      19.868  35.441  35.321  1.00  0.00     0.184 HD
HETATM    6  C17 UNL     1      20.675  33.661  35.541  1.00  0.00     0.675 C 
HETATM    7  N5  UNL     1      20.750  32.575  36.448  1.00  0.00    -0.213 N 
ATOM      8  H5  UNL     1      20.864  31.617  36.118  1.00  0.00     0.178 HD
HETATM    9  C27 UNL     1      20.660  32.880  37.879  1.00  0.00     0.073 C 
HETATM   10  C28 UNL     1      21.888  33.876  38.100  1.00  0.00     0.044 C 
HETATM   11  C29 UNL     1      21.110  31.681  38.556  1.00  0.00     0.044 C 
ENDROOT
BRANCH   1  12
HETATM   12  C13 UNL     1      18.657  33.799  39.330  1.00  0.00     0.149 C 
BRANCH  12  13
HETATM   13  N1  UNL     1      17.351  33.605  39.763  1.00  0.00    -0.348 N 
BRANCH  13  14
HETATM   14  C4  UNL     1      16.881  33.569  41.105  1.00  0.00     0.182 C 
HETATM   15  C5  UNL     1      15.757  32.573  41.363  1.00  0.00     0.043 C 
BRANCH  14  16
HETATM   16  C3  UNL     1      16.424  34.940  41.571  1.00  0.00     0.281 C 
HETATM   17  O2  UNL     1      15.290  35.309  41.239  1.00  0.00    -0.263 OA
BRANCH  16  18
HETATM   18  O1  UNL     1      17.225  35.738  42.326  1.00  0.00    -0.320 OA
BRANCH  18  19
HETATM   19  C2  UNL     1      16.954  36.140  43.654  1.00  0.00     0.174 C 
HETATM   20  C1  UNL     1      16.955  35.005  44.633  1.00  0.00     0.034 C 
ENDBRANCH  18  19
ENDBRANCH  16  18
ENDBRANCH  14  16
ENDBRANCH  13  14
BRANCH  13  21
HETATM   21  C6  UNL     1      16.315  33.367  38.709  1.00  0.00     0.127 C 
BRANCH  21  22
HETATM   22  C7  UNL     1      16.646  32.428  37.647  1.00  0.00     0.050 C 
BRANCH  22  23
HETATM   23  C8  UNL     1      16.466  32.789  36.220  1.00  0.00     0.274 C 
BRANCH  23  24
HETATM   24  N2  UNL     1      15.925  31.670  35.465  1.00  0.00     0.087 N 
BRANCH  24  25
HETATM   25  C9  UNL     1      16.636  31.324  34.287  1.00  0.00     0.268 C 
HETATM   26  C10 UNL     1      17.537  32.510  33.943  1.00  0.00     0.037 C 
ENDBRANCH  24  25
BRANCH  24  27
HETATM   27  C11 UNL     1      14.504  31.730  35.332  1.00  0.00     0.268 C 
HETATM   28  C12 UNL     1      13.938  33.129  35.335  1.00  0.00     0.037 C 
ENDBRANCH  24  27
ENDBRANCH  23  24
ENDBRANCH  22  23
ENDBRANCH  21  22
ENDBRANCH  13  21
ENDBRANCH  12  13
BRANCH  12  29
HETATM   29  O3  UNL     1      19.310  34.250  40.429  1.00  0.00    -0.346 OA
ATOM     30  H3  UNL     1      19.579  33.461  40.884  1.00  0.00     0.219 HD
ENDBRANCH  12  29
ENDBRANCH   1  12
BRANCH   6  31
HETATM   31  N4  UNL     1      21.301  33.536  34.272  1.00  0.00    -0.222 N 
ATOM     32  H4  UNL     1      21.041  34.172  33.518  1.00  0.00     0.178 HD
BRANCH  31  33
HETATM   33  C18 UNL     1      22.299  32.525  34.036  1.00  0.00     0.103 C 
HETATM   34  C19 UNL     1      22.435  32.229  32.566  1.00  0.00     0.069 C 
HETATM   35  C20 UNL     1      23.918  32.031  32.316  1.00  0.00     0.122 C 
HETATM   36 CL1  UNL     1      24.283  32.409  30.634  1.00  0.00    -0.101 Cl
HETATM   37 CL2  UNL     1      24.419  30.365  32.702  1.00  0.00    -0.101 Cl
HETATM   38  C21 UNL     1      24.529  33.009  33.285  1.00  0.00    -0.003 C 
HETATM   39  C22 UNL     1      25.937  32.665  33.678  1.00  0.00     0.012 C 
HETATM   40  C25 UNL     1      24.570  34.372  32.672  1.00  0.00     0.012 C 
HETATM   41  C26 UNL     1      23.652  32.958  34.522  1.00  0.00     0.038 C 
HETATM   42  C23 UNL     1      26.794  33.859  33.256  1.00  0.00     0.001 C 
HETATM   43  C24 UNL     1      25.991  34.608  32.231  1.00  0.00     0.001 C 
ENDBRANCH  31  33
ENDBRANCH   6  31
TORSDOF 15
ENDMDL
