MODEL 1
REMARK VINA RESULT: -8.495097316      0.000      0.000
REMARK  14 active torsions:
REMARK  status: ('A' for Active; 'I' for Inactive)
REMARK    1  A    between atoms: C2_2  and  O1_4 
REMARK    2  A    between atoms: O1_4  and  C4_5 
REMARK    3  A    between atoms: C4_5  and  C5_7 
REMARK    4  A    between atoms: C5_7  and  N1_9 
REMARK       I    between atoms: N1_9  and  C7_11 
REMARK    5  A    between atoms: C7_11  and  C8_13 
REMARK    6  A    between atoms: N2_16  and  C11_17 
REMARK    7  A    between atoms: C11_17  and  C12_18 
REMARK    8  A    between atoms: C12_18  and  C13_19 
REMARK    9  A    between atoms: C13_19  and  C14_20 
REMARK   10  A    between atoms: C14_20  and  O4_21 
REMARK   11  A    between atoms: C14_20  and  C15_23 
REMARK   12  A    between atoms: C16_24  and  O5_25 
REMARK   13  A    between atoms: C19_29  and  C20_30 
REMARK   14  A    between atoms: C27_38  and  C28_39 
ROOT
HETATM    1  C14 UNL     1      21.272  33.766  38.421  1.00  0.00     0.057 C 
ENDROOT
BRANCH   1   2
HETATM    2  C13 UNL     1      22.381  34.648  38.268  1.00  0.00     0.067 C 
BRANCH   2   3
HETATM    3  C12 UNL     1      22.813  34.848  36.805  1.00  0.00     0.026 C 
BRANCH   3   4
HETATM    4  C11 UNL     1      23.935  33.934  36.396  1.00  0.00     0.117 C 
BRANCH   4   5
HETATM    5  N2  UNL     1      23.785  33.470  35.050  1.00  0.00    -0.412 N 
HETATM    6  C10 UNL     1      24.942  33.550  34.231  1.00  0.00     0.117 C 
HETATM    7  C9  UNL     1      24.836  32.836  32.927  1.00  0.00     0.033 C 
HETATM    8  C8  UNL     1      23.462  32.879  32.328  1.00  0.00     0.081 C 
HETATM    9  C31 UNL     1      22.623  33.955  32.973  1.00  0.00     0.033 C 
HETATM   10  C30 UNL     1      22.528  33.694  34.439  1.00  0.00     0.117 C 
BRANCH   8  11
HETATM   11  C7  UNL     1      22.865  31.533  32.457  1.00  0.00     0.222 C 
HETATM   12  N1  UNL     1      21.560  31.257  31.961  1.00  0.00    -0.347 N 
ATOM     13  H1  UNL     1      21.033  32.005  31.510  1.00  0.00     0.163 HD
HETATM   14  O3  UNL     1      23.486  30.578  33.013  1.00  0.00    -0.273 OA
BRANCH  12  15
HETATM   15  C5  UNL     1      20.958  29.942  32.076  1.00  0.00     0.180 C 
HETATM   16  C6  UNL     1      19.984  30.021  33.258  1.00  0.00     0.043 C 
BRANCH  15  17
HETATM   17  C4  UNL     1      20.257  29.587  30.828  1.00  0.00     0.281 C 
HETATM   18  O2  UNL     1      20.912  29.416  29.786  1.00  0.00    -0.263 OA
BRANCH  17  19
HETATM   19  O1  UNL     1      18.891  29.442  30.801  1.00  0.00    -0.315 OA
BRANCH  19  20
HETATM   20  C2  UNL     1      18.101  30.229  29.928  1.00  0.00     0.123 C 
HETATM   21  C1  UNL     1      16.787  29.558  29.586  1.00  0.00     0.040 C 
HETATM   22  C3  UNL     1      17.796  31.528  30.628  1.00  0.00     0.040 C 
ENDBRANCH  19  20
ENDBRANCH  17  19
ENDBRANCH  15  17
ENDBRANCH  12  15
ENDBRANCH   8  11
ENDBRANCH   4   5
ENDBRANCH   3   4
ENDBRANCH   2   3
ENDBRANCH   1   2
BRANCH   1  23
HETATM   23  O4  UNL     1      20.899  33.798  39.737  1.00  0.00    -0.364 OA
ATOM     24  H4  UNL     1      20.013  33.458  39.791  1.00  0.00     0.217 HD
ENDBRANCH   1  23
BRANCH   1  25
HETATM   25  C15 UNL     1      20.411  32.880  37.715  1.00  0.00     0.039 A 
HETATM   26  C16 UNL     1      20.911  31.552  37.465  1.00  0.00     0.079 A 
HETATM   27  C17 UNL     1      20.107  30.616  36.898  1.00  0.00     0.038 A 
HETATM   28  C18 UNL     1      18.830  30.869  36.550  1.00  0.00     0.017 A 
HETATM   29  C19 UNL     1      18.286  32.176  36.780  1.00  0.00     0.003 A 
HETATM   30  C27 UNL     1      19.093  33.115  37.330  1.00  0.00     0.040 A 
BRANCH  26  31
HETATM   31  O5  UNL     1      22.228  31.256  37.816  1.00  0.00    -0.360 OA
ATOM     32  H5  UNL     1      22.678  30.560  37.351  1.00  0.00     0.217 HD
ENDBRANCH  26  31
BRANCH  29  33
HETATM   33  C20 UNL     1      16.885  32.295  36.470  1.00  0.00     0.037 C 
HETATM   34  C21 UNL     1      16.070  32.574  37.488  1.00  0.00     0.003 C 
HETATM   35  C22 UNL     1      14.627  32.778  37.627  1.00  0.00     0.029 C 
HETATM   36  C23 UNL     1      13.957  33.105  36.307  1.00  0.00     0.005 C 
HETATM   37  C24 UNL     1      14.102  31.893  35.418  1.00  0.00     0.020 C 
HETATM   38  C25 UNL     1      15.218  32.160  34.441  1.00  0.00     0.122 C 
HETATM   39  N3  UNL     1      16.482  32.372  35.114  1.00  0.00    -0.385 N 
HETATM   40  C26 UNL     1      17.520  32.813  34.154  1.00  0.00     0.149 C 
ENDBRANCH  29  33
BRANCH  30  41
HETATM   41  C28 UNL     1      18.644  34.538  37.203  1.00  0.00     0.269 C 
HETATM   42  C29 UNL     1      17.872  34.829  38.519  1.00  0.00     0.096 C 
HETATM   43  F1  UNL     1      18.037  34.972  36.143  1.00  0.00    -0.201 F 
HETATM   44  F2  UNL     1      19.759  35.410  37.465  1.00  0.00    -0.201 F 
ENDBRANCH  30  41
ENDBRANCH   1  25
TORSDOF 14
ENDMDL
MODEL 2
REMARK VINA RESULT: -8.275652700      4.010     10.009
REMARK  14 active torsions:
REMARK  status: ('A' for Active; 'I' for Inactive)
REMARK    1  A    between atoms: C2_2  and  O1_4 
REMARK    2  A    between atoms: O1_4  and  C4_5 
REMARK    3  A    between atoms: C4_5  and  C5_7 
REMARK    4  A    between atoms: C5_7  and  N1_9 
REMARK       I    between atoms: N1_9  and  C7_11 
REMARK    5  A    between atoms: C7_11  and  C8_13 
REMARK    6  A    between atoms: N2_16  and  C11_17 
REMARK    7  A    between atoms: C11_17  and  C12_18 
REMARK    8  A    between atoms: C12_18  and  C13_19 
REMARK    9  A    between atoms: C13_19  and  C14_20 
REMARK   10  A    between atoms: C14_20  and  O4_21 
REMARK   11  A    between atoms: C14_20  and  C15_23 
REMARK   12  A    between atoms: C16_24  and  O5_25 
REMARK   13  A    between atoms: C19_29  and  C20_30 
REMARK   14  A    between atoms: C27_38  and  C28_39 
ROOT
HETATM    1  C14 UNL     1      23.109  34.077  37.801  1.00  0.00     0.057 C 
ENDROOT
BRANCH   1   2
HETATM    2  C13 UNL     1      22.184  33.316  38.574  1.00  0.00     0.067 C 
BRANCH   2   3
HETATM    3  C12 UNL     1      20.796  33.969  38.694  1.00  0.00     0.026 C 
BRANCH   3   4
HETATM    4  C11 UNL     1      19.699  33.125  38.105  1.00  0.00     0.117 C 
BRANCH   4   5
HETATM    5  N2  UNL     1      18.415  33.466  38.637  1.00  0.00    -0.412 N 
HETATM    6  C10 UNL     1      17.301  32.829  38.030  1.00  0.00     0.117 C 
HETATM    7  C9  UNL     1      16.010  33.002  38.756  1.00  0.00     0.033 C 
HETATM    8  C8  UNL     1      15.868  34.340  39.419  1.00  0.00     0.081 C 
HETATM    9  C31 UNL     1      16.870  35.326  38.870  1.00  0.00     0.033 C 
HETATM   10  C30 UNL     1      18.249  34.799  39.085  1.00  0.00     0.117 C 
BRANCH   8  11
HETATM   11  C7  UNL     1      15.999  34.143  40.878  1.00  0.00     0.222 C 
HETATM   12  N1  UNL     1      15.964  35.247  41.776  1.00  0.00    -0.347 N 
ATOM     13  H1  UNL     1      15.848  36.188  41.398  1.00  0.00     0.163 HD
HETATM   14  O3  UNL     1      16.148  32.990  41.385  1.00  0.00    -0.273 OA
BRANCH  12  15
HETATM   15  C5  UNL     1      16.089  35.074  43.210  1.00  0.00     0.180 C 
HETATM   16  C6  UNL     1      17.505  35.534  43.574  1.00  0.00     0.043 C 
BRANCH  15  17
HETATM   17  C4  UNL     1      15.068  35.873  43.914  1.00  0.00     0.281 C 
HETATM   18  O2  UNL     1      14.188  35.297  44.575  1.00  0.00    -0.263 OA
BRANCH  17  19
HETATM   19  O1  UNL     1      15.077  37.246  43.849  1.00  0.00    -0.315 OA
BRANCH  19  20
HETATM   20  C2  UNL     1      14.962  38.023  45.028  1.00  0.00     0.123 C 
HETATM   21  C1  UNL     1      16.026  39.099  45.107  1.00  0.00     0.040 C 
HETATM   22  C3  UNL     1      13.614  38.696  45.006  1.00  0.00     0.040 C 
ENDBRANCH  19  20
ENDBRANCH  17  19
ENDBRANCH  15  17
ENDBRANCH  12  15
ENDBRANCH   8  11
ENDBRANCH   4   5
ENDBRANCH   3   4
ENDBRANCH   2   3
ENDBRANCH   1   2
BRANCH   1  23
HETATM   23  O4  UNL     1      22.968  35.388  38.164  1.00  0.00    -0.364 OA
ATOM     24  H4  UNL     1      23.601  35.564  38.850  1.00  0.00     0.217 HD
ENDBRANCH   1  23
BRANCH   1  25
HETATM   25  C15 UNL     1      24.121  33.975  36.806  1.00  0.00     0.039 A 
HETATM   26  C16 UNL     1      25.483  34.125  37.249  1.00  0.00     0.079 A 
HETATM   27  C17 UNL     1      26.509  33.928  36.380  1.00  0.00     0.038 A 
HETATM   28  C18 UNL     1      26.314  33.588  35.091  1.00  0.00     0.017 A 
HETATM   29  C19 UNL     1      24.975  33.426  34.602  1.00  0.00     0.003 A 
HETATM   30  C27 UNL     1      23.952  33.638  35.464  1.00  0.00     0.040 A 
BRANCH  26  31
HETATM   31  O5  UNL     1      25.720  34.474  38.579  1.00  0.00    -0.360 OA
ATOM     32  H5  UNL     1      26.468  34.093  39.024  1.00  0.00     0.217 HD
ENDBRANCH  26  31
BRANCH  29  33
HETATM   33  C20 UNL     1      24.895  32.957  33.244  1.00  0.00     0.037 C 
HETATM   34  C21 UNL     1      25.333  33.789  32.298  1.00  0.00     0.003 C 
HETATM   35  C22 UNL     1      25.436  33.729  30.839  1.00  0.00     0.029 C 
HETATM   36  C23 UNL     1      25.385  32.309  30.312  1.00  0.00     0.005 C 
HETATM   37  C24 UNL     1      24.016  31.758  30.636  1.00  0.00     0.020 C 
HETATM   38  C25 UNL     1      24.143  30.864  31.841  1.00  0.00     0.122 C 
HETATM   39  N3  UNL     1      24.617  31.589  33.000  1.00  0.00    -0.385 N 
HETATM   40  C26 UNL     1      24.910  30.661  34.116  1.00  0.00     0.149 C 
ENDBRANCH  29  33
BRANCH  30  41
HETATM   41  C28 UNL     1      22.598  33.845  34.856  1.00  0.00     0.269 C 
HETATM   42  C29 UNL     1      21.837  32.518  35.124  1.00  0.00     0.096 C 
HETATM   43  F1  UNL     1      22.452  34.288  33.647  1.00  0.00    -0.201 F 
HETATM   44  F2  UNL     1      21.809  34.671  35.731  1.00  0.00    -0.201 F 
ENDBRANCH  30  41
ENDBRANCH   1  25
TORSDOF 14
ENDMDL
MODEL 3
REMARK VINA RESULT: -8.195800869      1.221      1.830
REMARK  14 active torsions:
REMARK  status: ('A' for Active; 'I' for Inactive)
REMARK    1  A    between atoms: C2_2  and  O1_4 
REMARK    2  A    between atoms: O1_4  and  C4_5 
REMARK    3  A    between atoms: C4_5  and  C5_7 
REMARK    4  A    between atoms: C5_7  and  N1_9 
REMARK       I    between atoms: N1_9  and  C7_11 
REMARK    5  A    between atoms: C7_11  and  C8_13 
REMARK    6  A    between atoms: N2_16  and  C11_17 
REMARK    7  A    between atoms: C11_17  and  C12_18 
REMARK    8  A    between atoms: C12_18  and  C13_19 
REMARK    9  A    between atoms: C13_19  and  C14_20 
REMARK   10  A    between atoms: C14_20  and  O4_21 
REMARK   11  A    between atoms: C14_20  and  C15_23 
REMARK   12  A    between atoms: C16_24  and  O5_25 
REMARK   13  A    between atoms: C19_29  and  C20_30 
REMARK   14  A    between atoms: C27_38  and  C28_39 
ROOT
HETATM    1  C14 UNL     1      21.085  33.818  38.304  1.00  0.00     0.057 C 
ENDROOT
BRANCH   1   2
HETATM    2  C13 UNL     1      22.158  34.736  38.109  1.00  0.00     0.067 C 
BRANCH   2   3
HETATM    3  C12 UNL     1      22.628  34.833  36.646  1.00  0.00     0.026 C 
BRANCH   3   4
HETATM    4  C11 UNL     1      23.669  33.805  36.297  1.00  0.00     0.117 C 
BRANCH   4   5
HETATM    5  N2  UNL     1      23.333  33.085  35.106  1.00  0.00    -0.412 N 
HETATM    6  C10 UNL     1      24.341  32.228  34.592  1.00  0.00     0.117 C 
HETATM    7  C9  UNL     1      23.888  31.308  33.510  1.00  0.00     0.033 C 
HETATM    8  C8  UNL     1      22.849  31.906  32.608  1.00  0.00     0.081 C 
HETATM    9  C31 UNL     1      22.801  33.407  32.758  1.00  0.00     0.033 C 
HETATM   10  C30 UNL     1      22.497  33.752  34.178  1.00  0.00     0.117 C 
BRANCH   8  11
HETATM   11  C7  UNL     1      21.554  31.259  32.910  1.00  0.00     0.222 C 
HETATM   12  N1  UNL     1      20.424  31.445  32.065  1.00  0.00    -0.347 N 
ATOM     13  H1  UNL     1      20.516  32.038  31.240  1.00  0.00     0.163 HD
HETATM   14  O3  UNL     1      21.400  30.518  33.927  1.00  0.00    -0.273 OA
BRANCH  12  15
HETATM   15  C5  UNL     1      19.147  30.817  32.343  1.00  0.00     0.180 C 
HETATM   16  C6  UNL     1      18.078  31.747  31.759  1.00  0.00     0.043 C 
BRANCH  15  17
HETATM   17  C4  UNL     1      19.088  29.478  31.727  1.00  0.00     0.281 C 
HETATM   18  O2  UNL     1      19.913  29.171  30.850  1.00  0.00    -0.263 OA
BRANCH  17  19
HETATM   19  O1  UNL     1      18.134  28.566  32.109  1.00  0.00    -0.315 OA
BRANCH  19  20
HETATM   20  C2  UNL     1      17.602  27.647  31.173  1.00  0.00     0.123 C 
HETATM   21  C1  UNL     1      17.416  26.267  31.770  1.00  0.00     0.040 C 
HETATM   22  C3  UNL     1      16.251  28.158  30.743  1.00  0.00     0.040 C 
ENDBRANCH  19  20
ENDBRANCH  17  19
ENDBRANCH  15  17
ENDBRANCH  12  15
ENDBRANCH   8  11
ENDBRANCH   4   5
ENDBRANCH   3   4
ENDBRANCH   2   3
ENDBRANCH   1   2
BRANCH   1  23
HETATM   23  O4  UNL     1      20.734  33.870  39.625  1.00  0.00    -0.364 OA
ATOM     24  H4  UNL     1      21.064  33.082  40.040  1.00  0.00     0.217 HD
ENDBRANCH   1  23
BRANCH   1  25
HETATM   25  C15 UNL     1      20.247  32.882  37.636  1.00  0.00     0.039 A 
HETATM   26  C16 UNL     1      20.732  31.529  37.543  1.00  0.00     0.079 A 
HETATM   27  C17 UNL     1      19.941  30.555  37.021  1.00  0.00     0.038 A 
HETATM   28  C18 UNL     1      18.691  30.794  36.578  1.00  0.00     0.017 A 
HETATM   29  C19 UNL     1      18.163  32.125  36.651  1.00  0.00     0.003 A 
HETATM   30  C27 UNL     1      18.957  33.100  37.156  1.00  0.00     0.040 A 
BRANCH  26  31
HETATM   31  O5  UNL     1      22.021  31.246  37.995  1.00  0.00    -0.360 OA
ATOM     32  H5  UNL     1      22.125  30.807  38.831  1.00  0.00     0.217 HD
ENDBRANCH  26  31
BRANCH  29  33
HETATM   33  C20 UNL     1      16.784  32.236  36.252  1.00  0.00     0.037 C 
HETATM   34  C21 UNL     1      16.486  31.828  35.018  1.00  0.00     0.003 C 
HETATM   35  C22 UNL     1      15.259  31.761  34.222  1.00  0.00     0.029 C 
HETATM   36  C23 UNL     1      14.009  31.816  35.079  1.00  0.00     0.005 C 
HETATM   37  C24 UNL     1      13.978  33.173  35.741  1.00  0.00     0.020 C 
HETATM   38  C25 UNL     1      14.443  33.010  37.165  1.00  0.00     0.122 C 
HETATM   39  N3  UNL     1      15.800  32.512  37.233  1.00  0.00    -0.385 N 
HETATM   40  C26 UNL     1      16.170  32.185  38.629  1.00  0.00     0.149 C 
ENDBRANCH  29  33
BRANCH  30  41
HETATM   41  C28 UNL     1      18.546  34.511  36.869  1.00  0.00     0.269 C 
HETATM   42  C29 UNL     1      17.802  34.975  38.151  1.00  0.00     0.096 C 
HETATM   43  F1  UNL     1      17.937  34.837  35.772  1.00  0.00    -0.201 F 
HETATM   44  F2  UNL     1      19.689  35.374  37.016  1.00  0.00    -0.201 F 
ENDBRANCH  30  41
ENDBRANCH   1  25
TORSDOF 14
ENDMDL
MODEL 4
REMARK VINA RESULT: -8.175902645      1.568      2.370
REMARK  14 active torsions:
REMARK  status: ('A' for Active; 'I' for Inactive)
REMARK    1  A    between atoms: C2_2  and  O1_4 
REMARK    2  A    between atoms: O1_4  and  C4_5 
REMARK    3  A    between atoms: C4_5  and  C5_7 
REMARK    4  A    between atoms: C5_7  and  N1_9 
REMARK       I    between atoms: N1_9  and  C7_11 
REMARK    5  A    between atoms: C7_11  and  C8_13 
REMARK    6  A    between atoms: N2_16  and  C11_17 
REMARK    7  A    between atoms: C11_17  and  C12_18 
REMARK    8  A    between atoms: C12_18  and  C13_19 
REMARK    9  A    between atoms: C13_19  and  C14_20 
REMARK   10  A    between atoms: C14_20  and  O4_21 
REMARK   11  A    between atoms: C14_20  and  C15_23 
REMARK   12  A    between atoms: C16_24  and  O5_25 
REMARK   13  A    between atoms: C19_29  and  C20_30 
REMARK   14  A    between atoms: C27_38  and  C28_39 
ROOT
HETATM    1  C14 UNL     1      21.686  32.198  37.666  1.00  0.00     0.057 C 
ENDROOT
BRANCH   1   2
HETATM    2  C13 UNL     1      22.744  31.915  36.754  1.00  0.00     0.067 C 
BRANCH   2   3
HETATM    3  C12 UNL     1      23.813  33.020  36.688  1.00  0.00     0.026 C 
BRANCH   3   4
HETATM    4  C11 UNL     1      23.774  33.794  35.399  1.00  0.00     0.117 C 
BRANCH   4   5
HETATM    5  N2  UNL     1      23.587  32.939  34.266  1.00  0.00    -0.412 N 
HETATM    6  C10 UNL     1      24.739  32.242  33.815  1.00  0.00     0.117 C 
HETATM    7  C9  UNL     1      24.471  31.178  32.806  1.00  0.00     0.033 C 
HETATM    8  C8  UNL     1      23.351  31.509  31.865  1.00  0.00     0.081 C 
HETATM    9  C31 UNL     1      23.031  32.984  31.901  1.00  0.00     0.033 C 
HETATM   10  C30 UNL     1      22.655  33.373  33.292  1.00  0.00     0.117 C 
BRANCH   8  11
HETATM   11  C7  UNL     1      22.192  30.663  32.218  1.00  0.00     0.222 C 
HETATM   12  N1  UNL     1      20.961  30.771  31.512  1.00  0.00    -0.347 N 
ATOM     13  H1  UNL     1      20.883  31.447  30.751  1.00  0.00     0.163 HD
HETATM   14  O3  UNL     1      22.247  29.814  33.158  1.00  0.00    -0.273 OA
BRANCH  12  15
HETATM   15  C5  UNL     1      19.813  29.948  31.842  1.00  0.00     0.180 C 
HETATM   16  C6  UNL     1      18.612  30.899  31.914  1.00  0.00     0.043 C 
BRANCH  15  17
HETATM   17  C4  UNL     1      19.613  28.910  30.813  1.00  0.00     0.281 C 
HETATM   18  O2  UNL     1      20.161  27.803  30.946  1.00  0.00    -0.263 OA
BRANCH  17  19
HETATM   19  O1  UNL     1      18.829  29.150  29.710  1.00  0.00    -0.315 OA
BRANCH  19  20
HETATM   20  C2  UNL     1      17.860  28.204  29.296  1.00  0.00     0.123 C 
HETATM   21  C1  UNL     1      16.531  28.407  29.993  1.00  0.00     0.040 C 
HETATM   22  C3  UNL     1      17.645  28.382  27.815  1.00  0.00     0.040 C 
ENDBRANCH  19  20
ENDBRANCH  17  19
ENDBRANCH  15  17
ENDBRANCH  12  15
ENDBRANCH   8  11
ENDBRANCH   4   5
ENDBRANCH   3   4
ENDBRANCH   2   3
ENDBRANCH   1   2
BRANCH   1  23
HETATM   23  O4  UNL     1      22.035  31.668  38.879  1.00  0.00    -0.364 OA
ATOM     24  H4  UNL     1      21.417  30.973  39.075  1.00  0.00     0.217 HD
ENDBRANCH   1  23
BRANCH   1  25
HETATM   25  C15 UNL     1      20.416  32.829  37.782  1.00  0.00     0.039 A 
HETATM   26  C16 UNL     1      20.383  34.098  38.464  1.00  0.00     0.079 A 
HETATM   27  C17 UNL     1      19.230  34.815  38.515  1.00  0.00     0.038 A 
HETATM   28  C18 UNL     1      18.086  34.392  37.943  1.00  0.00     0.017 A 
HETATM   29  C19 UNL     1      18.069  33.136  37.251  1.00  0.00     0.003 A 
HETATM   30  C27 UNL     1      19.214  32.413  37.214  1.00  0.00     0.040 A 
BRANCH  26  31
HETATM   31  O5  UNL     1      21.551  34.566  39.065  1.00  0.00    -0.360 OA
ATOM     32  H5  UNL     1      21.940  35.370  38.742  1.00  0.00     0.217 HD
ENDBRANCH  26  31
BRANCH  29  33
HETATM   33  C20 UNL     1      16.824  32.843  36.590  1.00  0.00     0.037 C 
HETATM   34  C21 UNL     1      15.727  32.860  37.348  1.00  0.00     0.003 C 
HETATM   35  C22 UNL     1      14.302  32.630  37.104  1.00  0.00     0.029 C 
HETATM   36  C23 UNL     1      13.936  32.762  35.639  1.00  0.00     0.005 C 
HETATM   37  C24 UNL     1      14.648  31.655  34.897  1.00  0.00     0.020 C 
HETATM   38  C25 UNL     1      15.855  32.248  34.219  1.00  0.00     0.122 C 
HETATM   39  N3  UNL     1      16.784  32.814  35.174  1.00  0.00    -0.385 N 
HETATM   40  C26 UNL     1      17.866  33.550  34.481  1.00  0.00     0.149 C 
ENDBRANCH  29  33
BRANCH  30  41
HETATM   41  C28 UNL     1      19.079  30.969  36.840  1.00  0.00     0.269 C 
HETATM   42  C29 UNL     1      19.733  30.861  35.436  1.00  0.00     0.096 C 
HETATM   43  F1  UNL     1      17.949  30.340  36.933  1.00  0.00    -0.201 F 
HETATM   44  F2  UNL     1      20.073  30.204  37.548  1.00  0.00    -0.201 F 
ENDBRANCH  30  41
ENDBRANCH   1  25
TORSDOF 14
ENDMDL
MODEL 5
REMARK VINA RESULT: -8.135153265      3.367      5.663
REMARK  14 active torsions:
REMARK  status: ('A' for Active; 'I' for Inactive)
REMARK    1  A    between atoms: C2_2  and  O1_4 
REMARK    2  A    between atoms: O1_4  and  C4_5 
REMARK    3  A    between atoms: C4_5  and  C5_7 
REMARK    4  A    between atoms: C5_7  and  N1_9 
REMARK       I    between atoms: N1_9  and  C7_11 
REMARK    5  A    between atoms: C7_11  and  C8_13 
REMARK    6  A    between atoms: N2_16  and  C11_17 
REMARK    7  A    between atoms: C11_17  and  C12_18 
REMARK    8  A    between atoms: C12_18  and  C13_19 
REMARK    9  A    between atoms: C13_19  and  C14_20 
REMARK   10  A    between atoms: C14_20  and  O4_21 
REMARK   11  A    between atoms: C14_20  and  C15_23 
REMARK   12  A    between atoms: C16_24  and  O5_25 
REMARK   13  A    between atoms: C19_29  and  C20_30 
REMARK   14  A    between atoms: C27_38  and  C28_39 
ROOT
HETATM    1  C14 UNL     1      21.670  32.169  37.627  1.00  0.00     0.057 C 
ENDROOT
BRANCH   1   2
HETATM    2  C13 UNL     1      22.695  31.781  36.715  1.00  0.00     0.067 C 
BRANCH   2   3
HETATM    3  C12 UNL     1      22.604  32.485  35.349  1.00  0.00     0.026 C 
BRANCH   3   4
HETATM    4  C11 UNL     1      22.929  31.573  34.198  1.00  0.00     0.117 C 
BRANCH   4   5
HETATM    5  N2  UNL     1      23.472  32.289  33.084  1.00  0.00    -0.412 N 
HETATM    6  C10 UNL     1      22.717  33.404  32.633  1.00  0.00     0.117 C 
HETATM    7  C9  UNL     1      23.418  34.276  31.647  1.00  0.00     0.033 C 
HETATM    8  C8  UNL     1      24.319  33.525  30.713  1.00  0.00     0.081 C 
HETATM    9  C31 UNL     1      24.003  32.049  30.726  1.00  0.00     0.033 C 
HETATM   10  C30 UNL     1      24.161  31.523  32.113  1.00  0.00     0.117 C 
BRANCH   8  11
HETATM   11  C7  UNL     1      25.717  33.814  31.095  1.00  0.00     0.222 C 
HETATM   12  N1  UNL     1      26.802  33.434  30.256  1.00  0.00    -0.347 N 
ATOM     13  H1  UNL     1      26.605  32.953  29.378  1.00  0.00     0.163 HD
HETATM   14  O3  UNL     1      26.004  34.407  32.179  1.00  0.00    -0.273 OA
BRANCH  12  15
HETATM   15  C5  UNL     1      28.180  33.711  30.613  1.00  0.00     0.180 C 
HETATM   16  C6  UNL     1      28.945  32.396  30.417  1.00  0.00     0.043 C 
BRANCH  15  17
HETATM   17  C4  UNL     1      28.727  34.781  29.757  1.00  0.00     0.281 C 
HETATM   18  O2  UNL     1      28.817  34.599  28.531  1.00  0.00    -0.263 OA
BRANCH  17  19
HETATM   19  O1  UNL     1      29.139  35.977  30.296  1.00  0.00    -0.315 OA
BRANCH  19  20
HETATM   20  C2  UNL     1      28.192  36.960  30.671  1.00  0.00     0.123 C 
HETATM   21  C1  UNL     1      28.135  37.153  32.172  1.00  0.00     0.040 C 
HETATM   22  C3  UNL     1      28.612  38.266  30.046  1.00  0.00     0.040 C 
ENDBRANCH  19  20
ENDBRANCH  17  19
ENDBRANCH  15  17
ENDBRANCH  12  15
ENDBRANCH   8  11
ENDBRANCH   4   5
ENDBRANCH   3   4
ENDBRANCH   2   3
ENDBRANCH   1   2
BRANCH   1  23
HETATM   23  O4  UNL     1      22.044  31.742  38.871  1.00  0.00    -0.364 OA
ATOM     24  H4  UNL     1      22.134  32.511  39.422  1.00  0.00     0.217 HD
ENDBRANCH   1  23
BRANCH   1  25
HETATM   25  C15 UNL     1      20.418  32.838  37.720  1.00  0.00     0.039 A 
HETATM   26  C16 UNL     1      20.423  34.139  38.337  1.00  0.00     0.079 A 
HETATM   27  C17 UNL     1      19.288  34.887  38.360  1.00  0.00     0.038 A 
HETATM   28  C18 UNL     1      18.129  34.465  37.819  1.00  0.00     0.017 A 
HETATM   29  C19 UNL     1      18.074  33.177  37.192  1.00  0.00     0.003 A 
HETATM   30  C27 UNL     1      19.200  32.424  37.183  1.00  0.00     0.040 A 
BRANCH  26  31
HETATM   31  O5  UNL     1      21.607  34.607  38.905  1.00  0.00    -0.360 OA
ATOM     32  H5  UNL     1      21.855  34.293  39.767  1.00  0.00     0.217 HD
ENDBRANCH  26  31
BRANCH  29  33
HETATM   33  C20 UNL     1      16.817  32.883  36.555  1.00  0.00     0.037 C 
HETATM   34  C21 UNL     1      15.733  32.920  37.331  1.00  0.00     0.003 C 
HETATM   35  C22 UNL     1      14.302  32.696  37.114  1.00  0.00     0.029 C 
HETATM   36  C23 UNL     1      13.913  32.808  35.653  1.00  0.00     0.005 C 
HETATM   37  C24 UNL     1      14.605  31.685  34.917  1.00  0.00     0.020 C 
HETATM   38  C25 UNL     1      15.805  32.258  34.210  1.00  0.00     0.122 C 
HETATM   39  N3  UNL     1      16.754  32.831  35.141  1.00  0.00    -0.385 N 
HETATM   40  C26 UNL     1      17.829  33.549  34.419  1.00  0.00     0.149 C 
ENDBRANCH  29  33
BRANCH  30  41
HETATM   41  C28 UNL     1      19.026  30.967  36.883  1.00  0.00     0.269 C 
HETATM   42  C29 UNL     1      19.507  30.804  35.416  1.00  0.00     0.096 C 
HETATM   43  F1  UNL     1      17.918  30.344  37.135  1.00  0.00    -0.201 F 
HETATM   44  F2  UNL     1      20.100  30.228  37.495  1.00  0.00    -0.201 F 
ENDBRANCH  30  41
ENDBRANCH   1  25
TORSDOF 14
ENDMDL
