MODEL 1
REMARK VINA RESULT: -6.682178380      0.000      0.000
REMARK  4 active torsions:
REMARK  status: ('A' for Active; 'I' for Inactive)
REMARK    1  A    between atoms: N1_2  and  C3_4 
REMARK    2  A    between atoms: C4_7  and  N3_8 
REMARK    3  A    between atoms: C5_13  and  N5_14 
REMARK    4  A    between atoms: N5_14  and  N6_16 
REMARK       I    between atoms: N6_16  and  C6_18 
ROOT
HETATM    1  C3  UNL     1      24.325  73.967   9.868  1.00  0.00     0.708 A 
HETATM    2  N2  UNL     1      24.722  72.715  10.152  1.00  0.00    -0.022 N 
ATOM      3  H2  UNL     1      24.017  71.979  10.207  1.00  0.00     0.203 HD
HETATM    4  C4  UNL     1      25.986  72.400  10.363  1.00  0.00     0.705 A 
HETATM    5  N4  UNL     1      26.917  73.364  10.293  1.00  0.00    -0.020 N 
ATOM      6  H4  UNL     1      27.900  73.138  10.452  1.00  0.00     0.203 HD
HETATM    7  C5  UNL     1      26.552  74.637  10.009  1.00  0.00     0.726 A 
HETATM    8  N9  UNL     1      25.237  74.925   9.797  1.00  0.00    -0.020 N 
ATOM      9  H9  UNL     1      24.954  75.881   9.583  1.00  0.00     0.203 HD
ENDROOT
BRANCH   7  10
HETATM   10  N5  UNL     1      27.421  75.590   9.933  1.00  0.00    -0.129 N 
ATOM     11  H5  UNL     1      27.955  75.741   9.077  1.00  0.00     0.205 HD
BRANCH  10  12
HETATM   12  N6  UNL     1      27.616  76.409  11.042  1.00  0.00    -0.260 N 
HETATM   13  C6  UNL     1      26.932  77.641  11.227  1.00  0.00     0.201 C 
HETATM   14  N7  UNL     1      26.922  78.556  10.309  1.00  0.00    -0.372 N 
HETATM   15  N8  UNL     1      26.232  77.920  12.422  1.00  0.00    -0.062 NA
ATOM     16  H72 UNL     1      27.428  78.353   9.446  1.00  0.00     0.158 HD
ATOM     17  H71 UNL     1      26.432  79.440  10.441  1.00  0.00     0.158 HD
ATOM     18  H6  UNL     1      28.280  76.109  11.757  1.00  0.00     0.190 HD
ENDBRANCH  10  12
ENDBRANCH   7  10
BRANCH   4  19
HETATM   19  N3  UNL     1      26.329  71.191  10.633  1.00  0.00    -0.234 N 
ATOM     20  H32 UNL     1      26.942  70.680   9.998  1.00  0.00     0.174 HD
ATOM     21  H31 UNL     1      25.997  70.728  11.479  1.00  0.00     0.174 HD
ENDBRANCH   4  19
BRANCH   1  22
HETATM   22  N1  UNL     1      22.941  74.203   9.658  1.00  0.00    -0.225 N 
HETATM   23  C1  UNL     1      22.208  74.901  10.690  1.00  0.00     0.168 C 
HETATM   24  C2  UNL     1      22.281  73.759   8.447  1.00  0.00     0.168 C 
ENDBRANCH   1  22
TORSDOF 4
ENDMDL
MODEL 2
REMARK VINA RESULT: -6.619110828      1.198      1.457
REMARK  4 active torsions:
REMARK  status: ('A' for Active; 'I' for Inactive)
REMARK    1  A    between atoms: N1_2  and  C3_4 
REMARK    2  A    between atoms: C4_7  and  N3_8 
REMARK    3  A    between atoms: C5_13  and  N5_14 
REMARK    4  A    between atoms: N5_14  and  N6_16 
REMARK       I    between atoms: N6_16  and  C6_18 
ROOT
HETATM    1  C3  UNL     1      23.926  73.249   9.296  1.00  0.00     0.708 A 
HETATM    2  N2  UNL     1      24.566  72.177   9.794  1.00  0.00    -0.022 N 
ATOM      3  H2  UNL     1      24.103  71.269   9.759  1.00  0.00     0.203 HD
HETATM    4  C4  UNL     1      25.771  72.254  10.328  1.00  0.00     0.705 A 
HETATM    5  N4  UNL     1      26.387  73.445  10.378  1.00  0.00    -0.020 N 
ATOM      6  H4  UNL     1      27.319  73.522  10.786  1.00  0.00     0.203 HD
HETATM    7  C5  UNL     1      25.770  74.545   9.885  1.00  0.00     0.726 A 
HETATM    8  N9  UNL     1      24.525  74.429   9.341  1.00  0.00    -0.020 N 
ATOM      9  H9  UNL     1      24.054  75.252   8.968  1.00  0.00     0.203 HD
ENDROOT
BRANCH   7  10
HETATM   10  N5  UNL     1      26.332  75.709   9.916  1.00  0.00    -0.129 N 
ATOM     11  H5  UNL     1      26.859  76.053   9.114  1.00  0.00     0.205 HD
BRANCH  10  12
HETATM   12  N6  UNL     1      26.204  76.483  11.066  1.00  0.00    -0.260 N 
HETATM   13  C6  UNL     1      27.296  76.786  11.923  1.00  0.00     0.201 C 
HETATM   14  N7  UNL     1      28.065  75.857  12.398  1.00  0.00    -0.372 N 
HETATM   15  N8  UNL     1      27.592  78.118  12.293  1.00  0.00    -0.062 NA
ATOM     16  H72 UNL     1      27.851  74.896  12.130  1.00  0.00     0.158 HD
ATOM     17  H71 UNL     1      28.848  76.074  13.014  1.00  0.00     0.158 HD
ATOM     18  H6  UNL     1      25.283  76.850  11.304  1.00  0.00     0.190 HD
ENDBRANCH  10  12
ENDBRANCH   7  10
BRANCH   4  19
HETATM   19  N3  UNL     1      26.354  71.207  10.795  1.00  0.00    -0.234 N 
ATOM     20  H32 UNL     1      25.801  70.448  11.191  1.00  0.00     0.174 HD
ATOM     21  H31 UNL     1      27.370  71.121  10.776  1.00  0.00     0.174 HD
ENDBRANCH   4  19
BRANCH   1  22
HETATM   22  N1  UNL     1      22.632  73.062   8.744  1.00  0.00    -0.225 N 
HETATM   23  C1  UNL     1      21.536  73.813   9.314  1.00  0.00     0.168 C 
HETATM   24  C2  UNL     1      22.412  72.147   7.642  1.00  0.00     0.168 C 
ENDBRANCH   1  22
TORSDOF 4
ENDMDL
MODEL 3
REMARK VINA RESULT: -6.571622079      1.004      1.598
REMARK  4 active torsions:
REMARK  status: ('A' for Active; 'I' for Inactive)
REMARK    1  A    between atoms: N1_2  and  C3_4 
REMARK    2  A    between atoms: C4_7  and  N3_8 
REMARK    3  A    between atoms: C5_13  and  N5_14 
REMARK    4  A    between atoms: N5_14  and  N6_16 
REMARK       I    between atoms: N6_16  and  C6_18 
ROOT
HETATM    1  C3  UNL     1      23.842  73.986   9.795  1.00  0.00     0.708 A 
HETATM    2  N2  UNL     1      24.438  72.801  10.013  1.00  0.00    -0.022 N 
ATOM      3  H2  UNL     1      23.876  71.952   9.953  1.00  0.00     0.203 HD
HETATM    4  C4  UNL     1      25.721  72.694  10.301  1.00  0.00     0.705 A 
HETATM    5  N4  UNL     1      26.466  73.808  10.381  1.00  0.00    -0.020 N 
ATOM      6  H4  UNL     1      27.460  73.743  10.602  1.00  0.00     0.203 HD
HETATM    7  C5  UNL     1      25.897  75.017  10.168  1.00  0.00     0.726 A 
HETATM    8  N9  UNL     1      24.568  75.090   9.872  1.00  0.00    -0.020 N 
ATOM      9  H9  UNL     1      24.133  75.998   9.710  1.00  0.00     0.203 HD
ENDROOT
BRANCH   7  10
HETATM   10  N5  UNL     1      26.583  76.111  10.236  1.00  0.00    -0.129 N 
ATOM     11  H5  UNL     1      27.160  76.413   9.451  1.00  0.00     0.205 HD
BRANCH  10  12
HETATM   12  N6  UNL     1      26.520  76.868  11.403  1.00  0.00    -0.260 N 
HETATM   13  C6  UNL     1      27.619  77.018  12.291  1.00  0.00     0.201 C 
HETATM   14  N7  UNL     1      28.259  75.992  12.759  1.00  0.00    -0.372 N 
HETATM   15  N8  UNL     1      28.062  78.295  12.702  1.00  0.00    -0.062 NA
ATOM     16  H72 UNL     1      27.938  75.070  12.462  1.00  0.00     0.158 HD
ATOM     17  H71 UNL     1      29.047  76.099  13.397  1.00  0.00     0.158 HD
ATOM     18  H6  UNL     1      25.643  77.338  11.630  1.00  0.00     0.190 HD
ENDBRANCH  10  12
ENDBRANCH   7  10
BRANCH   4  19
HETATM   19  N3  UNL     1      26.258  71.544  10.504  1.00  0.00    -0.234 N 
ATOM     20  H32 UNL     1      25.704  70.782  10.894  1.00  0.00     0.174 HD
ATOM     21  H31 UNL     1      27.239  71.377  10.279  1.00  0.00     0.174 HD
ENDBRANCH   4  19
BRANCH   1  22
HETATM   22  N1  UNL     1      22.455  73.996   9.491  1.00  0.00    -0.225 N 
HETATM   23  C1  UNL     1      22.045  73.539   8.183  1.00  0.00     0.168 C 
HETATM   24  C2  UNL     1      21.478  74.449  10.460  1.00  0.00     0.168 C 
ENDBRANCH   1  22
TORSDOF 4
ENDMDL
MODEL 4
REMARK VINA RESULT: -6.571589753      1.735      2.224
REMARK  4 active torsions:
REMARK  status: ('A' for Active; 'I' for Inactive)
REMARK    1  A    between atoms: N1_2  and  C3_4 
REMARK    2  A    between atoms: C4_7  and  N3_8 
REMARK    3  A    between atoms: C5_13  and  N5_14 
REMARK    4  A    between atoms: N5_14  and  N6_16 
REMARK       I    between atoms: N6_16  and  C6_18 
ROOT
HETATM    1  C3  UNL     1      23.619  73.084   9.316  1.00  0.00     0.708 A 
HETATM    2  N2  UNL     1      23.498  72.380  10.455  1.00  0.00    -0.022 N 
ATOM      3  H2  UNL     1      22.820  71.619  10.490  1.00  0.00     0.203 HD
HETATM    4  C4  UNL     1      24.222  72.636  11.529  1.00  0.00     0.705 A 
HETATM    5  N4  UNL     1      25.116  73.635  11.488  1.00  0.00    -0.020 N 
ATOM      6  H4  UNL     1      25.685  73.846  12.309  1.00  0.00     0.203 HD
HETATM    7  C5  UNL     1      25.264  74.364  10.357  1.00  0.00     0.726 A 
HETATM    8  N9  UNL     1      24.499  74.072   9.267  1.00  0.00    -0.020 N 
ATOM      9  H9  UNL     1      24.604  74.616   8.411  1.00  0.00     0.203 HD
ENDROOT
BRANCH   7  10
HETATM   10  N5  UNL     1      26.115  75.334  10.281  1.00  0.00    -0.129 N 
ATOM     11  H5  UNL     1      26.779  75.384   9.509  1.00  0.00     0.205 HD
BRANCH  10  12
HETATM   12  N6  UNL     1      26.108  76.309  11.275  1.00  0.00    -0.260 N 
HETATM   13  C6  UNL     1      27.282  76.737  11.951  1.00  0.00     0.201 C 
HETATM   14  N7  UNL     1      28.088  75.892  12.512  1.00  0.00    -0.372 N 
HETATM   15  N8  UNL     1      27.622  78.106  12.037  1.00  0.00    -0.062 NA
ATOM     16  H72 UNL     1      27.843  74.903  12.449  1.00  0.00     0.158 HD
ATOM     17  H71 UNL     1      28.931  76.199  12.998  1.00  0.00     0.158 HD
ATOM     18  H6  UNL     1      25.217  76.737  11.529  1.00  0.00     0.190 HD
ENDBRANCH  10  12
ENDBRANCH   7  10
BRANCH   4  19
HETATM   19  N3  UNL     1      24.079  71.942  12.601  1.00  0.00    -0.234 N 
ATOM     20  H32 UNL     1      24.436  70.988  12.645  1.00  0.00     0.174 HD
ATOM     21  H31 UNL     1      23.611  72.332  13.419  1.00  0.00     0.174 HD
ENDBRANCH   4  19
BRANCH   1  22
HETATM   22  N1  UNL     1      22.794  72.731   8.216  1.00  0.00    -0.225 N 
HETATM   23  C1  UNL     1      23.131  71.538   7.472  1.00  0.00     0.168 C 
HETATM   24  C2  UNL     1      21.649  73.538   7.848  1.00  0.00     0.168 C 
ENDBRANCH   1  22
TORSDOF 4
ENDMDL
MODEL 5
REMARK VINA RESULT: -6.508127190      1.779      2.113
REMARK  4 active torsions:
REMARK  status: ('A' for Active; 'I' for Inactive)
REMARK    1  A    between atoms: N1_2  and  C3_4 
REMARK    2  A    between atoms: C4_7  and  N3_8 
REMARK    3  A    between atoms: C5_13  and  N5_14 
REMARK    4  A    between atoms: N5_14  and  N6_16 
REMARK       I    between atoms: N6_16  and  C6_18 
ROOT
HETATM    1  C3  UNL     1      22.918  73.572  11.130  1.00  0.00     0.708 A 
HETATM    2  N2  UNL     1      23.625  72.458  10.873  1.00  0.00    -0.022 N 
ATOM      3  H2  UNL     1      23.122  71.603  10.637  1.00  0.00     0.203 HD
HETATM    4  C4  UNL     1      24.944  72.429  10.915  1.00  0.00     0.705 A 
HETATM    5  N4  UNL     1      25.611  73.552  11.224  1.00  0.00    -0.020 N 
ATOM      6  H4  UNL     1      26.631  73.547  11.259  1.00  0.00     0.203 HD
HETATM    7  C5  UNL     1      24.929  74.691  11.488  1.00  0.00     0.726 A 
HETATM    8  N9  UNL     1      23.567  74.684  11.436  1.00  0.00    -0.020 N 
ATOM      9  H9  UNL     1      23.046  75.538  11.634  1.00  0.00     0.203 HD
ENDROOT
BRANCH   7  10
HETATM   10  N5  UNL     1      25.538  75.791  11.790  1.00  0.00    -0.129 N 
ATOM     11  H5  UNL     1      25.037  76.680  11.787  1.00  0.00     0.205 HD
BRANCH  10  12
HETATM   12  N6  UNL     1      26.889  75.739  12.118  1.00  0.00    -0.260 N 
HETATM   13  C6  UNL     1      27.742  76.875  12.078  1.00  0.00     0.201 C 
HETATM   14  N7  UNL     1      27.826  77.624  11.024  1.00  0.00    -0.372 N 
HETATM   15  N8  UNL     1      28.535  77.237  13.190  1.00  0.00    -0.062 NA
ATOM     16  H72 UNL     1      27.253  77.362  10.221  1.00  0.00     0.158 HD
ATOM     17  H71 UNL     1      28.438  78.439  10.995  1.00  0.00     0.158 HD
ATOM     18  H6  UNL     1      27.287  74.843  12.401  1.00  0.00     0.190 HD
ENDBRANCH  10  12
ENDBRANCH   7  10
BRANCH   4  19
HETATM   19  N3  UNL     1      25.588  71.345  10.664  1.00  0.00    -0.234 N 
ATOM     20  H32 UNL     1      25.247  70.701   9.950  1.00  0.00     0.174 HD
ATOM     21  H31 UNL     1      26.443  71.115  11.170  1.00  0.00     0.174 HD
ENDBRANCH   4  19
BRANCH   1  22
HETATM   22  N1  UNL     1      21.502  73.500  11.059  1.00  0.00    -0.225 N 
HETATM   23  C1  UNL     1      20.916  72.568  10.122  1.00  0.00     0.168 C 
HETATM   24  C2  UNL     1      20.666  74.335  11.899  1.00  0.00     0.168 C 
ENDBRANCH   1  22
TORSDOF 4
ENDMDL
