MODEL 1
REMARK VINA RESULT: -6.978946359      0.000      0.000
REMARK  1 active torsions:
REMARK  status: ('A' for Active; 'I' for Inactive)
REMARK    1  A    between atoms: C4_7  and  N4_8 
REMARK       I    between atoms: N4_8  and  C5_10 
REMARK       I    between atoms: C5_10  and  N5_11 
REMARK       I    between atoms: C5_10  and  N6_15 
ROOT
HETATM    1  C1  UNL     1      24.075  71.931   8.950  1.00  0.00     0.162 C 
HETATM    2  N1  UNL     1      24.958  73.012   9.387  1.00  0.00    -0.290 N 
HETATM    3  C2  UNL     1      24.506  74.285   9.432  1.00  0.00     0.150 A 
HETATM    4  N2  UNL     1      23.168  74.600   9.056  1.00  0.00    -0.080 NA
HETATM    5  C3  UNL     1      25.344  75.309   9.847  1.00  0.00     0.131 A 
HETATM    6  N3  UNL     1      24.837  76.635   9.882  1.00  0.00    -0.095 NA
HETATM    7  C4  UNL     1      26.648  75.040  10.218  1.00  0.00     0.136 A 
HETATM    8  N7  UNL     1      27.064  73.758  10.161  1.00  0.00    -0.293 N 
ATOM      9  H7  UNL     1      28.022  73.529  10.429  1.00  0.00     0.172 HD
HETATM   10  C6  UNL     1      26.238  72.779   9.757  1.00  0.00     0.329 A 
HETATM   11  O1  UNL     1      26.646  71.604   9.712  1.00  0.00    -0.246 OA
ENDROOT
BRANCH   7  12
HETATM   12  N4  UNL     1      27.401  76.012  10.599  1.00  0.00    -0.325 N 
HETATM   13  C5  UNL     1      27.488  76.334  12.003  1.00  0.00     0.481 C 
HETATM   14  N5  UNL     1      28.592  77.247  12.263  1.00  0.00    -0.033 N 
HETATM   15  N6  UNL     1      26.269  77.049  12.363  1.00  0.00    -0.033 N 
ATOM     16  H53 UNL     1      29.475  76.880  11.907  1.00  0.00     0.278 HD
ATOM     17  H52 UNL     1      28.529  78.088  11.688  1.00  0.00     0.278 HD
ATOM     18  H51 UNL     1      28.654  77.476  13.256  1.00  0.00     0.278 HD
ATOM     19  H63 UNL     1      26.099  77.865  11.777  1.00  0.00     0.278 HD
ATOM     20  H62 UNL     1      25.421  76.535  12.125  1.00  0.00     0.278 HD
ATOM     21  H61 UNL     1      26.331  77.277  13.356  1.00  0.00     0.278 HD
ATOM     22  H4  UNL     1      27.932  76.549   9.914  1.00  0.00     0.165 HD
ENDBRANCH   7  12
TORSDOF 1
ENDMDL
MODEL 2
REMARK VINA RESULT: -6.956429117      1.638      1.747
REMARK  1 active torsions:
REMARK  status: ('A' for Active; 'I' for Inactive)
REMARK    1  A    between atoms: C4_7  and  N4_8 
REMARK       I    between atoms: N4_8  and  C5_10 
REMARK       I    between atoms: C5_10  and  N5_11 
REMARK       I    between atoms: C5_10  and  N6_15 
ROOT
HETATM    1  C1  UNL     1      23.670  70.821   9.262  1.00  0.00     0.162 C 
HETATM    2  N1  UNL     1      24.286  72.126   9.493  1.00  0.00    -0.290 N 
HETATM    3  C2  UNL     1      23.757  72.981  10.396  1.00  0.00     0.150 A 
HETATM    4  N2  UNL     1      22.592  72.630  11.139  1.00  0.00    -0.080 NA
HETATM    5  C3  UNL     1      24.343  74.218  10.614  1.00  0.00     0.131 A 
HETATM    6  N3  UNL     1      23.760  75.091  11.570  1.00  0.00    -0.095 NA
HETATM    7  C4  UNL     1      25.473  74.591   9.912  1.00  0.00     0.136 A 
HETATM    8  N7  UNL     1      25.974  73.713   9.019  1.00  0.00    -0.293 N 
ATOM      9  H7  UNL     1      26.808  73.961   8.485  1.00  0.00     0.172 HD
HETATM   10  C6  UNL     1      25.393  72.519   8.821  1.00  0.00     0.329 A 
HETATM   11  O1  UNL     1      25.874  71.726   7.991  1.00  0.00    -0.246 OA
ENDROOT
BRANCH   7  12
HETATM   12  N4  UNL     1      25.994  75.746  10.137  1.00  0.00    -0.325 N 
HETATM   13  C5  UNL     1      27.266  75.832  10.815  1.00  0.00     0.481 C 
HETATM   14  N5  UNL     1      27.823  77.173  10.716  1.00  0.00    -0.033 N 
HETATM   15  N6  UNL     1      27.021  75.591  12.232  1.00  0.00    -0.033 N 
ATOM     16  H53 UNL     1      27.894  77.480   9.745  1.00  0.00     0.278 HD
ATOM     17  H52 UNL     1      27.168  77.879  11.054  1.00  0.00     0.278 HD
ATOM     18  H51 UNL     1      28.722  77.233  11.196  1.00  0.00     0.278 HD
ATOM     19  H63 UNL     1      26.317  76.214  12.626  1.00  0.00     0.278 HD
ATOM     20  H62 UNL     1      26.534  74.712  12.408  1.00  0.00     0.278 HD
ATOM     21  H61 UNL     1      27.920  75.652  12.712  1.00  0.00     0.278 HD
ATOM     22  H4  UNL     1      25.513  76.594   9.838  1.00  0.00     0.165 HD
ENDBRANCH   7  12
TORSDOF 1
ENDMDL
MODEL 3
REMARK VINA RESULT: -6.740121171      2.581      3.517
REMARK  1 active torsions:
REMARK  status: ('A' for Active; 'I' for Inactive)
REMARK    1  A    between atoms: C4_7  and  N4_8 
REMARK       I    between atoms: N4_8  and  C5_10 
REMARK       I    between atoms: C5_10  and  N5_11 
REMARK       I    between atoms: C5_10  and  N6_15 
ROOT
HETATM    1  C1  UNL     1      20.990  72.637   9.694  1.00  0.00     0.162 C 
HETATM    2  N1  UNL     1      22.269  73.110  10.220  1.00  0.00    -0.290 N 
HETATM    3  C2  UNL     1      23.365  72.320  10.166  1.00  0.00     0.150 A 
HETATM    4  N2  UNL     1      23.296  71.014   9.599  1.00  0.00    -0.080 NA
HETATM    5  C3  UNL     1      24.577  72.771  10.665  1.00  0.00     0.131 A 
HETATM    6  N3  UNL     1      25.706  71.913  10.593  1.00  0.00    -0.095 NA
HETATM    7  C4  UNL     1      24.679  74.031  11.222  1.00  0.00     0.136 A 
HETATM    8  N7  UNL     1      23.567  74.793  11.259  1.00  0.00    -0.293 N 
ATOM      9  H7  UNL     1      23.612  75.728  11.664  1.00  0.00     0.172 HD
HETATM   10  C6  UNL     1      22.401  74.339  10.770  1.00  0.00     0.329 A 
HETATM   11  O1  UNL     1      21.388  75.061  10.816  1.00  0.00    -0.246 OA
ENDROOT
BRANCH   7  12
HETATM   12  N4  UNL     1      25.818  74.421  11.677  1.00  0.00    -0.325 N 
HETATM   13  C5  UNL     1      26.599  75.370  10.919  1.00  0.00     0.481 C 
HETATM   14  N5  UNL     1      27.692  75.905  11.717  1.00  0.00    -0.033 N 
HETATM   15  N6  UNL     1      27.212  74.645   9.812  1.00  0.00    -0.033 N 
ATOM     16  H53 UNL     1      27.357  76.309  12.592  1.00  0.00     0.278 HD
ATOM     17  H52 UNL     1      28.276  75.162  12.102  1.00  0.00     0.278 HD
ATOM     18  H51 UNL     1      28.244  76.576  11.181  1.00  0.00     0.278 HD
ATOM     19  H63 UNL     1      27.754  73.838  10.118  1.00  0.00     0.278 HD
ATOM     20  H62 UNL     1      26.533  74.141   9.242  1.00  0.00     0.278 HD
ATOM     21  H61 UNL     1      27.764  75.316   9.276  1.00  0.00     0.278 HD
ATOM     22  H4  UNL     1      26.167  74.062  12.566  1.00  0.00     0.165 HD
ENDBRANCH   7  12
TORSDOF 1
ENDMDL
MODEL 4
REMARK VINA RESULT: -6.715467003      2.320      5.169
REMARK  1 active torsions:
REMARK  status: ('A' for Active; 'I' for Inactive)
REMARK    1  A    between atoms: C4_7  and  N4_8 
REMARK       I    between atoms: N4_8  and  C5_10 
REMARK       I    between atoms: C5_10  and  N5_11 
REMARK       I    between atoms: C5_10  and  N6_15 
ROOT
HETATM    1  C1  UNL     1      26.765  75.505  10.304  1.00  0.00     0.162 C 
HETATM    2  N1  UNL     1      26.065  74.226  10.202  1.00  0.00    -0.290 N 
HETATM    3  C2  UNL     1      24.977  73.981  10.967  1.00  0.00     0.150 A 
HETATM    4  N2  UNL     1      24.493  74.958  11.885  1.00  0.00    -0.080 NA
HETATM    5  C3  UNL     1      24.314  72.767  10.868  1.00  0.00     0.131 A 
HETATM    6  N3  UNL     1      23.176  72.543  11.687  1.00  0.00    -0.095 NA
HETATM    7  C4  UNL     1      24.756  71.797   9.990  1.00  0.00     0.136 A 
HETATM    8  N7  UNL     1      25.843  72.076   9.242  1.00  0.00    -0.293 N 
ATOM      9  H7  UNL     1      26.193  71.379   8.584  1.00  0.00     0.172 HD
HETATM   10  C6  UNL     1      26.473  73.258   9.351  1.00  0.00     0.329 A 
HETATM   11  O1  UNL     1      27.475  73.491   8.650  1.00  0.00    -0.246 OA
ENDROOT
BRANCH   7  12
HETATM   12  N4  UNL     1      24.119  70.681   9.922  1.00  0.00    -0.325 N 
HETATM   13  C5  UNL     1      23.300  70.400   8.766  1.00  0.00     0.481 C 
HETATM   14  N5  UNL     1      22.905  68.999   8.732  1.00  0.00    -0.033 N 
HETATM   15  N6  UNL     1      22.070  71.171   8.905  1.00  0.00    -0.033 N 
ATOM     16  H53 UNL     1      23.715  68.379   8.778  1.00  0.00     0.278 HD
ATOM     17  H52 UNL     1      22.444  68.716   9.597  1.00  0.00     0.278 HD
ATOM     18  H51 UNL     1      22.326  68.801   7.915  1.00  0.00     0.278 HD
ATOM     19  H63 UNL     1      21.589  70.996   9.786  1.00  0.00     0.278 HD
ATOM     20  H62 UNL     1      22.239  72.168   9.041  1.00  0.00     0.278 HD
ATOM     21  H61 UNL     1      21.491  70.973   8.089  1.00  0.00     0.278 HD
ATOM     22  H4  UNL     1      24.192  70.000  10.677  1.00  0.00     0.165 HD
ENDBRANCH   7  12
TORSDOF 1
ENDMDL
MODEL 5
REMARK VINA RESULT: -6.695525909      1.882      2.485
REMARK  1 active torsions:
REMARK  status: ('A' for Active; 'I' for Inactive)
REMARK    1  A    between atoms: C4_7  and  N4_8 
REMARK       I    between atoms: N4_8  and  C5_10 
REMARK       I    between atoms: C5_10  and  N5_11 
REMARK       I    between atoms: C5_10  and  N6_15 
ROOT
HETATM    1  C1  UNL     1      23.596  70.955   9.505  1.00  0.00     0.162 C 
HETATM    2  N1  UNL     1      24.391  72.068  10.019  1.00  0.00    -0.290 N 
HETATM    3  C2  UNL     1      25.467  72.514   9.332  1.00  0.00     0.150 A 
HETATM    4  N2  UNL     1      25.848  71.910   8.099  1.00  0.00    -0.080 NA
HETATM    5  C3  UNL     1      26.220  73.570   9.822  1.00  0.00     0.131 A 
HETATM    6  N3  UNL     1      27.343  74.012   9.075  1.00  0.00    -0.095 NA
HETATM    7  C4  UNL     1      25.880  74.178  11.015  1.00  0.00     0.136 A 
HETATM    8  N7  UNL     1      24.800  73.708  11.673  1.00  0.00    -0.293 N 
ATOM      9  H7  UNL     1      24.524  74.138  12.557  1.00  0.00     0.172 HD
HETATM   10  C6  UNL     1      24.083  72.684  11.184  1.00  0.00     0.329 A 
HETATM   11  O1  UNL     1      23.091  72.268  11.810  1.00  0.00    -0.246 OA
ENDROOT
BRANCH   7  12
HETATM   12  N4  UNL     1      26.598  75.157  11.443  1.00  0.00    -0.325 N 
HETATM   13  C5  UNL     1      26.054  76.494  11.434  1.00  0.00     0.481 C 
HETATM   14  N5  UNL     1      26.883  77.402  12.215  1.00  0.00    -0.033 N 
HETATM   15  N6  UNL     1      26.099  76.975  10.059  1.00  0.00    -0.033 N 
ATOM     16  H53 UNL     1      27.023  77.060  13.166  1.00  0.00     0.278 HD
ATOM     17  H52 UNL     1      27.854  77.389  11.900  1.00  0.00     0.278 HD
ATOM     18  H51 UNL     1      26.499  78.347  12.208  1.00  0.00     0.278 HD
ATOM     19  H63 UNL     1      27.030  76.921   9.649  1.00  0.00     0.278 HD
ATOM     20  H62 UNL     1      25.629  76.349   9.403  1.00  0.00     0.278 HD
ATOM     21  H61 UNL     1      25.714  77.920  10.052  1.00  0.00     0.278 HD
ATOM     22  H4  UNL     1      27.544  74.989  11.786  1.00  0.00     0.165 HD
ENDBRANCH   7  12
TORSDOF 1
ENDMDL
