MODEL 1
REMARK VINA RESULT: -7.613318696      0.000      0.000
REMARK  3 active torsions:
REMARK  status: ('A' for Active; 'I' for Inactive)
REMARK    1  A    between atoms: N1_1  and  C1_4 
REMARK    2  A    between atoms: C2_7  and  C3_8 
REMARK       I    between atoms: C3_8  and  N3_10 
REMARK    3  A    between atoms: N3_10  and  N4_12 
ROOT
HETATM    1  C1  UNL     1      26.434  77.597  10.540  1.00  0.00     0.116 A 
HETATM    2  N2  UNL     1      25.879  76.546   9.883  1.00  0.00    -0.324 N 
ATOM      3  H2  UNL     1      25.244  76.737   9.108  1.00  0.00     0.169 HD
HETATM    4  C2  UNL     1      26.127  75.271  10.208  1.00  0.00     0.179 A 
HETATM    5  N5  UNL     1      26.966  75.036  11.232  1.00  0.00    -0.322 N 
ATOM      6  H5  UNL     1      27.161  74.068  11.486  1.00  0.00     0.169 HD
HETATM    7  C4  UNL     1      27.559  76.011  11.934  1.00  0.00     0.137 A 
HETATM    8  N6  UNL     1      28.410  76.061  12.969  1.00  0.00    -0.285 N 
ATOM      9  H6  UNL     1      28.791  75.244  13.446  1.00  0.00     0.188 HD
HETATM   10  N7  UNL     1      28.688  77.307  13.285  1.00  0.00    -0.309 N 
ATOM     11  H7  UNL     1      29.310  77.609  14.036  1.00  0.00     0.186 HD
HETATM   12  C5  UNL     1      28.014  78.111  12.451  1.00  0.00     0.126 A 
HETATM   13  C6  UNL     1      27.295  77.313  11.592  1.00  0.00     0.070 A 
ENDROOT
BRANCH   4  14
HETATM   14  C3  UNL     1      25.506  74.179   9.473  1.00  0.00     0.303 C 
HETATM   15  O1  UNL     1      24.268  74.223   9.155  1.00  0.00    -0.263 OA
HETATM   16  N3  UNL     1      26.211  73.020   9.067  1.00  0.00    -0.270 N 
ATOM     17  H3  UNL     1      27.201  72.940   9.299  1.00  0.00     0.189 HD
BRANCH  16  18
HETATM   18  N4  UNL     1      25.597  71.980   8.361  1.00  0.00    -0.342 N 
ATOM     19  H42 UNL     1      24.941  72.230   7.621  1.00  0.00     0.176 HD
ATOM     20  H41 UNL     1      25.786  70.998   8.562  1.00  0.00     0.176 HD
ENDBRANCH  16  18
ENDBRANCH   4  14
BRANCH   1  21
HETATM   21  N1  UNL     1      26.187  78.800  10.219  1.00  0.00    -0.385 N 
ATOM     22  H12 UNL     1      25.641  79.009   9.382  1.00  0.00     0.157 HD
ATOM     23  H11 UNL     1      26.519  79.588  10.774  1.00  0.00     0.157 HD
ENDBRANCH   1  21
TORSDOF 3
ENDMDL
MODEL 2
REMARK VINA RESULT: -7.554738478      1.334      1.371
REMARK  3 active torsions:
REMARK  status: ('A' for Active; 'I' for Inactive)
REMARK    1  A    between atoms: N1_1  and  C1_4 
REMARK    2  A    between atoms: C2_7  and  C3_8 
REMARK       I    between atoms: C3_8  and  N3_10 
REMARK    3  A    between atoms: N3_10  and  N4_12 
ROOT
HETATM    1  C1  UNL     1      26.436  77.799  10.620  1.00  0.00     0.116 A 
HETATM    2  N2  UNL     1      25.665  76.880   9.984  1.00  0.00    -0.324 N 
ATOM      3  H2  UNL     1      25.023  77.200   9.259  1.00  0.00     0.169 HD
HETATM    4  C2  UNL     1      25.711  75.571  10.266  1.00  0.00     0.179 A 
HETATM    5  N5  UNL     1      26.562  75.165  11.222  1.00  0.00    -0.322 N 
ATOM      6  H5  UNL     1      26.603  74.170  11.443  1.00  0.00     0.169 HD
HETATM    7  C4  UNL     1      27.360  76.001  11.900  1.00  0.00     0.137 A 
HETATM    8  N6  UNL     1      28.274  75.873  12.873  1.00  0.00    -0.285 N 
ATOM      9  H6  UNL     1      28.539  74.988  13.306  1.00  0.00     0.188 HD
HETATM   10  N7  UNL     1      28.784  77.042  13.192  1.00  0.00    -0.309 N 
ATOM     11  H7  UNL     1      29.496  77.209  13.903  1.00  0.00     0.186 HD
HETATM   12  C5  UNL     1      28.205  77.975  12.424  1.00  0.00     0.126 A 
HETATM   13  C6  UNL     1      27.304  77.339  11.603  1.00  0.00     0.070 A 
ENDROOT
BRANCH   4  14
HETATM   14  C3  UNL     1      24.862  74.626   9.555  1.00  0.00     0.303 C 
HETATM   15  O1  UNL     1      25.366  73.617   8.951  1.00  0.00    -0.263 OA
HETATM   16  N3  UNL     1      23.454  74.753   9.484  1.00  0.00    -0.270 N 
ATOM     17  H3  UNL     1      23.007  75.543   9.950  1.00  0.00     0.189 HD
BRANCH  16  18
HETATM   18  N4  UNL     1      22.653  73.834   8.796  1.00  0.00    -0.342 N 
ATOM     19  H42 UNL     1      22.541  73.960   7.790  1.00  0.00     0.176 HD
ATOM     20  H41 UNL     1      22.189  73.056   9.266  1.00  0.00     0.176 HD
ENDBRANCH  16  18
ENDBRANCH   4  14
BRANCH   1  21
HETATM   21  N1  UNL     1      26.381  79.036  10.340  1.00  0.00    -0.385 N 
ATOM     22  H12 UNL     1      25.493  79.537  10.395  1.00  0.00     0.157 HD
ATOM     23  H11 UNL     1      27.205  79.565  10.056  1.00  0.00     0.157 HD
ENDBRANCH   1  21
TORSDOF 3
ENDMDL
MODEL 3
REMARK VINA RESULT: -7.328993726      2.438      5.313
REMARK  3 active torsions:
REMARK  status: ('A' for Active; 'I' for Inactive)
REMARK    1  A    between atoms: N1_1  and  C1_4 
REMARK    2  A    between atoms: C2_7  and  C3_8 
REMARK       I    between atoms: C3_8  and  N3_10 
REMARK    3  A    between atoms: N3_10  and  N4_12 
ROOT
HETATM    1  C1  UNL     1      23.336  74.304  10.434  1.00  0.00     0.116 A 
HETATM    2  N2  UNL     1      24.203  75.216  10.942  1.00  0.00    -0.324 N 
ATOM      3  H2  UNL     1      23.865  76.160  11.125  1.00  0.00     0.169 HD
HETATM    4  C2  UNL     1      25.483  74.930  11.215  1.00  0.00     0.179 A 
HETATM    5  N5  UNL     1      25.913  73.681  10.969  1.00  0.00    -0.322 N 
ATOM      6  H5  UNL     1      26.886  73.455  11.174  1.00  0.00     0.169 HD
HETATM    7  C4  UNL     1      25.127  72.718  10.469  1.00  0.00     0.137 A 
HETATM    8  N6  UNL     1      25.288  71.429  10.137  1.00  0.00    -0.285 N 
ATOM      9  H6  UNL     1      26.162  70.911  10.229  1.00  0.00     0.188 HD
HETATM   10  N7  UNL     1      24.166  70.922   9.676  1.00  0.00    -0.309 N 
ATOM     11  H7  UNL     1      24.030  69.962   9.357  1.00  0.00     0.186 HD
HETATM   12  C5  UNL     1      23.232  71.883   9.697  1.00  0.00     0.126 A 
HETATM   13  C6  UNL     1      23.818  73.023  10.193  1.00  0.00     0.070 A 
ENDROOT
BRANCH   4  14
HETATM   14  C3  UNL     1      26.374  75.944  11.759  1.00  0.00     0.303 C 
HETATM   15  O1  UNL     1      25.976  77.149  11.921  1.00  0.00    -0.263 OA
HETATM   16  N3  UNL     1      27.712  75.675  12.138  1.00  0.00    -0.270 N 
ATOM     17  H3  UNL     1      28.074  74.728  12.026  1.00  0.00     0.189 HD
BRANCH  16  18
HETATM   18  N4  UNL     1      28.555  76.663  12.659  1.00  0.00    -0.342 N 
ATOM     19  H42 UNL     1      28.382  76.981  13.613  1.00  0.00     0.176 HD
ATOM     20  H41 UNL     1      29.322  77.066  12.121  1.00  0.00     0.176 HD
ENDBRANCH  16  18
ENDBRANCH   4  14
BRANCH   1  21
HETATM   21  N1  UNL     1      22.126  74.592  10.181  1.00  0.00    -0.385 N 
ATOM     22  H12 UNL     1      21.379  74.274  10.800  1.00  0.00     0.157 HD
ATOM     23  H11 UNL     1      21.859  75.141   9.364  1.00  0.00     0.157 HD
ENDBRANCH   1  21
TORSDOF 3
ENDMDL
MODEL 4
REMARK VINA RESULT: -7.308828036      1.145      2.601
REMARK  3 active torsions:
REMARK  status: ('A' for Active; 'I' for Inactive)
REMARK    1  A    between atoms: N1_1  and  C1_4 
REMARK    2  A    between atoms: C2_7  and  C3_8 
REMARK       I    between atoms: C3_8  and  N3_10 
REMARK    3  A    between atoms: N3_10  and  N4_12 
ROOT
HETATM    1  C1  UNL     1      27.249  75.923  11.648  1.00  0.00     0.116 A 
HETATM    2  N2  UNL     1      26.655  74.766  11.260  1.00  0.00    -0.324 N 
ATOM      3  H2  UNL     1      26.943  73.896  11.708  1.00  0.00     0.169 HD
HETATM    4  C2  UNL     1      25.707  74.716  10.315  1.00  0.00     0.179 A 
HETATM    5  N5  UNL     1      25.338  75.870   9.734  1.00  0.00    -0.322 N 
ATOM      6  H5  UNL     1      24.617  75.840   9.013  1.00  0.00     0.169 HD
HETATM    7  C4  UNL     1      25.870  77.057  10.054  1.00  0.00     0.137 A 
HETATM    8  N6  UNL     1      25.697  78.323   9.649  1.00  0.00    -0.285 N 
ATOM      9  H6  UNL     1      25.035  78.616   8.930  1.00  0.00     0.188 HD
HETATM   10  N7  UNL     1      26.495  79.137  10.304  1.00  0.00    -0.309 N 
ATOM     11  H7  UNL     1      26.553  80.148  10.178  1.00  0.00     0.186 HD
HETATM   12  C5  UNL     1      27.219  78.409  11.166  1.00  0.00     0.126 A 
HETATM   13  C6  UNL     1      26.841  77.095  11.023  1.00  0.00     0.070 A 
ENDROOT
BRANCH   4  14
HETATM   14  C3  UNL     1      25.100  73.448   9.934  1.00  0.00     0.303 C 
HETATM   15  O1  UNL     1      24.232  73.391   8.997  1.00  0.00    -0.263 OA
HETATM   16  N3  UNL     1      25.421  72.219  10.560  1.00  0.00    -0.270 N 
ATOM     17  H3  UNL     1      26.108  72.215  11.314  1.00  0.00     0.189 HD
BRANCH  16  18
HETATM   18  N4  UNL     1      24.828  71.010  10.181  1.00  0.00    -0.342 N 
ATOM     19  H42 UNL     1      24.485  70.396  10.919  1.00  0.00     0.176 HD
ATOM     20  H41 UNL     1      24.730  70.733   9.203  1.00  0.00     0.176 HD
ENDBRANCH  16  18
ENDBRANCH   4  14
BRANCH   1  21
HETATM   21  N1  UNL     1      28.147  75.953  12.545  1.00  0.00    -0.385 N 
ATOM     22  H12 UNL     1      28.899  76.641  12.500  1.00  0.00     0.157 HD
ATOM     23  H11 UNL     1      28.150  75.302  13.330  1.00  0.00     0.157 HD
ENDBRANCH   1  21
TORSDOF 3
ENDMDL
MODEL 5
REMARK VINA RESULT: -7.250857398      2.142      5.320
REMARK  3 active torsions:
REMARK  status: ('A' for Active; 'I' for Inactive)
REMARK    1  A    between atoms: N1_1  and  C1_4 
REMARK    2  A    between atoms: C2_7  and  C3_8 
REMARK       I    between atoms: C3_8  and  N3_10 
REMARK    3  A    between atoms: N3_10  and  N4_12 
ROOT
HETATM    1  C1  UNL     1      24.482  73.715  11.175  1.00  0.00     0.116 A 
HETATM    2  N2  UNL     1      25.307  74.694  11.626  1.00  0.00    -0.324 N 
ATOM      3  H2  UNL     1      25.019  75.238  12.439  1.00  0.00     0.169 HD
HETATM    4  C2  UNL     1      26.484  74.976  11.051  1.00  0.00     0.179 A 
HETATM    5  N5  UNL     1      26.850  74.249   9.982  1.00  0.00    -0.322 N 
ATOM      6  H5  UNL     1      27.744  74.458   9.539  1.00  0.00     0.169 HD
HETATM    7  C4  UNL     1      26.099  73.265   9.470  1.00  0.00     0.137 A 
HETATM    8  N6  UNL     1      26.215  72.409   8.445  1.00  0.00    -0.285 N 
ATOM      9  H6  UNL     1      27.011  72.371   7.808  1.00  0.00     0.188 HD
HETATM   10  N7  UNL     1      25.164  71.622   8.373  1.00  0.00    -0.309 N 
ATOM     11  H7  UNL     1      25.014  70.887   7.681  1.00  0.00     0.186 HD
HETATM   12  C5  UNL     1      24.325  71.952   9.364  1.00  0.00     0.126 A 
HETATM   13  C6  UNL     1      24.895  72.987  10.067  1.00  0.00     0.070 A 
ENDROOT
BRANCH   4  14
HETATM   14  C3  UNL     1      27.333  76.037  11.573  1.00  0.00     0.303 C 
HETATM   15  O1  UNL     1      27.350  77.193  11.028  1.00  0.00    -0.263 OA
HETATM   16  N3  UNL     1      28.181  75.867  12.695  1.00  0.00    -0.270 N 
ATOM     17  H3  UNL     1      28.202  74.960  13.163  1.00  0.00     0.189 HD
BRANCH  16  18
HETATM   18  N4  UNL     1      28.991  76.898  13.183  1.00  0.00    -0.342 N 
ATOM     19  H42 UNL     1      29.131  77.715  12.589  1.00  0.00     0.176 HD
ATOM     20  H41 UNL     1      29.437  76.854  14.100  1.00  0.00     0.176 HD
ENDBRANCH  16  18
ENDBRANCH   4  14
BRANCH   1  21
HETATM   21  N1  UNL     1      23.369  73.461  11.731  1.00  0.00    -0.385 N 
ATOM     22  H12 UNL     1      22.522  73.368  11.171  1.00  0.00     0.157 HD
ATOM     23  H11 UNL     1      23.282  73.344  12.741  1.00  0.00     0.157 HD
ENDBRANCH   1  21
TORSDOF 3
ENDMDL
