MODEL 1
REMARK VINA RESULT: -8.337378986      0.000      0.000
REMARK  7 active torsions:
REMARK  status: ('A' for Active; 'I' for Inactive)
REMARK    1  A    between atoms: C2_2  and  C3_3 
REMARK    2  A    between atoms: C8_10  and  S1_11 
REMARK    3  A    between atoms: S1_11  and  C9_12 
REMARK    4  A    between atoms: C13_18  and  N2_19 
REMARK    5  A    between atoms: N2_19  and  C14_21 
REMARK    6  A    between atoms: C14_21  and  C16_24 
REMARK    7  A    between atoms: C16_24  and  C17_25 
ROOT
HETATM    1  C14 UNL     1      82.133   4.163  59.862  1.00  0.00     0.207 C 
HETATM    2  C15 UNL     1      81.200   5.078  59.154  1.00  0.00     0.085 C 
HETATM    3  N3  UNL     1      80.479   5.794  58.601  1.00  0.00    -0.195 NA
ENDROOT
BRANCH   1   4
HETATM    4  N2  UNL     1      83.259   4.002  59.001  1.00  0.00    -0.209 N 
ATOM      5  H2  UNL     1      83.564   4.802  58.446  1.00  0.00     0.179 HD
BRANCH   4   6
HETATM    6  C13 UNL     1      83.919   2.881  58.888  1.00  0.00     0.680 A 
HETATM    7  N1  UNL     1      83.415   1.847  58.205  1.00  0.00    -0.196 N 
HETATM    8  C11 UNL     1      84.071   0.687  58.074  1.00  0.00     0.025 A 
ATOM      9  H1  UNL     1      82.499   1.945  57.768  1.00  0.00     0.184 HD
HETATM   10  C10 UNL     1      85.307   0.568  58.668  1.00  0.00     0.063 A 
HETATM   11  C12 UNL     1      83.475  -0.441  57.304  1.00  0.00     0.069 C 
HETATM   12  C9  UNL     1      85.858   1.604  59.377  1.00  0.00     0.093 A 
HETATM   13  N4  UNL     1      85.127   2.735  59.456  1.00  0.00    -0.185 N 
ATOM     14  H4  UNL     1      85.513   3.523  59.977  1.00  0.00     0.185 HD
BRANCH  12  15
HETATM   15  S1  UNL     1      87.467   1.472  60.160  1.00  0.00    -0.068 SA
BRANCH  15  16
HETATM   16  C8  UNL     1      87.230   1.485  61.928  1.00  0.00     0.056 A 
HETATM   17  C3  UNL     1      88.134   2.103  62.741  1.00  0.00    -0.014 A 
HETATM   18  C4  UNL     1      87.907   2.043  64.136  1.00  0.00     0.055 A 
HETATM   19  C5  UNL     1      86.827   1.396  64.659  1.00  0.00     0.120 A 
HETATM   20  F1  UNL     1      86.671   1.380  66.030  1.00  0.00    -0.206 F 
HETATM   21  C6  UNL     1      85.924   0.781  63.835  1.00  0.00     0.086 A 
HETATM   22  C7  UNL     1      86.125   0.825  62.489  1.00  0.00     0.137 A 
HETATM   23  F2  UNL     1      85.262   0.231  61.605  1.00  0.00    -0.205 F 
BRANCH  17  24
HETATM   24  C2  UNL     1      89.325   2.792  62.276  1.00  0.00     0.003 C 
HETATM   25  C1  UNL     1      90.534   2.609  62.668  1.00  0.00     0.012 C 
ENDBRANCH  17  24
ENDBRANCH  15  16
ENDBRANCH  12  15
ENDBRANCH   4   6
ENDBRANCH   1   4
BRANCH   1  26
HETATM   26  C16 UNL     1      82.397   4.779  61.186  1.00  0.00     0.049 C 
BRANCH  26  27
HETATM   27  C17 UNL     1      82.795   3.879  62.293  1.00  0.00    -0.049 C 
HETATM   28  C18 UNL     1      84.268   3.980  62.557  1.00  0.00     0.014 C 
HETATM   29  C19 UNL     1      82.342   2.449  62.103  1.00  0.00     0.014 C 
HETATM   30  C20 UNL     1      82.101   4.361  63.575  1.00  0.00     0.014 C 
ENDBRANCH  26  27
ENDBRANCH   1  26
TORSDOF 7
ENDMDL
MODEL 2
REMARK VINA RESULT: -8.302971614      2.496      3.459
REMARK  7 active torsions:
REMARK  status: ('A' for Active; 'I' for Inactive)
REMARK    1  A    between atoms: C2_2  and  C3_3 
REMARK    2  A    between atoms: C8_10  and  S1_11 
REMARK    3  A    between atoms: S1_11  and  C9_12 
REMARK    4  A    between atoms: C13_18  and  N2_19 
REMARK    5  A    between atoms: N2_19  and  C14_21 
REMARK    6  A    between atoms: C14_21  and  C16_24 
REMARK    7  A    between atoms: C16_24  and  C17_25 
ROOT
HETATM    1  C14 UNL     1      81.536   5.397  62.133  1.00  0.00     0.207 C 
HETATM    2  C15 UNL     1      81.602   6.704  62.838  1.00  0.00     0.085 C 
HETATM    3  N3  UNL     1      81.656   7.718  63.392  1.00  0.00    -0.195 NA
ENDROOT
BRANCH   1   4
HETATM    4  N2  UNL     1      82.821   4.797  62.290  1.00  0.00    -0.209 N 
ATOM      5  H2  UNL     1      83.416   5.119  63.053  1.00  0.00     0.179 HD
BRANCH   4   6
HETATM    6  C13 UNL     1      83.272   3.857  61.505  1.00  0.00     0.680 A 
HETATM    7  N1  UNL     1      82.979   3.845  60.199  1.00  0.00    -0.196 N 
HETATM    8  C11 UNL     1      83.428   2.892  59.373  1.00  0.00     0.025 A 
ATOM      9  H1  UNL     1      82.393   4.588  59.820  1.00  0.00     0.184 HD
HETATM   10  C10 UNL     1      84.220   1.896  59.899  1.00  0.00     0.063 A 
HETATM   11  C12 UNL     1      83.081   2.916  57.925  1.00  0.00     0.069 C 
HETATM   12  C9  UNL     1      84.541   1.872  61.231  1.00  0.00     0.093 A 
HETATM   13  N4  UNL     1      84.045   2.871  61.988  1.00  0.00    -0.185 N 
ATOM     14  H4  UNL     1      84.270   2.879  62.984  1.00  0.00     0.185 HD
BRANCH  12  15
HETATM   15  S1  UNL     1      85.570   0.583  61.938  1.00  0.00    -0.068 SA
BRANCH  15  16
HETATM   16  C8  UNL     1      87.188   1.267  62.248  1.00  0.00     0.056 A 
HETATM   17  C3  UNL     1      87.578   1.568  63.519  1.00  0.00    -0.014 A 
HETATM   18  C4  UNL     1      88.858   2.144  63.691  1.00  0.00     0.055 A 
HETATM   19  C5  UNL     1      89.682   2.391  62.633  1.00  0.00     0.120 A 
HETATM   20  F1  UNL     1      90.917   2.954  62.877  1.00  0.00    -0.206 F 
HETATM   21  C6  UNL     1      89.282   2.082  61.360  1.00  0.00     0.086 A 
HETATM   22  C7  UNL     1      88.052   1.529  61.172  1.00  0.00     0.137 A 
HETATM   23  F2  UNL     1      87.587   1.195  59.928  1.00  0.00    -0.205 F 
BRANCH  17  24
HETATM   24  C2  UNL     1      86.760   1.367  64.703  1.00  0.00     0.003 C 
HETATM   25  C1  UNL     1      87.106   0.800  65.801  1.00  0.00     0.012 C 
ENDBRANCH  17  24
ENDBRANCH  15  16
ENDBRANCH  12  15
ENDBRANCH   4   6
ENDBRANCH   1   4
BRANCH   1  26
HETATM   26  C16 UNL     1      80.388   4.664  62.720  1.00  0.00     0.049 C 
BRANCH  26  27
HETATM   27  C17 UNL     1      79.347   4.163  61.793  1.00  0.00    -0.049 C 
HETATM   28  C18 UNL     1      79.815   2.923  61.088  1.00  0.00     0.014 C 
HETATM   29  C19 UNL     1      78.838   5.213  60.831  1.00  0.00     0.014 C 
HETATM   30  C20 UNL     1      78.127   3.742  62.624  1.00  0.00     0.014 C 
ENDBRANCH  26  27
ENDBRANCH   1  26
TORSDOF 7
ENDMDL
MODEL 3
REMARK VINA RESULT: -8.094936787      2.059      2.799
REMARK  7 active torsions:
REMARK  status: ('A' for Active; 'I' for Inactive)
REMARK    1  A    between atoms: C2_2  and  C3_3 
REMARK    2  A    between atoms: C8_10  and  S1_11 
REMARK    3  A    between atoms: S1_11  and  C9_12 
REMARK    4  A    between atoms: C13_18  and  N2_19 
REMARK    5  A    between atoms: N2_19  and  C14_21 
REMARK    6  A    between atoms: C14_21  and  C16_24 
REMARK    7  A    between atoms: C16_24  and  C17_25 
ROOT
HETATM    1  C14 UNL     1      81.347   4.354  59.592  1.00  0.00     0.207 C 
HETATM    2  C15 UNL     1      80.782   5.397  58.696  1.00  0.00     0.085 C 
HETATM    3  N3  UNL     1      80.348   6.212  57.999  1.00  0.00    -0.195 NA
ENDROOT
BRANCH   1   4
HETATM    4  N2  UNL     1      82.725   4.236  59.242  1.00  0.00    -0.209 N 
ATOM      5  H2  UNL     1      83.132   4.942  58.630  1.00  0.00     0.179 HD
BRANCH   4   6
HETATM    6  C13 UNL     1      83.490   3.267  59.667  1.00  0.00     0.680 A 
HETATM    7  N1  UNL     1      83.818   2.244  58.870  1.00  0.00    -0.196 N 
HETATM    8  C11 UNL     1      84.601   1.238  59.280  1.00  0.00     0.025 A 
ATOM      9  H1  UNL     1      83.459   2.229  57.915  1.00  0.00     0.184 HD
HETATM   10  C10 UNL     1      85.079   1.272  60.571  1.00  0.00     0.063 A 
HETATM   11  C12 UNL     1      84.944   0.117  58.361  1.00  0.00     0.069 C 
HETATM   12  C9  UNL     1      84.766   2.302  61.419  1.00  0.00     0.093 A 
HETATM   13  N4  UNL     1      83.972   3.272  60.920  1.00  0.00    -0.185 N 
ATOM     14  H4  UNL     1      83.723   4.052  61.529  1.00  0.00     0.185 HD
BRANCH  12  15
HETATM   15  S1  UNL     1      85.376   2.366  63.105  1.00  0.00    -0.068 SA
BRANCH  15  16
HETATM   16  C8  UNL     1      87.158   2.299  63.056  1.00  0.00     0.056 A 
HETATM   17  C3  UNL     1      87.855   1.726  64.079  1.00  0.00    -0.014 A 
HETATM   18  C4  UNL     1      89.267   1.741  63.996  1.00  0.00     0.055 A 
HETATM   19  C5  UNL     1      89.918   2.301  62.937  1.00  0.00     0.120 A 
HETATM   20  F1  UNL     1      91.297   2.277  62.925  1.00  0.00    -0.206 F 
HETATM   21  C6  UNL     1      89.209   2.872  61.914  1.00  0.00     0.086 A 
HETATM   22  C7  UNL     1      87.849   2.870  61.975  1.00  0.00     0.137 A 
HETATM   23  F2  UNL     1      87.076   3.423  60.988  1.00  0.00    -0.205 F 
BRANCH  17  24
HETATM   24  C2  UNL     1      87.250   1.129  65.257  1.00  0.00     0.003 C 
HETATM   25  C1  UNL     1      87.853   0.656  66.287  1.00  0.00     0.012 C 
ENDBRANCH  17  24
ENDBRANCH  15  16
ENDBRANCH  12  15
ENDBRANCH   4   6
ENDBRANCH   1   4
BRANCH   1  26
HETATM   26  C16 UNL     1      81.053   4.792  60.979  1.00  0.00     0.049 C 
BRANCH  26  27
HETATM   27  C17 UNL     1      80.187   3.919  61.805  1.00  0.00    -0.049 C 
HETATM   28  C18 UNL     1      80.585   3.989  63.250  1.00  0.00     0.014 C 
HETATM   29  C19 UNL     1      80.107   2.496  61.300  1.00  0.00     0.014 C 
HETATM   30  C20 UNL     1      78.753   4.460  61.734  1.00  0.00     0.014 C 
ENDBRANCH  26  27
ENDBRANCH   1  26
TORSDOF 7
ENDMDL
MODEL 4
REMARK VINA RESULT: -7.961353940      2.394      4.084
REMARK  7 active torsions:
REMARK  status: ('A' for Active; 'I' for Inactive)
REMARK    1  A    between atoms: C2_2  and  C3_3 
REMARK    2  A    between atoms: C8_10  and  S1_11 
REMARK    3  A    between atoms: S1_11  and  C9_12 
REMARK    4  A    between atoms: C13_18  and  N2_19 
REMARK    5  A    between atoms: N2_19  and  C14_21 
REMARK    6  A    between atoms: C14_21  and  C16_24 
REMARK    7  A    between atoms: C16_24  and  C17_25 
ROOT
HETATM    1  C14 UNL     1      82.210   4.142  59.864  1.00  0.00     0.207 C 
HETATM    2  C15 UNL     1      83.123   4.191  58.691  1.00  0.00     0.085 C 
HETATM    3  N3  UNL     1      83.836   4.236  57.782  1.00  0.00    -0.195 NA
ENDROOT
BRANCH   1   4
HETATM    4  N2  UNL     1      83.024   4.387  61.010  1.00  0.00    -0.209 N 
ATOM      5  H2  UNL     1      83.581   5.241  61.035  1.00  0.00     0.179 HD
BRANCH   4   6
HETATM    6  C13 UNL     1      83.092   3.572  62.027  1.00  0.00     0.680 A 
HETATM    7  N1  UNL     1      82.242   3.678  63.056  1.00  0.00    -0.196 N 
HETATM    8  C11 UNL     1      82.289   2.855  64.111  1.00  0.00     0.025 A 
ATOM      9  H1  UNL     1      81.533   4.410  63.035  1.00  0.00     0.184 HD
HETATM   10  C10 UNL     1      83.251   1.870  64.125  1.00  0.00     0.063 A 
HETATM   11  C12 UNL     1      81.324   3.005  65.236  1.00  0.00     0.069 C 
HETATM   12  C9  UNL     1      84.140   1.730  63.092  1.00  0.00     0.093 A 
HETATM   13  N4  UNL     1      84.019   2.602  62.070  1.00  0.00    -0.185 N 
ATOM     14  H4  UNL     1      84.667   2.520  61.286  1.00  0.00     0.185 HD
BRANCH  12  15
HETATM   15  S1  UNL     1      85.402   0.454  63.088  1.00  0.00    -0.068 SA
BRANCH  15  16
HETATM   16  C8  UNL     1      86.992   1.242  62.899  1.00  0.00     0.056 A 
HETATM   17  C3  UNL     1      87.783   1.469  63.986  1.00  0.00    -0.014 A 
HETATM   18  C4  UNL     1      89.014   2.133  63.771  1.00  0.00     0.055 A 
HETATM   19  C5  UNL     1      89.405   2.532  62.528  1.00  0.00     0.120 A 
HETATM   20  F1  UNL     1      90.620   3.173  62.395  1.00  0.00    -0.206 F 
HETATM   21  C6  UNL     1      88.605   2.297  61.442  1.00  0.00     0.086 A 
HETATM   22  C7  UNL     1      87.415   1.661  61.628  1.00  0.00     0.137 A 
HETATM   23  F2  UNL     1      86.564   1.394  60.588  1.00  0.00    -0.205 F 
BRANCH  17  24
HETATM   24  C2  UNL     1      87.437   1.104  65.349  1.00  0.00     0.003 C 
HETATM   25  C1  UNL     1      88.232   0.990  66.350  1.00  0.00     0.012 C 
ENDBRANCH  17  24
ENDBRANCH  15  16
ENDBRANCH  12  15
ENDBRANCH   4   6
ENDBRANCH   1   4
BRANCH   1  26
HETATM   26  C16 UNL     1      81.133   5.126  59.596  1.00  0.00     0.049 C 
BRANCH  26  27
HETATM   27  C17 UNL     1      79.894   5.022  60.399  1.00  0.00    -0.049 C 
HETATM   28  C18 UNL     1      79.951   5.938  61.586  1.00  0.00     0.014 C 
HETATM   29  C19 UNL     1      79.541   3.603  60.786  1.00  0.00     0.014 C 
HETATM   30  C20 UNL     1      78.721   5.515  59.540  1.00  0.00     0.014 C 
ENDBRANCH  26  27
ENDBRANCH   1  26
TORSDOF 7
ENDMDL
MODEL 5
REMARK VINA RESULT: -7.955742518      2.282      3.330
REMARK  7 active torsions:
REMARK  status: ('A' for Active; 'I' for Inactive)
REMARK    1  A    between atoms: C2_2  and  C3_3 
REMARK    2  A    between atoms: C8_10  and  S1_11 
REMARK    3  A    between atoms: S1_11  and  C9_12 
REMARK    4  A    between atoms: C13_18  and  N2_19 
REMARK    5  A    between atoms: N2_19  and  C14_21 
REMARK    6  A    between atoms: C14_21  and  C16_24 
REMARK    7  A    between atoms: C16_24  and  C17_25 
ROOT
HETATM    1  C14 UNL     1      81.957   5.643  62.244  1.00  0.00     0.207 C 
HETATM    2  C15 UNL     1      81.911   6.813  63.159  1.00  0.00     0.085 C 
HETATM    3  N3  UNL     1      81.874   7.720  63.877  1.00  0.00    -0.195 NA
ENDROOT
BRANCH   1   4
HETATM    4  N2  UNL     1      82.890   4.728  62.818  1.00  0.00    -0.209 N 
ATOM      5  H2  UNL     1      83.047   4.765  63.825  1.00  0.00     0.179 HD
BRANCH   4   6
HETATM    6  C13 UNL     1      83.551   3.847  62.118  1.00  0.00     0.680 A 
HETATM    7  N1  UNL     1      83.724   3.998  60.800  1.00  0.00    -0.196 N 
HETATM    8  C11 UNL     1      84.398   3.110  60.059  1.00  0.00     0.025 A 
ATOM      9  H1  UNL     1      83.329   4.820  60.344  1.00  0.00     0.184 HD
HETATM   10  C10 UNL     1      84.927   2.006  60.689  1.00  0.00     0.063 A 
HETATM   11  C12 UNL     1      84.569   3.316  58.594  1.00  0.00     0.069 C 
HETATM   12  C9  UNL     1      84.771   1.814  62.037  1.00  0.00     0.093 A 
HETATM   13  N4  UNL     1      84.078   2.760  62.704  1.00  0.00    -0.185 N 
ATOM     14  H4  UNL     1      83.948   2.643  63.710  1.00  0.00     0.185 HD
BRANCH  12  15
HETATM   15  S1  UNL     1      85.450   0.383  62.880  1.00  0.00    -0.068 SA
BRANCH  15  16
HETATM   16  C8  UNL     1      86.498   0.959  64.203  1.00  0.00     0.056 A 
HETATM   17  C3  UNL     1      87.647   1.640  63.925  1.00  0.00    -0.014 A 
HETATM   18  C4  UNL     1      88.453   2.035  65.020  1.00  0.00     0.055 A 
HETATM   19  C5  UNL     1      88.102   1.753  66.307  1.00  0.00     0.120 A 
HETATM   20  F1  UNL     1      88.937   2.171  67.322  1.00  0.00    -0.206 F 
HETATM   21  C6  UNL     1      86.946   1.071  66.574  1.00  0.00     0.086 A 
HETATM   22  C7  UNL     1      86.157   0.680  65.535  1.00  0.00     0.137 A 
HETATM   23  F2  UNL     1      84.987  -0.006  65.729  1.00  0.00    -0.205 F 
BRANCH  17  24
HETATM   24  C2  UNL     1      88.114   1.962  62.588  1.00  0.00     0.003 C 
HETATM   25  C1  UNL     1      89.284   2.364  62.247  1.00  0.00     0.012 C 
ENDBRANCH  17  24
ENDBRANCH  15  16
ENDBRANCH  12  15
ENDBRANCH   4   6
ENDBRANCH   1   4
BRANCH   1  26
HETATM   26  C16 UNL     1      80.559   5.163  62.108  1.00  0.00     0.049 C 
BRANCH  26  27
HETATM   27  C17 UNL     1      80.108   4.738  60.764  1.00  0.00    -0.049 C 
HETATM   28  C18 UNL     1      80.149   3.243  60.637  1.00  0.00     0.014 C 
HETATM   29  C19 UNL     1      80.838   5.429  59.634  1.00  0.00     0.014 C 
HETATM   30  C20 UNL     1      78.635   5.137  60.603  1.00  0.00     0.014 C 
ENDBRANCH  26  27
ENDBRANCH   1  26
TORSDOF 7
ENDMDL
