MODEL 1
REMARK VINA RESULT: -8.548332119      0.000      0.000
REMARK  6 active torsions:
REMARK  status: ('A' for Active; 'I' for Inactive)
REMARK    1  A    between atoms: C2_2  and  C3_3 
REMARK    2  A    between atoms: C3_3  and  C4_4 
REMARK    3  A    between atoms: C3_3  and  N1_6 
REMARK    4  A    between atoms: N1_6  and  C6_8 
REMARK    5  A    between atoms: C9_16  and  C10_17 
REMARK    6  A    between atoms: C16_24  and  C17_25 
ROOT
HETATM    1  C6  UNL     1      83.806   2.795  60.089  1.00  0.00     0.118 A 
HETATM    2  N2  UNL     1      83.134   3.358  59.064  1.00  0.00    -0.338 N 
ATOM      3  H2  UNL     1      82.115   3.406  59.050  1.00  0.00     0.168 HD
HETATM    4  C7  UNL     1      83.878   3.851  58.063  1.00  0.00     0.184 A 
HETATM    5  N3  UNL     1      85.216   3.827  58.012  1.00  0.00    -0.332 N 
ATOM      6  H3  UNL     1      85.716   4.225  57.216  1.00  0.00     0.168 HD
HETATM    7  C8  UNL     1      85.883   3.268  59.030  1.00  0.00     0.164 A 
HETATM    8  O1  UNL     1      87.154   3.098  59.261  1.00  0.00    -0.291 OA
HETATM    9  C9  UNL     1      87.357   2.486  60.415  1.00  0.00     0.102 A 
HETATM   10  C16 UNL     1      86.115   2.238  60.983  1.00  0.00     0.051 A 
HETATM   11  C21 UNL     1      85.193   2.740  60.091  1.00  0.00     0.075 A 
ENDROOT
BRANCH   1  12
HETATM   12  N1  UNL     1      83.207   2.287  61.106  1.00  0.00    -0.368 N 
ATOM     13  H1  UNL     1      83.347   1.294  61.289  1.00  0.00     0.161 HD
BRANCH  12  14
HETATM   14  C3  UNL     1      82.353   3.017  62.007  1.00  0.00     0.105 C 
BRANCH  14  15
HETATM   15  C2  UNL     1      81.965   2.073  63.100  1.00  0.00    -0.012 C 
HETATM   16  C1  UNL     1      82.215   2.422  64.359  1.00  0.00     0.009 C 
ENDBRANCH  14  15
BRANCH  14  17
HETATM   17  C4  UNL     1      83.052   4.192  62.620  1.00  0.00     0.024 C 
HETATM   18  C5  UNL     1      82.276   5.453  62.286  1.00  0.00     0.007 C 
ENDBRANCH  14  17
ENDBRANCH  12  14
ENDBRANCH   1  12
BRANCH  10  19
HETATM   19  C17 UNL     1      85.817   1.582  62.258  1.00  0.00     0.092 A 
HETATM   20  C18 UNL     1      86.058   2.169  63.490  1.00  0.00     0.043 A 
HETATM   21  C19 UNL     1      85.656   1.262  64.434  1.00  0.00     0.072 A 
HETATM   22  C20 UNL     1      85.183   0.152  63.770  1.00  0.00     0.230 A 
HETATM   23  F2  UNL     1      84.700  -0.948  64.395  1.00  0.00    -0.178 F 
HETATM   24  O2  UNL     1      85.311   0.416  62.493  1.00  0.00    -0.283 OA
ENDBRANCH  10  19
BRANCH   9  25
HETATM   25  C10 UNL     1      88.639   2.134  60.995  1.00  0.00    -0.001 A 
HETATM   26  C11 UNL     1      89.169   2.743  62.111  1.00  0.00     0.017 A 
HETATM   27  C12 UNL     1      90.397   2.370  62.623  1.00  0.00     0.043 A 
HETATM   28  C13 UNL     1      91.139   1.366  62.028  1.00  0.00     0.116 A 
HETATM   29  F1  UNL     1      92.359   1.000  62.542  1.00  0.00    -0.206 F 
HETATM   30  C14 UNL     1      90.620   0.749  60.912  1.00  0.00     0.043 A 
HETATM   31  C15 UNL     1      89.401   1.140  60.427  1.00  0.00     0.017 A 
ENDBRANCH   9  25
TORSDOF 6
ENDMDL
MODEL 2
REMARK VINA RESULT: -8.358476201      3.441      6.064
REMARK  6 active torsions:
REMARK  status: ('A' for Active; 'I' for Inactive)
REMARK    1  A    between atoms: C2_2  and  C3_3 
REMARK    2  A    between atoms: C3_3  and  C4_4 
REMARK    3  A    between atoms: C3_3  and  N1_6 
REMARK    4  A    between atoms: N1_6  and  C6_8 
REMARK    5  A    between atoms: C9_16  and  C10_17 
REMARK    6  A    between atoms: C16_24  and  C17_25 
ROOT
HETATM    1  C6  UNL     1      89.120   1.693  64.106  1.00  0.00     0.118 A 
HETATM    2  N2  UNL     1      90.445   1.925  64.218  1.00  0.00    -0.338 N 
ATOM      3  H2  UNL     1      90.949   1.755  65.088  1.00  0.00     0.168 HD
HETATM    4  C7  UNL     1      91.062   2.392  63.122  1.00  0.00     0.184 A 
HETATM    5  N3  UNL     1      90.468   2.637  61.947  1.00  0.00    -0.332 N 
ATOM      6  H3  UNL     1      91.005   2.991  61.155  1.00  0.00     0.168 HD
HETATM    7  C8  UNL     1      89.153   2.407  61.837  1.00  0.00     0.164 A 
HETATM    8  O1  UNL     1      88.316   2.545  60.849  1.00  0.00    -0.291 OA
HETATM    9  C9  UNL     1      87.092   2.189  61.199  1.00  0.00     0.102 A 
HETATM   10  C16 UNL     1      87.137   1.784  62.526  1.00  0.00     0.051 A 
HETATM   11  C21 UNL     1      88.451   1.929  62.914  1.00  0.00     0.075 A 
ENDROOT
BRANCH   1  12
HETATM   12  N1  UNL     1      88.417   1.246  65.084  1.00  0.00    -0.368 N 
ATOM     13  H1  UNL     1      87.518   0.818  64.864  1.00  0.00     0.161 HD
BRANCH  12  14
HETATM   14  C3  UNL     1      88.805   1.305  66.470  1.00  0.00     0.105 C 
BRANCH  14  15
HETATM   15  C2  UNL     1      88.143   2.512  67.057  1.00  0.00    -0.012 C 
HETATM   16  C1  UNL     1      88.318   2.766  68.351  1.00  0.00     0.009 C 
ENDBRANCH  14  15
BRANCH  14  17
HETATM   17  C4  UNL     1      88.354   0.099  67.234  1.00  0.00     0.024 C 
HETATM   18  C5  UNL     1      86.886  -0.150  66.937  1.00  0.00     0.007 C 
ENDBRANCH  14  17
ENDBRANCH  12  14
ENDBRANCH   1  12
BRANCH  10  19
HETATM   19  C17 UNL     1      86.036   1.302  63.363  1.00  0.00     0.092 A 
HETATM   20  C18 UNL     1      85.372   0.108  63.133  1.00  0.00     0.043 A 
HETATM   21  C19 UNL     1      84.418   0.002  64.110  1.00  0.00     0.072 A 
HETATM   22  C20 UNL     1      84.517   1.120  64.909  1.00  0.00     0.230 A 
HETATM   23  F2  UNL     1      83.722   1.347  65.982  1.00  0.00    -0.178 F 
HETATM   24  O2  UNL     1      85.490   1.837  64.406  1.00  0.00    -0.283 OA
ENDBRANCH  10  19
BRANCH   9  25
HETATM   25  C10 UNL     1      85.909   2.211  60.360  1.00  0.00    -0.001 A 
HETATM   26  C11 UNL     1      85.552   1.185  59.513  1.00  0.00     0.017 A 
HETATM   27  C12 UNL     1      84.414   1.257  58.732  1.00  0.00     0.043 A 
HETATM   28  C13 UNL     1      83.592   2.368  58.777  1.00  0.00     0.116 A 
HETATM   29  F1  UNL     1      82.462   2.432  57.998  1.00  0.00    -0.206 F 
HETATM   30  C14 UNL     1      83.938   3.399  59.619  1.00  0.00     0.043 A 
HETATM   31  C15 UNL     1      85.071   3.300  60.381  1.00  0.00     0.017 A 
ENDBRANCH   9  25
TORSDOF 6
ENDMDL
MODEL 3
REMARK VINA RESULT: -8.059415069      3.312      5.865
REMARK  6 active torsions:
REMARK  status: ('A' for Active; 'I' for Inactive)
REMARK    1  A    between atoms: C2_2  and  C3_3 
REMARK    2  A    between atoms: C3_3  and  C4_4 
REMARK    3  A    between atoms: C3_3  and  N1_6 
REMARK    4  A    between atoms: N1_6  and  C6_8 
REMARK    5  A    between atoms: C9_16  and  C10_17 
REMARK    6  A    between atoms: C16_24  and  C17_25 
ROOT
HETATM    1  C6  UNL     1      88.891   1.633  64.154  1.00  0.00     0.118 A 
HETATM    2  N2  UNL     1      90.205   1.895  64.314  1.00  0.00    -0.338 N 
ATOM      3  H2  UNL     1      90.690   1.697  65.189  1.00  0.00     0.168 HD
HETATM    4  C7  UNL     1      90.838   2.431  63.260  1.00  0.00     0.184 A 
HETATM    5  N3  UNL     1      90.270   2.717  62.082  1.00  0.00    -0.332 N 
ATOM      6  H3  UNL     1      90.817   3.123  61.323  1.00  0.00     0.168 HD
HETATM    7  C8  UNL     1      88.965   2.456  61.923  1.00  0.00     0.164 A 
HETATM    8  O1  UNL     1      88.151   2.619  60.919  1.00  0.00    -0.291 OA
HETATM    9  C9  UNL     1      86.929   2.214  61.217  1.00  0.00     0.102 A 
HETATM   10  C16 UNL     1      86.949   1.747  62.524  1.00  0.00     0.051 A 
HETATM   11  C21 UNL     1      88.248   1.908  62.956  1.00  0.00     0.075 A 
ENDROOT
BRANCH   1  12
HETATM   12  N1  UNL     1      88.175   1.120  65.089  1.00  0.00    -0.368 N 
ATOM     13  H1  UNL     1      87.950   0.128  65.023  1.00  0.00     0.161 HD
BRANCH  12  14
HETATM   14  C3  UNL     1      87.665   1.844  66.225  1.00  0.00     0.105 C 
BRANCH  14  15
HETATM   15  C2  UNL     1      86.725   0.927  66.941  1.00  0.00    -0.012 C 
HETATM   16  C1  UNL     1      86.997  -0.376  66.955  1.00  0.00     0.009 C 
ENDBRANCH  14  15
BRANCH  14  17
HETATM   17  C4  UNL     1      88.753   2.243  67.175  1.00  0.00     0.024 C 
HETATM   18  C5  UNL     1      88.156   2.416  68.560  1.00  0.00     0.007 C 
ENDBRANCH  14  17
ENDBRANCH  12  14
ENDBRANCH   1  12
BRANCH  10  19
HETATM   19  C17 UNL     1      85.840   1.196  63.306  1.00  0.00     0.092 A 
HETATM   20  C18 UNL     1      84.811   1.970  63.817  1.00  0.00     0.043 A 
HETATM   21  C19 UNL     1      83.975   1.112  64.481  1.00  0.00     0.072 A 
HETATM   22  C20 UNL     1      84.503  -0.155  64.363  1.00  0.00     0.230 A 
HETATM   23  F2  UNL     1      83.931  -1.259  64.901  1.00  0.00    -0.178 F 
HETATM   24  O2  UNL     1      85.599  -0.024  63.659  1.00  0.00    -0.283 OA
ENDBRANCH  10  19
BRANCH   9  25
HETATM   25  C10 UNL     1      85.770   2.245  60.347  1.00  0.00    -0.001 A 
HETATM   26  C11 UNL     1      85.396   1.199  59.532  1.00  0.00     0.017 A 
HETATM   27  C12 UNL     1      84.281   1.280  58.719  1.00  0.00     0.043 A 
HETATM   28  C13 UNL     1      83.500   2.421  58.698  1.00  0.00     0.116 A 
HETATM   29  F1  UNL     1      82.393   2.494  57.887  1.00  0.00    -0.206 F 
HETATM   30  C14 UNL     1      83.863   3.473  59.507  1.00  0.00     0.043 A 
HETATM   31  C15 UNL     1      84.973   3.364  60.302  1.00  0.00     0.017 A 
ENDBRANCH   9  25
TORSDOF 6
ENDMDL
MODEL 4
REMARK VINA RESULT: -8.006599153      1.673      2.218
REMARK  6 active torsions:
REMARK  status: ('A' for Active; 'I' for Inactive)
REMARK    1  A    between atoms: C2_2  and  C3_3 
REMARK    2  A    between atoms: C3_3  and  C4_4 
REMARK    3  A    between atoms: C3_3  and  N1_6 
REMARK    4  A    between atoms: N1_6  and  C6_8 
REMARK    5  A    between atoms: C9_16  and  C10_17 
REMARK    6  A    between atoms: C16_24  and  C17_25 
ROOT
HETATM    1  C6  UNL     1      85.258   1.554  61.055  1.00  0.00     0.118 A 
HETATM    2  N2  UNL     1      84.519   1.604  59.927  1.00  0.00    -0.338 N 
ATOM      3  H2  UNL     1      83.506   1.491  59.943  1.00  0.00     0.168 HD
HETATM    4  C7  UNL     1      85.190   1.810  58.784  1.00  0.00     0.184 A 
HETATM    5  N3  UNL     1      86.516   1.969  58.685  1.00  0.00    -0.332 N 
ATOM      6  H3  UNL     1      86.958   2.124  57.779  1.00  0.00     0.168 HD
HETATM    7  C8  UNL     1      87.249   1.919  59.805  1.00  0.00     0.164 A 
HETATM    8  O1  UNL     1      88.528   2.035  60.026  1.00  0.00    -0.291 OA
HETATM    9  C9  UNL     1      88.810   1.917  61.311  1.00  0.00     0.102 A 
HETATM   10  C16 UNL     1      87.615   1.706  61.985  1.00  0.00     0.051 A 
HETATM   11  C21 UNL     1      86.636   1.711  61.015  1.00  0.00     0.075 A 
ENDROOT
BRANCH   1  12
HETATM   12  N1  UNL     1      84.733   1.362  62.212  1.00  0.00    -0.368 N 
ATOM     13  H1  UNL     1      85.106   0.601  62.780  1.00  0.00     0.161 HD
BRANCH  12  14
HETATM   14  C3  UNL     1      83.656   2.141  62.765  1.00  0.00     0.105 C 
BRANCH  14  15
HETATM   15  C2  UNL     1      83.401   1.616  64.142  1.00  0.00    -0.012 C 
HETATM   16  C1  UNL     1      83.181   0.312  64.294  1.00  0.00     0.009 C 
ENDBRANCH  14  15
BRANCH  14  17
HETATM   17  C4  UNL     1      84.005   3.594  62.869  1.00  0.00     0.024 C 
HETATM   18  C5  UNL     1      83.026   4.395  62.029  1.00  0.00     0.007 C 
ENDBRANCH  14  17
ENDBRANCH  12  14
ENDBRANCH   1  12
BRANCH  10  19
HETATM   19  C17 UNL     1      87.407   1.515  63.422  1.00  0.00     0.092 A 
HETATM   20  C18 UNL     1      87.967   2.336  64.387  1.00  0.00     0.043 A 
HETATM   21  C19 UNL     1      87.552   1.848  65.598  1.00  0.00     0.072 A 
HETATM   22  C20 UNL     1      86.754   0.752  65.352  1.00  0.00     0.230 A 
HETATM   23  F2  UNL     1      86.166   0.018  66.326  1.00  0.00    -0.178 F 
HETATM   24  O2  UNL     1      86.717   0.620  64.049  1.00  0.00    -0.283 OA
ENDBRANCH  10  19
BRANCH   9  25
HETATM   25  C10 UNL     1      90.124   1.992  61.921  1.00  0.00    -0.001 A 
HETATM   26  C11 UNL     1      91.010   0.939  61.962  1.00  0.00     0.017 A 
HETATM   27  C12 UNL     1      92.251   1.063  62.558  1.00  0.00     0.043 A 
HETATM   28  C13 UNL     1      92.645   2.256  63.136  1.00  0.00     0.116 A 
HETATM   29  F1  UNL     1      93.880   2.372  63.725  1.00  0.00    -0.206 F 
HETATM   30  C14 UNL     1      91.768   3.316  63.101  1.00  0.00     0.043 A 
HETATM   31  C15 UNL     1      90.545   3.163  62.504  1.00  0.00     0.017 A 
ENDBRANCH   9  25
TORSDOF 6
ENDMDL
MODEL 5
REMARK VINA RESULT: -7.837275986      2.260      4.233
REMARK  6 active torsions:
REMARK  status: ('A' for Active; 'I' for Inactive)
REMARK    1  A    between atoms: C2_2  and  C3_3 
REMARK    2  A    between atoms: C3_3  and  C4_4 
REMARK    3  A    between atoms: C3_3  and  N1_6 
REMARK    4  A    between atoms: N1_6  and  C6_8 
REMARK    5  A    between atoms: C9_16  and  C10_17 
REMARK    6  A    between atoms: C16_24  and  C17_25 
ROOT
HETATM    1  C6  UNL     1      83.029   2.003  62.428  1.00  0.00     0.118 A 
HETATM    2  N2  UNL     1      81.942   1.768  63.192  1.00  0.00    -0.338 N 
ATOM      3  H2  UNL     1      80.997   1.809  62.809  1.00  0.00     0.168 HD
HETATM    4  C7  UNL     1      82.170   1.477  64.481  1.00  0.00     0.184 A 
HETATM    5  N3  UNL     1      83.379   1.403  65.053  1.00  0.00    -0.332 N 
ATOM      6  H3  UNL     1      83.476   1.175  66.042  1.00  0.00     0.168 HD
HETATM    7  C8  UNL     1      84.458   1.637  64.294  1.00  0.00     0.164 A 
HETATM    8  O1  UNL     1      85.734   1.640  64.557  1.00  0.00    -0.291 OA
HETATM    9  C9  UNL     1      86.448   1.928  63.483  1.00  0.00     0.102 A 
HETATM   10  C16 UNL     1      85.563   2.130  62.433  1.00  0.00     0.051 A 
HETATM   11  C21 UNL     1      84.307   1.941  62.965  1.00  0.00     0.075 A 
ENDROOT
BRANCH   1  12
HETATM   12  N1  UNL     1      82.941   2.292  61.179  1.00  0.00    -0.368 N 
ATOM     13  H1  UNL     1      83.557   1.796  60.535  1.00  0.00     0.161 HD
BRANCH  12  14
HETATM   14  C3  UNL     1      82.037   3.264  60.622  1.00  0.00     0.105 C 
BRANCH  14  15
HETATM   15  C2  UNL     1      82.489   4.606  61.102  1.00  0.00    -0.012 C 
HETATM   16  C1  UNL     1      81.568   5.518  61.401  1.00  0.00     0.009 C 
ENDBRANCH  14  15
BRANCH  14  17
HETATM   17  C4  UNL     1      82.061   3.264  59.124  1.00  0.00     0.024 C 
HETATM   18  C5  UNL     1      82.832   2.046  58.646  1.00  0.00     0.007 C 
ENDBRANCH  14  17
ENDBRANCH  12  14
ENDBRANCH   1  12
BRANCH  10  19
HETATM   19  C17 UNL     1      85.871   2.474  61.043  1.00  0.00     0.092 A 
HETATM   20  C18 UNL     1      86.330   1.552  60.116  1.00  0.00     0.043 A 
HETATM   21  C19 UNL     1      86.504   2.238  58.943  1.00  0.00     0.072 A 
HETATM   22  C20 UNL     1      86.150   3.549  59.173  1.00  0.00     0.230 A 
HETATM   23  F2  UNL     1      86.197   4.516  58.226  1.00  0.00    -0.178 F 
HETATM   24  O2  UNL     1      85.790   3.609  60.431  1.00  0.00    -0.283 OA
ENDBRANCH  10  19
BRANCH   9  25
HETATM   25  C10 UNL     1      87.894   2.020  63.402  1.00  0.00    -0.001 A 
HETATM   26  C11 UNL     1      88.571   2.486  62.297  1.00  0.00     0.017 A 
HETATM   27  C12 UNL     1      89.951   2.552  62.271  1.00  0.00     0.043 A 
HETATM   28  C13 UNL     1      90.702   2.149  63.361  1.00  0.00     0.116 A 
HETATM   29  F1  UNL     1      92.073   2.218  63.328  1.00  0.00    -0.206 F 
HETATM   30  C14 UNL     1      90.036   1.682  64.471  1.00  0.00     0.043 A 
HETATM   31  C15 UNL     1      88.668   1.628  64.468  1.00  0.00     0.017 A 
ENDBRANCH   9  25
TORSDOF 6
ENDMDL
