MODEL 1
REMARK VINA RESULT: -10.025155247      0.000      0.000
REMARK  5 active torsions:
REMARK  status: ('A' for Active; 'I' for Inactive)
REMARK    1  A    between atoms: C2_2  and  C3_3 
REMARK    2  A    between atoms: C3_3  and  C4_4 
REMARK    3  A    between atoms: C7_7  and  C8_8 
REMARK    4  A    between atoms: C8_8  and  C9_9 
REMARK    5  A    between atoms: C9_9  and  N1_10 
ROOT
HETATM    1  N1  UNL     1      84.374   2.588  59.935  1.00  0.00    -0.306 N 
HETATM    2  C10 UNL     1      84.189   1.594  59.047  1.00  0.00     0.181 A 
HETATM    3  S1  UNL     1      85.304   0.515  58.475  1.00  0.00    -0.040 SA
HETATM    4  N2  UNL     1      82.904   1.622  58.660  1.00  0.00    -0.316 N 
ATOM      5  H2  UNL     1      82.490   0.975  57.989  1.00  0.00     0.170 HD
HETATM    6  C11 UNL     1      82.231   2.613  59.272  1.00  0.00     0.153 A 
HETATM    7  N3  UNL     1      80.948   3.063  59.238  1.00  0.00    -0.337 N 
ATOM      8  H3  UNL     1      80.260   2.608  58.638  1.00  0.00     0.167 HD
HETATM    9  C12 UNL     1      80.591   4.112  59.999  1.00  0.00     0.060 A 
HETATM   10  C13 UNL     1      79.300   4.614  60.005  1.00  0.00     0.032 A 
HETATM   11  C14 UNL     1      78.931   5.694  60.787  1.00  0.00     0.002 A 
HETATM   12  C15 UNL     1      79.851   6.318  61.601  1.00  0.00     0.002 A 
HETATM   13  C16 UNL     1      81.138   5.828  61.604  1.00  0.00     0.032 A 
HETATM   14  C17 UNL     1      81.511   4.737  60.813  1.00  0.00     0.060 A 
HETATM   15  N4  UNL     1      82.770   4.268  60.824  1.00  0.00    -0.337 N 
ATOM     16  H4  UNL     1      83.454   4.727  61.425  1.00  0.00     0.167 HD
HETATM   17  C18 UNL     1      83.169   3.222  60.080  1.00  0.00     0.155 A 
ENDROOT
BRANCH   1  18
HETATM   18  C9  UNL     1      85.567   2.953  60.607  1.00  0.00     0.138 C 
BRANCH  18  19
HETATM   19  C8  UNL     1      85.744   2.644  62.039  1.00  0.00     0.062 C 
BRANCH  19  20
HETATM   20  C7  UNL     1      87.082   2.459  62.574  1.00  0.00    -0.015 A 
HETATM   21  C6  UNL     1      88.182   2.803  61.782  1.00  0.00     0.011 A 
HETATM   22  C5  UNL     1      89.449   2.604  62.259  1.00  0.00     0.011 A 
HETATM   23  C4  UNL     1      89.711   2.072  63.504  1.00  0.00    -0.016 A 
HETATM   24  C20 UNL     1      88.622   1.741  64.268  1.00  0.00     0.161 A 
HETATM   25  C19 UNL     1      87.306   1.929  63.817  1.00  0.00     0.161 A 
HETATM   26  F2  UNL     1      88.775   1.170  65.504  1.00  0.00    -0.202 F 
HETATM   27  F1  UNL     1      86.323   1.593  64.685  1.00  0.00    -0.202 F 
BRANCH  23  28
HETATM   28  C3  UNL     1      91.112   1.938  63.928  1.00  0.00     0.041 C 
BRANCH  28  29
HETATM   29  C2  UNL     1      92.053   2.785  63.146  1.00  0.00     0.000 C 
HETATM   30  C1  UNL     1      93.486   2.413  63.136  1.00  0.00     0.005 C 
ENDBRANCH  28  29
ENDBRANCH  23  28
ENDBRANCH  19  20
ENDBRANCH  18  19
ENDBRANCH   1  18
TORSDOF 5
ENDMDL
MODEL 2
REMARK VINA RESULT: -9.871403468      1.574      1.632
REMARK  5 active torsions:
REMARK  status: ('A' for Active; 'I' for Inactive)
REMARK    1  A    between atoms: C2_2  and  C3_3 
REMARK    2  A    between atoms: C3_3  and  C4_4 
REMARK    3  A    between atoms: C7_7  and  C8_8 
REMARK    4  A    between atoms: C8_8  and  C9_9 
REMARK    5  A    between atoms: C9_9  and  N1_10 
ROOT
HETATM    1  N1  UNL     1      84.494   3.280  60.540  1.00  0.00    -0.306 N 
HETATM    2  C10 UNL     1      84.912   3.121  59.270  1.00  0.00     0.181 A 
HETATM    3  S1  UNL     1      86.445   3.283  58.672  1.00  0.00    -0.040 SA
HETATM    4  N2  UNL     1      83.842   2.813  58.521  1.00  0.00    -0.316 N 
ATOM      5  H2  UNL     1      83.873   2.638  57.516  1.00  0.00     0.170 HD
HETATM    6  C11 UNL     1      82.722   2.765  59.265  1.00  0.00     0.153 A 
HETATM    7  N3  UNL     1      81.411   2.507  59.008  1.00  0.00    -0.337 N 
ATOM      8  H3  UNL     1      81.108   2.289  58.058  1.00  0.00     0.167 HD
HETATM    9  C12 UNL     1      80.518   2.542  60.012  1.00  0.00     0.060 A 
HETATM   10  C13 UNL     1      79.172   2.288  59.809  1.00  0.00     0.032 A 
HETATM   11  C14 UNL     1      78.250   2.324  60.840  1.00  0.00     0.002 A 
HETATM   12  C15 UNL     1      78.647   2.618  62.127  1.00  0.00     0.002 A 
HETATM   13  C16 UNL     1      79.984   2.872  62.340  1.00  0.00     0.032 A 
HETATM   14  C17 UNL     1      80.915   2.837  61.298  1.00  0.00     0.060 A 
HETATM   15  N4  UNL     1      82.216   3.086  61.518  1.00  0.00    -0.337 N 
ATOM     16  H4  UNL     1      82.515   3.305  62.468  1.00  0.00     0.167 HD
HETATM   17  C18 UNL     1      83.143   3.062  60.545  1.00  0.00     0.155 A 
ENDROOT
BRANCH   1  18
HETATM   18  C9  UNL     1      85.265   3.619  61.680  1.00  0.00     0.138 C 
BRANCH  18  19
HETATM   19  C8  UNL     1      85.603   2.594  62.686  1.00  0.00     0.062 C 
BRANCH  19  20
HETATM   20  C7  UNL     1      86.993   2.375  63.048  1.00  0.00    -0.015 A 
HETATM   21  C6  UNL     1      87.990   2.642  62.104  1.00  0.00     0.011 A 
HETATM   22  C5  UNL     1      89.301   2.409  62.419  1.00  0.00     0.011 A 
HETATM   23  C4  UNL     1      89.707   1.918  63.642  1.00  0.00    -0.016 A 
HETATM   24  C20 UNL     1      88.719   1.662  64.556  1.00  0.00     0.161 A 
HETATM   25  C19 UNL     1      87.362   1.886  64.273  1.00  0.00     0.161 A 
HETATM   26  F2  UNL     1      89.014   1.135  65.786  1.00  0.00    -0.202 F 
HETATM   27  F1  UNL     1      86.492   1.625  65.277  1.00  0.00    -0.202 F 
BRANCH  23  28
HETATM   28  C3  UNL     1      91.146   1.743  63.884  1.00  0.00     0.041 C 
BRANCH  28  29
HETATM   29  C2  UNL     1      91.996   2.721  63.150  1.00  0.00     0.000 C 
HETATM   30  C1  UNL     1      93.458   2.489  63.114  1.00  0.00     0.005 C 
ENDBRANCH  28  29
ENDBRANCH  23  28
ENDBRANCH  19  20
ENDBRANCH  18  19
ENDBRANCH   1  18
TORSDOF 5
ENDMDL
MODEL 3
REMARK VINA RESULT: -9.743492720      1.519      1.786
REMARK  5 active torsions:
REMARK  status: ('A' for Active; 'I' for Inactive)
REMARK    1  A    between atoms: C2_2  and  C3_3 
REMARK    2  A    between atoms: C3_3  and  C4_4 
REMARK    3  A    between atoms: C7_7  and  C8_8 
REMARK    4  A    between atoms: C8_8  and  C9_9 
REMARK    5  A    between atoms: C9_9  and  N1_10 
ROOT
HETATM    1  N1  UNL     1      84.362   1.982  60.652  1.00  0.00    -0.306 N 
HETATM    2  C10 UNL     1      84.907   1.956  59.422  1.00  0.00     0.181 A 
HETATM    3  S1  UNL     1      86.302   1.212  58.939  1.00  0.00    -0.040 SA
HETATM    4  N2  UNL     1      84.119   2.676  58.608  1.00  0.00    -0.316 N 
ATOM      5  H2  UNL     1      84.298   2.822  57.614  1.00  0.00     0.170 HD
HETATM    6  C11 UNL     1      83.063   3.180  59.271  1.00  0.00     0.153 A 
HETATM    7  N3  UNL     1      81.998   3.954  58.928  1.00  0.00    -0.337 N 
ATOM      8  H3  UNL     1      81.887   4.279  57.968  1.00  0.00     0.167 HD
HETATM    9  C12 UNL     1      81.093   4.289  59.864  1.00  0.00     0.060 A 
HETATM   10  C13 UNL     1      79.989   5.074  59.574  1.00  0.00     0.032 A 
HETATM   11  C14 UNL     1      79.056   5.422  60.535  1.00  0.00     0.002 A 
HETATM   12  C15 UNL     1      79.195   4.990  61.836  1.00  0.00     0.002 A 
HETATM   13  C16 UNL     1      80.289   4.208  62.137  1.00  0.00     0.032 A 
HETATM   14  C17 UNL     1      81.232   3.858  61.165  1.00  0.00     0.060 A 
HETATM   15  N4  UNL     1      82.294   3.095  61.470  1.00  0.00    -0.337 N 
ATOM     16  H4  UNL     1      82.402   2.774  62.432  1.00  0.00     0.167 HD
HETATM   17  C18 UNL     1      83.223   2.736  60.567  1.00  0.00     0.155 A 
ENDROOT
BRANCH   1  18
HETATM   18  C9  UNL     1      84.844   1.373  61.837  1.00  0.00     0.138 C 
BRANCH  18  19
HETATM   19  C8  UNL     1      85.414   2.195  62.922  1.00  0.00     0.062 C 
BRANCH  19  20
HETATM   20  C7  UNL     1      86.832   2.103  63.224  1.00  0.00    -0.015 A 
HETATM   21  C6  UNL     1      87.232   1.494  64.418  1.00  0.00     0.011 A 
HETATM   22  C5  UNL     1      88.563   1.430  64.732  1.00  0.00     0.011 A 
HETATM   23  C4  UNL     1      89.555   1.939  63.921  1.00  0.00    -0.016 A 
HETATM   24  C20 UNL     1      89.146   2.531  62.754  1.00  0.00     0.161 A 
HETATM   25  C19 UNL     1      87.792   2.619  62.395  1.00  0.00     0.161 A 
HETATM   26  F2  UNL     1      90.050   3.102  61.898  1.00  0.00    -0.202 F 
HETATM   27  F1  UNL     1      87.527   3.197  61.199  1.00  0.00    -0.202 F 
BRANCH  23  28
HETATM   28  C3  UNL     1      90.955   1.779  64.340  1.00  0.00     0.041 C 
BRANCH  28  29
HETATM   29  C2  UNL     1      91.903   1.627  63.203  1.00  0.00     0.000 C 
HETATM   30  C1  UNL     1      93.134   2.449  63.204  1.00  0.00     0.005 C 
ENDBRANCH  28  29
ENDBRANCH  23  28
ENDBRANCH  19  20
ENDBRANCH  18  19
ENDBRANCH   1  18
TORSDOF 5
ENDMDL
MODEL 4
REMARK VINA RESULT: -9.563335459      1.746      2.620
REMARK  5 active torsions:
REMARK  status: ('A' for Active; 'I' for Inactive)
REMARK    1  A    between atoms: C2_2  and  C3_3 
REMARK    2  A    between atoms: C3_3  and  C4_4 
REMARK    3  A    between atoms: C7_7  and  C8_8 
REMARK    4  A    between atoms: C8_8  and  C9_9 
REMARK    5  A    between atoms: C9_9  and  N1_10 
ROOT
HETATM    1  N1  UNL     1      84.336   1.553  59.985  1.00  0.00    -0.306 N 
HETATM    2  C10 UNL     1      84.022   1.116  58.751  1.00  0.00     0.181 A 
HETATM    3  S1  UNL     1      84.731  -0.104  57.888  1.00  0.00    -0.040 SA
HETATM    4  N2  UNL     1      83.008   1.867  58.294  1.00  0.00    -0.316 N 
ATOM      5  H2  UNL     1      82.570   1.751  57.380  1.00  0.00     0.170 HD
HETATM    6  C11 UNL     1      82.642   2.794  59.198  1.00  0.00     0.153 A 
HETATM    7  N3  UNL     1      81.700   3.775  59.236  1.00  0.00    -0.337 N 
ATOM      8  H3  UNL     1      81.078   3.921  58.440  1.00  0.00     0.167 HD
HETATM    9  C12 UNL     1      81.594   4.552  60.328  1.00  0.00     0.060 A 
HETATM   10  C13 UNL     1      80.655   5.566  60.423  1.00  0.00     0.032 A 
HETATM   11  C14 UNL     1      80.545   6.368  61.545  1.00  0.00     0.002 A 
HETATM   12  C15 UNL     1      81.380   6.182  62.625  1.00  0.00     0.002 A 
HETATM   13  C16 UNL     1      82.317   5.176  62.543  1.00  0.00     0.032 A 
HETATM   14  C17 UNL     1      82.429   4.367  61.408  1.00  0.00     0.060 A 
HETATM   15  N4  UNL     1      83.347   3.389  61.339  1.00  0.00    -0.337 N 
ATOM     16  H4  UNL     1      83.968   3.248  62.136  1.00  0.00     0.167 HD
HETATM   17  C18 UNL     1      83.488   2.589  60.268  1.00  0.00     0.155 A 
ENDROOT
BRANCH   1  18
HETATM   18  C9  UNL     1      85.347   1.072  60.853  1.00  0.00     0.138 C 
BRANCH  18  19
HETATM   19  C8  UNL     1      86.528   1.902  61.157  1.00  0.00     0.062 C 
BRANCH  19  20
HETATM   20  C7  UNL     1      87.176   1.782  62.452  1.00  0.00    -0.015 A 
HETATM   21  C6  UNL     1      86.402   1.451  63.569  1.00  0.00     0.011 A 
HETATM   22  C5  UNL     1      86.992   1.367  64.801  1.00  0.00     0.011 A 
HETATM   23  C4  UNL     1      88.337   1.592  65.010  1.00  0.00    -0.016 A 
HETATM   24  C20 UNL     1      89.081   1.915  63.906  1.00  0.00     0.161 A 
HETATM   25  C19 UNL     1      88.516   2.012  62.625  1.00  0.00     0.161 A 
HETATM   26  F2  UNL     1      90.418   2.196  64.014  1.00  0.00    -0.202 F 
HETATM   27  F1  UNL     1      89.369   2.303  61.615  1.00  0.00    -0.202 F 
BRANCH  23  28
HETATM   28  C3  UNL     1      88.870   1.436  66.371  1.00  0.00     0.041 C 
BRANCH  28  29
HETATM   29  C2  UNL     1      88.410   2.492  67.314  1.00  0.00     0.000 C 
HETATM   30  C1  UNL     1      87.979   2.081  68.670  1.00  0.00     0.005 C 
ENDBRANCH  28  29
ENDBRANCH  23  28
ENDBRANCH  19  20
ENDBRANCH  18  19
ENDBRANCH   1  18
TORSDOF 5
ENDMDL
MODEL 5
REMARK VINA RESULT: -9.494560216      1.542      2.449
REMARK  5 active torsions:
REMARK  status: ('A' for Active; 'I' for Inactive)
REMARK    1  A    between atoms: C2_2  and  C3_3 
REMARK    2  A    between atoms: C3_3  and  C4_4 
REMARK    3  A    between atoms: C7_7  and  C8_8 
REMARK    4  A    between atoms: C8_8  and  C9_9 
REMARK    5  A    between atoms: C9_9  and  N1_10 
ROOT
HETATM    1  N1  UNL     1      84.756   2.952  60.084  1.00  0.00    -0.306 N 
HETATM    2  C10 UNL     1      84.693   1.864  59.294  1.00  0.00     0.181 A 
HETATM    3  S1  UNL     1      85.936   0.906  58.774  1.00  0.00    -0.040 SA
HETATM    4  N2  UNL     1      83.407   1.674  58.959  1.00  0.00    -0.316 N 
ATOM      5  H2  UNL     1      83.073   0.915  58.364  1.00  0.00     0.170 HD
HETATM    6  C11 UNL     1      82.615   2.612  59.509  1.00  0.00     0.153 A 
HETATM    7  N3  UNL     1      81.280   2.871  59.488  1.00  0.00    -0.337 N 
ATOM      8  H3  UNL     1      80.649   2.269  58.958  1.00  0.00     0.167 HD
HETATM    9  C12 UNL     1      80.797   3.925  60.168  1.00  0.00     0.060 A 
HETATM   10  C13 UNL     1      79.447   4.237  60.183  1.00  0.00     0.032 A 
HETATM   11  C14 UNL     1      78.947   5.322  60.881  1.00  0.00     0.002 A 
HETATM   12  C15 UNL     1      79.790   6.142  61.600  1.00  0.00     0.002 A 
HETATM   13  C16 UNL     1      81.134   5.841  61.593  1.00  0.00     0.032 A 
HETATM   14  C17 UNL     1      81.639   4.746  60.886  1.00  0.00     0.060 A 
HETATM   15  N4  UNL     1      82.952   4.463  60.886  1.00  0.00    -0.337 N 
ATOM     16  H4  UNL     1      83.579   5.068  61.416  1.00  0.00     0.167 HD
HETATM   17  C18 UNL     1      83.478   3.420  60.221  1.00  0.00     0.155 A 
ENDROOT
BRANCH   1  18
HETATM   18  C9  UNL     1      85.903   3.542  60.671  1.00  0.00     0.138 C 
BRANCH  18  19
HETATM   19  C8  UNL     1      87.140   2.758  60.847  1.00  0.00     0.062 C 
BRANCH  19  20
HETATM   20  C7  UNL     1      87.552   2.356  62.181  1.00  0.00    -0.015 A 
HETATM   21  C6  UNL     1      86.571   2.016  63.119  1.00  0.00     0.011 A 
HETATM   22  C5  UNL     1      86.942   1.667  64.390  1.00  0.00     0.011 A 
HETATM   23  C4  UNL     1      88.255   1.628  64.808  1.00  0.00    -0.016 A 
HETATM   24  C20 UNL     1      89.204   1.963  63.878  1.00  0.00     0.161 A 
HETATM   25  C19 UNL     1      88.867   2.327  62.565  1.00  0.00     0.161 A 
HETATM   26  F2  UNL     1      90.533   1.993  64.205  1.00  0.00    -0.202 F 
HETATM   27  F1  UNL     1      89.902   2.600  61.736  1.00  0.00    -0.202 F 
BRANCH  23  28
HETATM   28  C3  UNL     1      88.538   1.202  66.186  1.00  0.00     0.041 C 
BRANCH  28  29
HETATM   29  C2  UNL     1      88.430   2.302  67.183  1.00  0.00     0.000 C 
HETATM   30  C1  UNL     1      88.020   1.958  68.564  1.00  0.00     0.005 C 
ENDBRANCH  28  29
ENDBRANCH  23  28
ENDBRANCH  19  20
ENDBRANCH  18  19
ENDBRANCH   1  18
TORSDOF 5
ENDMDL
