MODEL 1
REMARK VINA RESULT: -7.842235463      0.000      0.000
REMARK  8 active torsions:
REMARK  status: ('A' for Active; 'I' for Inactive)
REMARK    1  A    between atoms: O1_1  and  C1_3 
REMARK    2  A    between atoms: C1_3  and  C2_4 
REMARK    3  A    between atoms: C3_5  and  C4_6 
REMARK    4  A    between atoms: C6_12  and  S1_13 
REMARK    5  A    between atoms: S1_13  and  C7_14 
REMARK    6  A    between atoms: C7_14  and  C8_15 
REMARK    7  A    between atoms: C14_21  and  C15_22 
REMARK    8  A    between atoms: C18_25  and  C19_26 
ROOT
HETATM    1  C4  UNL     1      87.300   1.110  65.036  1.00  0.00     0.101 A 
HETATM    2  N1  UNL     1      87.414   0.634  66.304  1.00  0.00    -0.345 N 
ATOM      3  H1  UNL     1      88.321   0.631  66.772  1.00  0.00     0.167 HD
HETATM    4  C5  UNL     1      86.319   0.165  66.941  1.00  0.00     0.182 A 
HETATM    5  N2  UNL     1      85.147   0.180  66.307  1.00  0.00    -0.346 N 
ATOM      6  H2  UNL     1      84.335  -0.180  66.808  1.00  0.00     0.167 HD
HETATM    7  C6  UNL     1      84.955   0.633  65.054  1.00  0.00     0.085 A 
HETATM    8  C14 UNL     1      86.075   1.115  64.398  1.00  0.00     0.043 A 
ENDROOT
BRANCH   8   9
HETATM    9  C15 UNL     1      86.013   1.609  63.036  1.00  0.00    -0.020 A 
HETATM   10  C16 UNL     1      86.053   0.782  61.935  1.00  0.00     0.013 A 
HETATM   11  C17 UNL     1      86.007   1.314  60.649  1.00  0.00     0.013 A 
HETATM   12  C18 UNL     1      85.921   2.674  60.457  1.00  0.00     0.006 A 
HETATM   13  C20 UNL     1      85.880   3.516  61.574  1.00  0.00     0.013 A 
HETATM   14  C21 UNL     1      85.927   2.962  62.824  1.00  0.00     0.013 A 
BRANCH  12  15
HETATM   15  C19 UNL     1      85.866   3.296  59.112  1.00  0.00     0.386 C 
HETATM   16  F1  UNL     1      84.888   2.610  58.380  1.00  0.00    -0.209 F 
HETATM   17  F2  UNL     1      87.078   3.255  58.457  1.00  0.00    -0.209 F 
ENDBRANCH  12  15
ENDBRANCH   8   9
BRANCH   1  18
HETATM   18  C3  UNL     1      88.455   1.618  64.312  1.00  0.00    -0.046 C 
HETATM   19  C2  UNL     1      89.408   2.037  63.686  1.00  0.00    -0.074 C 
BRANCH  19  20
HETATM   20  C1  UNL     1      90.553   2.530  62.906  1.00  0.00     0.258 C 
BRANCH  20  21
HETATM   21  O1  UNL     1      90.279   2.442  61.521  1.00  0.00    -0.389 OA
ATOM     22  H1  UNL     1      91.089   2.432  61.024  1.00  0.00     0.210 HD
ENDBRANCH  20  21
ENDBRANCH  19  20
ENDBRANCH   1  18
BRANCH   7  23
HETATM   23  S1  UNL     1      83.352   0.588  64.273  1.00  0.00    -0.107 SA
BRANCH  23  24
HETATM   24  C7  UNL     1      82.509   2.174  64.473  1.00  0.00     0.119 C 
BRANCH  24  25
HETATM   25  C8  UNL     1      82.444   2.938  63.205  1.00  0.00    -0.049 A 
HETATM   26  C9  UNL     1      82.352   2.296  61.989  1.00  0.00     0.008 A 
HETATM   27  C10 UNL     1      82.283   2.964  60.790  1.00  0.00     0.001 A 
HETATM   28  C11 UNL     1      82.302   4.337  60.778  1.00  0.00     0.000 A 
HETATM   29  C12 UNL     1      82.394   5.008  61.984  1.00  0.00     0.001 A 
HETATM   30  C13 UNL     1      82.463   4.318  63.174  1.00  0.00     0.008 A 
ENDBRANCH  24  25
ENDBRANCH  23  24
ENDBRANCH   7  23
TORSDOF 8
ENDMDL
MODEL 2
REMARK VINA RESULT: -7.828108084      0.264      1.128
REMARK  8 active torsions:
REMARK  status: ('A' for Active; 'I' for Inactive)
REMARK    1  A    between atoms: O1_1  and  C1_3 
REMARK    2  A    between atoms: C1_3  and  C2_4 
REMARK    3  A    between atoms: C3_5  and  C4_6 
REMARK    4  A    between atoms: C6_12  and  S1_13 
REMARK    5  A    between atoms: S1_13  and  C7_14 
REMARK    6  A    between atoms: C7_14  and  C8_15 
REMARK    7  A    between atoms: C14_21  and  C15_22 
REMARK    8  A    between atoms: C18_25  and  C19_26 
ROOT
HETATM    1  C4  UNL     1      87.258   1.161  65.025  1.00  0.00     0.101 A 
HETATM    2  N1  UNL     1      87.377   0.700  66.298  1.00  0.00    -0.345 N 
ATOM      3  H1  UNL     1      88.287   0.695  66.759  1.00  0.00     0.167 HD
HETATM    4  C5  UNL     1      86.283   0.251  66.948  1.00  0.00     0.182 A 
HETATM    5  N2  UNL     1      85.106   0.268  66.323  1.00  0.00    -0.346 N 
ATOM      6  H2  UNL     1      84.294  -0.077  66.835  1.00  0.00     0.167 HD
HETATM    7  C6  UNL     1      84.909   0.706  65.065  1.00  0.00     0.085 A 
HETATM    8  C14 UNL     1      86.029   1.169  64.395  1.00  0.00     0.043 A 
ENDROOT
BRANCH   8   9
HETATM    9  C15 UNL     1      85.962   1.645  63.028  1.00  0.00    -0.020 A 
HETATM   10  C16 UNL     1      85.862   2.981  62.701  1.00  0.00     0.013 A 
HETATM   11  C17 UNL     1      85.784   3.378  61.369  1.00  0.00     0.013 A 
HETATM   12  C18 UNL     1      85.805   2.446  60.357  1.00  0.00     0.006 A 
HETATM   13  C20 UNL     1      85.907   1.090  60.686  1.00  0.00     0.013 A 
HETATM   14  C21 UNL     1      85.982   0.731  62.004  1.00  0.00     0.013 A 
BRANCH  12  15
HETATM   15  C19 UNL     1      85.727   2.812  58.922  1.00  0.00     0.386 C 
HETATM   16  F1  UNL     1      86.884   3.541  58.619  1.00  0.00    -0.209 F 
HETATM   17  F2  UNL     1      84.600   3.546  58.620  1.00  0.00    -0.209 F 
ENDBRANCH  12  15
ENDBRANCH   8   9
BRANCH   1  18
HETATM   18  C3  UNL     1      88.413   1.647  64.285  1.00  0.00    -0.046 C 
HETATM   19  C2  UNL     1      89.365   2.048  63.647  1.00  0.00    -0.074 C 
BRANCH  19  20
HETATM   20  C1  UNL     1      90.512   2.515  62.853  1.00  0.00     0.258 C 
BRANCH  20  21
HETATM   21  O1  UNL     1      90.235   2.393  61.471  1.00  0.00    -0.389 OA
ATOM     22  H1  UNL     1      91.010   2.102  61.004  1.00  0.00     0.210 HD
ENDBRANCH  20  21
ENDBRANCH  19  20
ENDBRANCH   1  18
BRANCH   7  23
HETATM   23  S1  UNL     1      83.300   0.666  64.296  1.00  0.00    -0.107 SA
BRANCH  23  24
HETATM   24  C7  UNL     1      82.460   2.252  64.510  1.00  0.00     0.119 C 
BRANCH  24  25
HETATM   25  C8  UNL     1      82.374   3.016  63.243  1.00  0.00    -0.049 A 
HETATM   26  C9  UNL     1      82.222   2.376  62.033  1.00  0.00     0.008 A 
HETATM   27  C10 UNL     1      82.132   3.044  60.836  1.00  0.00     0.001 A 
HETATM   28  C11 UNL     1      82.191   4.416  60.819  1.00  0.00     0.000 A 
HETATM   29  C12 UNL     1      82.343   5.085  62.020  1.00  0.00     0.001 A 
HETATM   30  C13 UNL     1      82.433   4.395  63.208  1.00  0.00     0.008 A 
ENDBRANCH  24  25
ENDBRANCH  23  24
ENDBRANCH   7  23
TORSDOF 8
ENDMDL
MODEL 3
REMARK VINA RESULT: -7.354601387      2.354      5.429
REMARK  8 active torsions:
REMARK  status: ('A' for Active; 'I' for Inactive)
REMARK    1  A    between atoms: O1_1  and  C1_3 
REMARK    2  A    between atoms: C1_3  and  C2_4 
REMARK    3  A    between atoms: C3_5  and  C4_6 
REMARK    4  A    between atoms: C6_12  and  S1_13 
REMARK    5  A    between atoms: S1_13  and  C7_14 
REMARK    6  A    between atoms: C7_14  and  C8_15 
REMARK    7  A    between atoms: C14_21  and  C15_22 
REMARK    8  A    between atoms: C18_25  and  C19_26 
ROOT
HETATM    1  C4  UNL     1      82.256   2.862  63.955  1.00  0.00     0.101 A 
HETATM    2  N1  UNL     1      81.539   2.657  65.091  1.00  0.00    -0.345 N 
ATOM      3  H1  UNL     1      80.658   3.150  65.240  1.00  0.00     0.167 HD
HETATM    4  C5  UNL     1      82.001   1.796  66.024  1.00  0.00     0.182 A 
HETATM    5  N2  UNL     1      83.155   1.166  65.807  1.00  0.00    -0.346 N 
ATOM      6  H2  UNL     1      83.483   0.520  66.525  1.00  0.00     0.167 HD
HETATM    7  C6  UNL     1      83.920   1.317  64.709  1.00  0.00     0.085 A 
HETATM    8  C14 UNL     1      83.449   2.199  63.750  1.00  0.00     0.043 A 
ENDROOT
BRANCH   8   9
HETATM    9  C15 UNL     1      84.187   2.473  62.534  1.00  0.00    -0.020 A 
HETATM   10  C16 UNL     1      84.942   3.613  62.354  1.00  0.00     0.013 A 
HETATM   11  C17 UNL     1      85.617   3.832  61.156  1.00  0.00     0.013 A 
HETATM   12  C18 UNL     1      85.542   2.915  60.132  1.00  0.00     0.006 A 
HETATM   13  C20 UNL     1      84.777   1.757  60.313  1.00  0.00     0.013 A 
HETATM   14  C21 UNL     1      84.126   1.571  61.501  1.00  0.00     0.013 A 
BRANCH  12  15
HETATM   15  C19 UNL     1      86.241   3.095  58.837  1.00  0.00     0.386 C 
HETATM   16  F1  UNL     1      87.583   2.747  59.040  1.00  0.00    -0.209 F 
HETATM   17  F2  UNL     1      86.143   4.381  58.353  1.00  0.00    -0.209 F 
ENDBRANCH  12  15
ENDBRANCH   8   9
BRANCH   1  18
HETATM   18  C3  UNL     1      81.798   3.786  62.928  1.00  0.00    -0.046 C 
HETATM   19  C2  UNL     1      81.423   4.541  62.055  1.00  0.00    -0.074 C 
BRANCH  19  20
HETATM   20  C1  UNL     1      80.987   5.444  60.978  1.00  0.00     0.258 C 
BRANCH  20  21
HETATM   21  O1  UNL     1      82.068   5.735  60.113  1.00  0.00    -0.389 OA
ATOM     22  H1  UNL     1      81.785   5.691  59.207  1.00  0.00     0.210 HD
ENDBRANCH  20  21
ENDBRANCH  19  20
ENDBRANCH   1  18
BRANCH   7  23
HETATM   23  S1  UNL     1      85.468   0.451  64.515  1.00  0.00    -0.107 SA
BRANCH  23  24
HETATM   24  C7  UNL     1      86.791   1.325  65.382  1.00  0.00     0.119 C 
BRANCH  24  25
HETATM   25  C8  UNL     1      87.945   1.613  64.498  1.00  0.00    -0.049 A 
HETATM   26  C9  UNL     1      87.768   1.891  63.161  1.00  0.00     0.008 A 
HETATM   27  C10 UNL     1      88.808   2.169  62.307  1.00  0.00     0.001 A 
HETATM   28  C11 UNL     1      90.094   2.178  62.787  1.00  0.00     0.000 A 
HETATM   29  C12 UNL     1      90.302   1.903  64.127  1.00  0.00     0.001 A 
HETATM   30  C13 UNL     1      89.245   1.626  64.964  1.00  0.00     0.008 A 
ENDBRANCH  24  25
ENDBRANCH  23  24
ENDBRANCH   7  23
TORSDOF 8
ENDMDL
MODEL 4
REMARK VINA RESULT: -7.339883556      3.319      4.720
REMARK  8 active torsions:
REMARK  status: ('A' for Active; 'I' for Inactive)
REMARK    1  A    between atoms: O1_1  and  C1_3 
REMARK    2  A    between atoms: C1_3  and  C2_4 
REMARK    3  A    between atoms: C3_5  and  C4_6 
REMARK    4  A    between atoms: C6_12  and  S1_13 
REMARK    5  A    between atoms: S1_13  and  C7_14 
REMARK    6  A    between atoms: C7_14  and  C8_15 
REMARK    7  A    between atoms: C14_21  and  C15_22 
REMARK    8  A    between atoms: C18_25  and  C19_26 
ROOT
HETATM    1  C4  UNL     1      89.019   1.694  64.113  1.00  0.00     0.101 A 
HETATM    2  N1  UNL     1      90.297   2.116  63.926  1.00  0.00    -0.345 N 
ATOM      3  H1  UNL     1      90.977   2.048  64.683  1.00  0.00     0.167 HD
HETATM    4  C5  UNL     1      90.661   2.625  62.729  1.00  0.00     0.182 A 
HETATM    5  N2  UNL     1      89.753   2.704  61.756  1.00  0.00    -0.346 N 
ATOM      6  H2  UNL     1      90.052   3.092  60.862  1.00  0.00     0.167 HD
HETATM    7  C6  UNL     1      88.471   2.309  61.867  1.00  0.00     0.085 A 
HETATM    8  C14 UNL     1      88.094   1.785  63.092  1.00  0.00     0.043 A 
ENDROOT
BRANCH   8   9
HETATM    9  C15 UNL     1      86.737   1.347  63.354  1.00  0.00    -0.020 A 
HETATM   10  C16 UNL     1      85.975   1.838  64.392  1.00  0.00     0.013 A 
HETATM   11  C17 UNL     1      84.683   1.367  64.605  1.00  0.00     0.013 A 
HETATM   12  C18 UNL     1      84.145   0.403  63.784  1.00  0.00     0.006 A 
HETATM   13  C20 UNL     1      84.916  -0.097  62.729  1.00  0.00     0.013 A 
HETATM   14  C21 UNL     1      86.182   0.386  62.546  1.00  0.00     0.013 A 
BRANCH  12  15
HETATM   15  C19 UNL     1      82.774  -0.134  63.962  1.00  0.00     0.386 C 
HETATM   16  F1  UNL     1      82.007   0.880  64.550  1.00  0.00    -0.209 F 
HETATM   17  F2  UNL     1      82.745  -1.273  64.738  1.00  0.00    -0.209 F 
ENDBRANCH  12  15
ENDBRANCH   8   9
BRANCH   1  18
HETATM   18  C3  UNL     1      88.583   1.146  65.389  1.00  0.00    -0.046 C 
HETATM   19  C2  UNL     1      88.241   0.680  66.457  1.00  0.00    -0.074 C 
BRANCH  19  20
HETATM   20  C1  UNL     1      87.847   0.094  67.747  1.00  0.00     0.258 C 
BRANCH  20  21
HETATM   21  O1  UNL     1      88.990  -0.159  68.541  1.00  0.00    -0.389 OA
ATOM     22  H1  UNL     1      88.972  -1.050  68.871  1.00  0.00     0.210 HD
ENDBRANCH  20  21
ENDBRANCH  19  20
ENDBRANCH   1  18
BRANCH   7  23
HETATM   23  S1  UNL     1      87.315   2.478  60.518  1.00  0.00    -0.107 SA
BRANCH  23  24
HETATM   24  C7  UNL     1      86.306   3.961  60.736  1.00  0.00     0.119 C 
BRANCH  24  25
HETATM   25  C8  UNL     1      84.924   3.640  61.164  1.00  0.00    -0.049 A 
HETATM   26  C9  UNL     1      84.368   4.227  62.279  1.00  0.00     0.008 A 
HETATM   27  C10 UNL     1      83.090   3.963  62.709  1.00  0.00     0.001 A 
HETATM   28  C11 UNL     1      82.309   3.078  62.008  1.00  0.00     0.000 A 
HETATM   29  C12 UNL     1      82.841   2.474  60.883  1.00  0.00     0.001 A 
HETATM   30  C13 UNL     1      84.125   2.752  60.472  1.00  0.00     0.008 A 
ENDBRANCH  24  25
ENDBRANCH  23  24
ENDBRANCH   7  23
TORSDOF 8
ENDMDL
MODEL 5
REMARK VINA RESULT: -7.330657328      4.593      7.740
REMARK  8 active torsions:
REMARK  status: ('A' for Active; 'I' for Inactive)
REMARK    1  A    between atoms: O1_1  and  C1_3 
REMARK    2  A    between atoms: C1_3  and  C2_4 
REMARK    3  A    between atoms: C3_5  and  C4_6 
REMARK    4  A    between atoms: C6_12  and  S1_13 
REMARK    5  A    between atoms: S1_13  and  C7_14 
REMARK    6  A    between atoms: C7_14  and  C8_15 
REMARK    7  A    between atoms: C14_21  and  C15_22 
REMARK    8  A    between atoms: C18_25  and  C19_26 
ROOT
HETATM    1  C4  UNL     1      81.651   2.739  60.001  1.00  0.00     0.101 A 
HETATM    2  N1  UNL     1      81.932   2.602  58.678  1.00  0.00    -0.345 N 
ATOM      3  H1  UNL     1      81.191   2.369  58.017  1.00  0.00     0.167 HD
HETATM    4  C5  UNL     1      83.199   2.774  58.245  1.00  0.00     0.182 A 
HETATM    5  N2  UNL     1      84.150   3.076  59.130  1.00  0.00    -0.346 N 
ATOM      6  H2  UNL     1      85.099   3.202  58.778  1.00  0.00     0.167 HD
HETATM    7  C6  UNL     1      83.950   3.228  60.452  1.00  0.00     0.085 A 
HETATM    8  C14 UNL     1      82.651   3.052  60.900  1.00  0.00     0.043 A 
ENDROOT
BRANCH   8   9
HETATM    9  C15 UNL     1      82.303   3.161  62.303  1.00  0.00    -0.020 A 
HETATM   10  C16 UNL     1      82.312   2.085  63.165  1.00  0.00     0.013 A 
HETATM   11  C17 UNL     1      81.952   2.247  64.500  1.00  0.00     0.013 A 
HETATM   12  C18 UNL     1      81.581   3.482  64.981  1.00  0.00     0.006 A 
HETATM   13  C20 UNL     1      81.572   4.575  64.109  1.00  0.00     0.013 A 
HETATM   14  C21 UNL     1      81.931   4.384  62.802  1.00  0.00     0.013 A 
BRANCH  12  15
HETATM   15  C19 UNL     1      81.190   3.712  66.393  1.00  0.00     0.386 C 
HETATM   16  F1  UNL     1      81.541   5.031  66.708  1.00  0.00    -0.209 F 
HETATM   17  F2  UNL     1      81.793   2.831  67.263  1.00  0.00    -0.209 F 
ENDBRANCH  12  15
ENDBRANCH   8   9
BRANCH   1  18
HETATM   18  C3  UNL     1      80.301   2.554  60.511  1.00  0.00    -0.046 C 
HETATM   19  C2  UNL     1      79.183   2.388  60.956  1.00  0.00    -0.074 C 
BRANCH  19  20
HETATM   20  C1  UNL     1      77.839   2.163  61.508  1.00  0.00     0.258 C 
BRANCH  20  21
HETATM   21  O1  UNL     1      77.438   0.823  61.295  1.00  0.00    -0.389 OA
ATOM     22  H1  UNL     1      78.001   0.409  60.651  1.00  0.00     0.210 HD
ENDBRANCH  20  21
ENDBRANCH  19  20
ENDBRANCH   1  18
BRANCH   7  23
HETATM   23  S1  UNL     1      85.289   3.606  61.568  1.00  0.00    -0.107 SA
BRANCH  23  24
HETATM   24  C7  UNL     1      85.802   2.121  62.463  1.00  0.00     0.119 C 
BRANCH  24  25
HETATM   25  C8  UNL     1      87.246   2.139  62.796  1.00  0.00    -0.049 A 
HETATM   26  C9  UNL     1      88.185   2.550  61.877  1.00  0.00     0.008 A 
HETATM   27  C10 UNL     1      89.532   2.587  62.145  1.00  0.00     0.001 A 
HETATM   28  C11 UNL     1      89.987   2.205  63.382  1.00  0.00     0.000 A 
HETATM   29  C12 UNL     1      89.066   1.787  64.326  1.00  0.00     0.001 A 
HETATM   30  C13 UNL     1      87.720   1.756  64.035  1.00  0.00     0.008 A 
ENDBRANCH  24  25
ENDBRANCH  23  24
ENDBRANCH   7  23
TORSDOF 8
ENDMDL
