MODEL 1
REMARK VINA RESULT: -8.454239473      0.000      0.000
REMARK  9 active torsions:
REMARK  status: ('A' for Active; 'I' for Inactive)
REMARK    1  A    between atoms: C2_2  and  N1_4 
REMARK    2  A    between atoms: N1_4  and  C4_5 
REMARK    3  A    between atoms: N1_4  and  C14_19 
REMARK    4  A    between atoms: C4_5  and  C5_6 
REMARK    5  A    between atoms: C6_9  and  C7_10 
REMARK    6  A    between atoms: C14_19  and  C16_21 
REMARK    7  A    between atoms: C16_21  and  C17_22 
REMARK    8  A    between atoms: C17_22  and  O1_24 
REMARK    9  A    between atoms: C17_22  and  C19_26 
ROOT
HETATM    1  N1  UNL     1       6.062   2.817  43.911  1.00  0.00     0.102 N 
ENDROOT
BRANCH   1   2
HETATM    2  C2  UNL     1       5.817   2.640  45.311  1.00  0.00     0.216 C 
HETATM    3  C1  UNL     1       6.610   1.415  45.838  1.00  0.00     0.042 C 
HETATM    4  C3  UNL     1       4.419   2.574  45.807  1.00  0.00     0.042 C 
ENDBRANCH   1   2
BRANCH   1   5
HETATM    5  C4  UNL     1       6.495   1.482  43.406  1.00  0.00     0.338 C 
BRANCH   5   6
HETATM    6  C5  UNL     1       5.631   0.882  42.369  1.00  0.00     0.079 A 
HETATM    7  N2  UNL     1       4.325   1.008  42.209  1.00  0.00    -0.351 N 
HETATM    8  C6  UNL     1       3.719   0.435  41.226  1.00  0.00     0.049 A 
ATOM      9  H2  UNL     1       3.789   1.566  42.873  1.00  0.00     0.166 HD
HETATM   10  C13 UNL     1       4.479  -0.309  40.354  1.00  0.00     0.081 A 
HETATM   11  S1  UNL     1       6.032  -0.118  41.035  1.00  0.00    -0.085 SA
BRANCH   8  12
HETATM   12  C7  UNL     1       2.250   0.567  41.028  1.00  0.00    -0.009 A 
HETATM   13  C8  UNL     1       1.423   0.987  42.036  1.00  0.00     0.017 A 
HETATM   14  C9  UNL     1       0.055   1.115  41.871  1.00  0.00     0.043 A 
HETATM   15  C10 UNL     1      -0.518   0.820  40.677  1.00  0.00     0.116 A 
HETATM   16  F1  UNL     1      -1.851   0.918  40.436  1.00  0.00    -0.206 F 
HETATM   17  C11 UNL     1       0.287   0.391  39.635  1.00  0.00     0.043 A 
HETATM   18  C12 UNL     1       1.641   0.273  39.823  1.00  0.00     0.017 A 
ENDBRANCH   8  12
ENDBRANCH   5   6
ENDBRANCH   1   5
BRANCH   1  19
HETATM   19  C14 UNL     1       7.017   3.722  43.433  1.00  0.00     0.223 C 
HETATM   20  C15 UNL     1       6.893   4.163  41.974  1.00  0.00     0.043 C 
BRANCH  19  21
HETATM   21  C16 UNL     1       8.421   3.204  43.622  1.00  0.00     0.082 C 
BRANCH  21  22
HETATM   22  C17 UNL     1       9.477   3.829  44.352  1.00  0.00     0.153 C 
HETATM   23  C18 UNL     1       9.012   4.646  45.597  1.00  0.00     0.055 C 
BRANCH  22  24
HETATM   24  O1  UNL     1      10.090   2.714  45.052  1.00  0.00    -0.381 OA
ATOM     25  H1  UNL     1      10.924   3.073  45.332  1.00  0.00     0.211 HD
ENDBRANCH  22  24
BRANCH  22  26
HETATM   26  C19 UNL     1      10.642   4.537  43.798  1.00  0.00     0.417 C 
HETATM   27  F2  UNL     1      11.455   5.047  44.865  1.00  0.00    -0.168 F 
HETATM   28  F3  UNL     1      10.237   5.742  43.213  1.00  0.00    -0.168 F 
HETATM   29  F4  UNL     1      11.526   3.879  43.033  1.00  0.00    -0.168 F 
ENDBRANCH  22  26
ENDBRANCH  21  22
ENDBRANCH  19  21
ENDBRANCH   1  19
TORSDOF 9
ENDMDL
MODEL 2
REMARK VINA RESULT: -8.401345489      2.941      3.998
REMARK  9 active torsions:
REMARK  status: ('A' for Active; 'I' for Inactive)
REMARK    1  A    between atoms: C2_2  and  N1_4 
REMARK    2  A    between atoms: N1_4  and  C4_5 
REMARK    3  A    between atoms: N1_4  and  C14_19 
REMARK    4  A    between atoms: C4_5  and  C5_6 
REMARK    5  A    between atoms: C6_9  and  C7_10 
REMARK    6  A    between atoms: C14_19  and  C16_21 
REMARK    7  A    between atoms: C16_21  and  C17_22 
REMARK    8  A    between atoms: C17_22  and  O1_24 
REMARK    9  A    between atoms: C17_22  and  C19_26 
ROOT
HETATM    1  N1  UNL     1       7.753   2.230  43.278  1.00  0.00     0.102 N 
ENDROOT
BRANCH   1   2
HETATM    2  C2  UNL     1       9.181   2.117  43.286  1.00  0.00     0.216 C 
HETATM    3  C1  UNL     1       9.649   1.243  42.093  1.00  0.00     0.042 C 
HETATM    4  C3  UNL     1       9.874   1.678  44.523  1.00  0.00     0.042 C 
ENDBRANCH   1   2
BRANCH   1   5
HETATM    5  C4  UNL     1       7.343   2.067  41.853  1.00  0.00     0.338 C 
BRANCH   5   6
HETATM    6  C5  UNL     1       6.250   1.104  41.612  1.00  0.00     0.079 A 
HETATM    7  N2  UNL     1       4.947   1.322  41.584  1.00  0.00    -0.351 N 
HETATM    8  C6  UNL     1       4.118   0.367  41.331  1.00  0.00     0.049 A 
ATOM      9  H2  UNL     1       4.591   2.261  41.767  1.00  0.00     0.166 HD
HETATM   10  C13 UNL     1       4.640  -0.882  41.091  1.00  0.00     0.081 A 
HETATM   11  S1  UNL     1       6.310  -0.572  41.254  1.00  0.00    -0.085 SA
BRANCH   8  12
HETATM   12  C7  UNL     1       2.649   0.595  41.293  1.00  0.00    -0.009 A 
HETATM   13  C8  UNL     1       1.913   0.362  40.162  1.00  0.00     0.017 A 
HETATM   14  C9  UNL     1       0.545   0.569  40.108  1.00  0.00     0.043 A 
HETATM   15  C10 UNL     1      -0.119   1.020  41.202  1.00  0.00     0.116 A 
HETATM   16  F1  UNL     1      -1.457   1.249  41.230  1.00  0.00    -0.206 F 
HETATM   17  C11 UNL     1       0.593   1.268  42.364  1.00  0.00     0.043 A 
HETATM   18  C12 UNL     1       1.948   1.055  42.393  1.00  0.00     0.017 A 
ENDBRANCH   8  12
ENDBRANCH   5   6
ENDBRANCH   1   5
BRANCH   1  19
HETATM   19  C14 UNL     1       7.097   3.385  43.723  1.00  0.00     0.223 C 
HETATM   20  C15 UNL     1       7.856   4.707  43.609  1.00  0.00     0.043 C 
BRANCH  19  21
HETATM   21  C16 UNL     1       6.648   3.254  45.158  1.00  0.00     0.082 C 
BRANCH  21  22
HETATM   22  C17 UNL     1       5.540   2.497  45.646  1.00  0.00     0.153 C 
HETATM   23  C18 UNL     1       5.857   0.999  45.943  1.00  0.00     0.055 C 
BRANCH  22  24
HETATM   24  O1  UNL     1       5.413   2.959  47.017  1.00  0.00    -0.381 OA
ATOM     25  H1  UNL     1       5.367   2.148  47.510  1.00  0.00     0.211 HD
ENDBRANCH  22  24
BRANCH  22  26
HETATM   26  C19 UNL     1       4.151   2.544  45.164  1.00  0.00     0.417 C 
HETATM   27  F2  UNL     1       3.337   3.280  46.089  1.00  0.00    -0.168 F 
HETATM   28  F3  UNL     1       3.560   1.281  45.283  1.00  0.00    -0.168 F 
HETATM   29  F4  UNL     1       3.868   3.122  43.987  1.00  0.00    -0.168 F 
ENDBRANCH  22  26
ENDBRANCH  21  22
ENDBRANCH  19  21
ENDBRANCH   1  19
TORSDOF 9
ENDMDL
MODEL 3
REMARK VINA RESULT: -8.349956004      0.270      1.197
REMARK  9 active torsions:
REMARK  status: ('A' for Active; 'I' for Inactive)
REMARK    1  A    between atoms: C2_2  and  N1_4 
REMARK    2  A    between atoms: N1_4  and  C4_5 
REMARK    3  A    between atoms: N1_4  and  C14_19 
REMARK    4  A    between atoms: C4_5  and  C5_6 
REMARK    5  A    between atoms: C6_9  and  C7_10 
REMARK    6  A    between atoms: C14_19  and  C16_21 
REMARK    7  A    between atoms: C16_21  and  C17_22 
REMARK    8  A    between atoms: C17_22  and  O1_24 
REMARK    9  A    between atoms: C17_22  and  C19_26 
ROOT
HETATM    1  N1  UNL     1       6.086   2.861  43.777  1.00  0.00     0.102 N 
ENDROOT
BRANCH   1   2
HETATM    2  C2  UNL     1       5.808   2.621  45.162  1.00  0.00     0.216 C 
HETATM    3  C1  UNL     1       6.603   1.384  45.656  1.00  0.00     0.042 C 
HETATM    4  C3  UNL     1       4.399   2.518  45.618  1.00  0.00     0.042 C 
ENDBRANCH   1   2
BRANCH   1   5
HETATM    5  C4  UNL     1       6.480   1.539  43.210  1.00  0.00     0.338 C 
BRANCH   5   6
HETATM    6  C5  UNL     1       5.523   0.947  42.253  1.00  0.00     0.079 A 
HETATM    7  N2  UNL     1       4.211   1.097  42.197  1.00  0.00    -0.351 N 
HETATM    8  C6  UNL     1       3.516   0.527  41.272  1.00  0.00     0.049 A 
ATOM      9  H2  UNL     1       3.741   1.674  42.895  1.00  0.00     0.166 HD
HETATM   10  C13 UNL     1       4.189  -0.241  40.351  1.00  0.00     0.081 A 
HETATM   11  S1  UNL     1       5.795  -0.075  40.903  1.00  0.00    -0.085 SA
BRANCH   8  12
HETATM   12  C7  UNL     1       2.040   0.687  41.192  1.00  0.00    -0.009 A 
HETATM   13  C8  UNL     1       1.344   0.381  40.053  1.00  0.00     0.017 A 
HETATM   14  C9  UNL     1      -0.030   0.524  39.959  1.00  0.00     0.043 A 
HETATM   15  C10 UNL     1      -0.741   0.983  41.019  1.00  0.00     0.116 A 
HETATM   16  F1  UNL     1      -2.089   1.152  41.008  1.00  0.00    -0.206 F 
HETATM   17  C11 UNL     1      -0.071   1.303  42.188  1.00  0.00     0.043 A 
HETATM   18  C12 UNL     1       1.292   1.153  42.257  1.00  0.00     0.017 A 
ENDBRANCH   8  12
ENDBRANCH   5   6
ENDBRANCH   1   5
BRANCH   1  19
HETATM   19  C14 UNL     1       7.083   3.753  43.364  1.00  0.00     0.223 C 
HETATM   20  C15 UNL     1       7.055   4.205  41.904  1.00  0.00     0.043 C 
BRANCH  19  21
HETATM   21  C16 UNL     1       8.465   3.210  43.634  1.00  0.00     0.082 C 
BRANCH  21  22
HETATM   22  C17 UNL     1       9.473   3.796  44.458  1.00  0.00     0.153 C 
HETATM   23  C18 UNL     1       8.932   4.536  45.720  1.00  0.00     0.055 C 
BRANCH  22  24
HETATM   24  O1  UNL     1      10.055   2.644  45.125  1.00  0.00    -0.381 OA
ATOM     25  H1  UNL     1      10.882   2.982  45.447  1.00  0.00     0.211 HD
ENDBRANCH  22  24
BRANCH  22  26
HETATM   26  C19 UNL     1      10.662   4.541  44.014  1.00  0.00     0.417 C 
HETATM   27  F2  UNL     1      10.266   5.648  43.192  1.00  0.00    -0.168 F 
HETATM   28  F3  UNL     1      11.373   3.789  43.070  1.00  0.00    -0.168 F 
HETATM   29  F4  UNL     1      11.473   5.110  44.917  1.00  0.00    -0.168 F 
ENDBRANCH  22  26
ENDBRANCH  21  22
ENDBRANCH  19  21
ENDBRANCH   1  19
TORSDOF 9
ENDMDL
MODEL 4
REMARK VINA RESULT: -8.320678197      2.247      3.184
REMARK  9 active torsions:
REMARK  status: ('A' for Active; 'I' for Inactive)
REMARK    1  A    between atoms: C2_2  and  N1_4 
REMARK    2  A    between atoms: N1_4  and  C4_5 
REMARK    3  A    between atoms: N1_4  and  C14_19 
REMARK    4  A    between atoms: C4_5  and  C5_6 
REMARK    5  A    between atoms: C6_9  and  C7_10 
REMARK    6  A    between atoms: C14_19  and  C16_21 
REMARK    7  A    between atoms: C16_21  and  C17_22 
REMARK    8  A    between atoms: C17_22  and  O1_24 
REMARK    9  A    between atoms: C17_22  and  C19_26 
ROOT
HETATM    1  N1  UNL     1       7.671   2.868  42.070  1.00  0.00     0.102 N 
ENDROOT
BRANCH   1   2
HETATM    2  C2  UNL     1       7.678   2.274  40.766  1.00  0.00     0.216 C 
HETATM    3  C1  UNL     1       8.367   0.886  40.819  1.00  0.00     0.042 C 
HETATM    4  C3  UNL     1       8.206   3.046  39.614  1.00  0.00     0.042 C 
ENDBRANCH   1   2
BRANCH   1   5
HETATM    5  C4  UNL     1       6.270   3.331  42.294  1.00  0.00     0.338 C 
BRANCH   5   6
HETATM    6  C5  UNL     1       5.274   2.262  42.511  1.00  0.00     0.079 A 
HETATM    7  N2  UNL     1       4.050   2.163  42.023  1.00  0.00    -0.351 N 
HETATM    8  C6  UNL     1       3.309   1.142  42.290  1.00  0.00     0.049 A 
ATOM      9  H2  UNL     1       3.686   2.905  41.425  1.00  0.00     0.166 HD
HETATM   10  C13 UNL     1       3.839   0.164  43.100  1.00  0.00     0.081 A 
HETATM   11  S1  UNL     1       5.387   0.809  43.414  1.00  0.00    -0.085 SA
BRANCH   8  12
HETATM   12  C7  UNL     1       1.930   1.012  41.748  1.00  0.00    -0.009 A 
HETATM   13  C8  UNL     1       1.698   0.596  40.464  1.00  0.00     0.017 A 
HETATM   14  C9  UNL     1       0.423   0.470  39.941  1.00  0.00     0.043 A 
HETATM   15  C10 UNL     1      -0.659   0.763  40.706  1.00  0.00     0.116 A 
HETATM   16  F1  UNL     1      -1.941   0.666  40.269  1.00  0.00    -0.206 F 
HETATM   17  C11 UNL     1      -0.463   1.187  42.010  1.00  0.00     0.043 A 
HETATM   18  C12 UNL     1       0.812   1.304  42.506  1.00  0.00     0.017 A 
ENDBRANCH   8  12
ENDBRANCH   5   6
ENDBRANCH   1   5
BRANCH   1  19
HETATM   19  C14 UNL     1       8.480   3.965  42.391  1.00  0.00     0.223 C 
HETATM   20  C15 UNL     1       9.976   3.702  42.562  1.00  0.00     0.043 C 
BRANCH  19  21
HETATM   21  C16 UNL     1       8.006   4.661  43.642  1.00  0.00     0.082 C 
BRANCH  21  22
HETATM   22  C17 UNL     1       8.278   4.282  44.992  1.00  0.00     0.153 C 
HETATM   23  C18 UNL     1       9.592   4.880  45.583  1.00  0.00     0.055 C 
BRANCH  22  24
HETATM   24  O1  UNL     1       7.328   5.078  45.749  1.00  0.00    -0.381 OA
ATOM     25  H1  UNL     1       6.536   5.014  45.228  1.00  0.00     0.211 HD
ENDBRANCH  22  24
BRANCH  22  26
HETATM   26  C19 UNL     1       8.120   2.946  45.589  1.00  0.00     0.417 C 
HETATM   27  F2  UNL     1       6.773   2.773  46.051  1.00  0.00    -0.168 F 
HETATM   28  F3  UNL     1       8.798   2.885  46.812  1.00  0.00    -0.168 F 
HETATM   29  F4  UNL     1       8.327   1.850  44.844  1.00  0.00    -0.168 F 
ENDBRANCH  22  26
ENDBRANCH  21  22
ENDBRANCH  19  21
ENDBRANCH   1  19
TORSDOF 9
ENDMDL
MODEL 5
REMARK VINA RESULT: -8.319354371      2.547      3.280
REMARK  9 active torsions:
REMARK  status: ('A' for Active; 'I' for Inactive)
REMARK    1  A    between atoms: C2_2  and  N1_4 
REMARK    2  A    between atoms: N1_4  and  C4_5 
REMARK    3  A    between atoms: N1_4  and  C14_19 
REMARK    4  A    between atoms: C4_5  and  C5_6 
REMARK    5  A    between atoms: C6_9  and  C7_10 
REMARK    6  A    between atoms: C14_19  and  C16_21 
REMARK    7  A    between atoms: C16_21  and  C17_22 
REMARK    8  A    between atoms: C17_22  and  O1_24 
REMARK    9  A    between atoms: C17_22  and  C19_26 
ROOT
HETATM    1  N1  UNL     1       7.546   2.507  42.382  1.00  0.00     0.102 N 
ENDROOT
BRANCH   1   2
HETATM    2  C2  UNL     1       8.858   2.199  41.896  1.00  0.00     0.216 C 
HETATM    3  C1  UNL     1       8.759   1.462  40.535  1.00  0.00     0.042 C 
HETATM    4  C3  UNL     1       9.815   1.485  42.777  1.00  0.00     0.042 C 
ENDBRANCH   1   2
BRANCH   1   5
HETATM    5  C4  UNL     1       6.600   1.940  41.377  1.00  0.00     0.338 C 
BRANCH   5   6
HETATM    6  C5  UNL     1       5.393   1.296  41.932  1.00  0.00     0.079 A 
HETATM    7  N2  UNL     1       4.145   1.373  41.505  1.00  0.00    -0.351 N 
HETATM    8  C6  UNL     1       3.200   0.721  42.092  1.00  0.00     0.049 A 
ATOM      9  H2  UNL     1       3.925   1.958  40.698  1.00  0.00     0.166 HD
HETATM   10  C13 UNL     1       3.539  -0.055  43.175  1.00  0.00     0.081 A 
HETATM   11  S1  UNL     1       5.220   0.224  43.259  1.00  0.00    -0.085 SA
BRANCH   8  12
HETATM   12  C7  UNL     1       1.790   0.794  41.623  1.00  0.00    -0.009 A 
HETATM   13  C8  UNL     1       0.776   1.193  42.453  1.00  0.00     0.017 A 
HETATM   14  C9  UNL     1      -0.542   1.266  42.035  1.00  0.00     0.043 A 
HETATM   15  C10 UNL     1      -0.872   0.937  40.761  1.00  0.00     0.116 A 
HETATM   16  F1  UNL     1      -2.139   0.982  40.275  1.00  0.00    -0.206 F 
HETATM   17  C11 UNL     1       0.127   0.529  39.894  1.00  0.00     0.043 A 
HETATM   18  C12 UNL     1       1.427   0.465  40.331  1.00  0.00     0.017 A 
ENDBRANCH   8  12
ENDBRANCH   5   6
ENDBRANCH   1   5
BRANCH   1  19
HETATM   19  C14 UNL     1       7.121   3.826  42.589  1.00  0.00     0.223 C 
HETATM   20  C15 UNL     1       7.435   4.841  41.489  1.00  0.00     0.043 C 
BRANCH  19  21
HETATM   21  C16 UNL     1       7.660   4.390  43.880  1.00  0.00     0.082 C 
BRANCH  21  22
HETATM   22  C17 UNL     1       7.426   3.893  45.198  1.00  0.00     0.153 C 
HETATM   23  C18 UNL     1       8.677   3.266  45.888  1.00  0.00     0.055 C 
BRANCH  22  24
HETATM   24  O1  UNL     1       7.338   5.107  45.990  1.00  0.00    -0.381 OA
ATOM     25  H1  UNL     1       7.987   4.964  46.669  1.00  0.00     0.211 HD
ENDBRANCH  22  24
BRANCH  22  26
HETATM   26  C19 UNL     1       6.261   3.123  45.665  1.00  0.00     0.417 C 
HETATM   27  F2  UNL     1       5.767   3.681  46.891  1.00  0.00    -0.168 F 
HETATM   28  F3  UNL     1       6.671   1.867  46.125  1.00  0.00    -0.168 F 
HETATM   29  F4  UNL     1       5.161   3.046  44.903  1.00  0.00    -0.168 F 
ENDBRANCH  22  26
ENDBRANCH  21  22
ENDBRANCH  19  21
ENDBRANCH   1  19
TORSDOF 9
ENDMDL
