MODEL 1
REMARK VINA RESULT: -7.654312116      0.000      0.000
REMARK  9 active torsions:
REMARK  status: ('A' for Active; 'I' for Inactive)
REMARK    1  A    between atoms: C2_2  and  C3_3 
REMARK    2  A    between atoms: C3_3  and  C4_4 
REMARK    3  A    between atoms: C5_5  and  C6_6 
REMARK    4  A    between atoms: C6_6  and  C7_7 
REMARK    5  A    between atoms: C7_7  and  O1_8 
REMARK    6  A    between atoms: C7_7  and  C8_11 
REMARK    7  A    between atoms: C8_11  and  C9_12 
REMARK    8  A    between atoms: C8_11  and  C13_19 
REMARK    9  A    between atoms: C10_13  and  C11_15 
ROOT
HETATM    1  C8  UNL     1       3.173   0.201  43.810  1.00  0.00     0.136 C 
ENDROOT
BRANCH   1   2
HETATM    2  C7  UNL     1       1.851   0.872  44.095  1.00  0.00     0.151 C 
HETATM    3 CL1  UNL     1       0.574  -0.343  44.411  1.00  0.00    -0.087 Cl
BRANCH   2   4
HETATM    4  C6  UNL     1       1.385   1.814  43.039  1.00  0.00     0.082 C 
BRANCH   4   5
HETATM    5  C5  UNL     1       0.187   1.205  42.394  1.00  0.00    -0.026 C 
HETATM    6  C4  UNL     1       0.075   1.034  41.085  1.00  0.00    -0.030 C 
BRANCH   6   7
HETATM    7  C3  UNL     1      -1.135   0.428  40.527  1.00  0.00     0.026 C 
BRANCH   7   8
HETATM    8  C2  UNL     1      -2.241   0.238  41.530  1.00  0.00    -0.001 C 
HETATM    9  C1  UNL     1      -3.318   1.263  41.452  1.00  0.00     0.005 C 
ENDBRANCH   7   8
ENDBRANCH   6   7
ENDBRANCH   4   5
ENDBRANCH   2   4
BRANCH   2  10
HETATM   10  O1  UNL     1       1.994   1.588  45.285  1.00  0.00    -0.373 OA
ATOM     11  H1  UNL     1       1.405   1.212  45.930  1.00  0.00     0.212 HD
ENDBRANCH   2  10
ENDBRANCH   1   2
BRANCH   1  12
HETATM   12  C9  UNL     1       3.541   0.238  42.388  1.00  0.00     0.013 C 
HETATM   13  C10 UNL     1       4.247  -0.709  41.781  1.00  0.00     0.047 C 
HETATM   14 CL2  UNL     1       4.761  -2.075  42.753  1.00  0.00    -0.086 Cl
BRANCH  13  15
HETATM   15  C11 UNL     1       4.623  -0.683  40.364  1.00  0.00     0.147 C 
HETATM   16  C12 UNL     1       3.457  -0.390  39.448  1.00  0.00     0.056 C 
HETATM   17 CL3  UNL     1       5.946   0.469  40.104  1.00  0.00    -0.096 Cl
HETATM   18 CL4  UNL     1       5.250  -2.302  39.912  1.00  0.00    -0.096 Cl
ENDBRANCH  13  15
ENDBRANCH   1  12
BRANCH   1  19
HETATM   19  C13 UNL     1       4.231   0.676  44.723  1.00  0.00     0.152 A 
HETATM   20  N1  UNL     1       4.714   0.064  45.823  1.00  0.00    -0.281 N 
HETATM   21  N2  UNL     1       5.646   0.858  46.318  1.00  0.00    -0.282 N 
ATOM     22  H1  UNL     1       4.417  -0.836  46.200  1.00  0.00     0.189 HD
HETATM   23  C14 UNL     1       5.751   1.947  45.550  1.00  0.00     0.136 A 
ATOM     24  H2  UNL     1       6.198   0.670  47.155  1.00  0.00     0.189 HD
HETATM   25  C15 UNL     1       6.673   3.118  45.722  1.00  0.00     0.099 C 
HETATM   26  O2  UNL     1       4.887   1.806  44.601  1.00  0.00    -0.282 OA
ENDBRANCH   1  19
TORSDOF 9
ENDMDL
MODEL 2
REMARK VINA RESULT: -7.559856988      0.706      1.012
REMARK  9 active torsions:
REMARK  status: ('A' for Active; 'I' for Inactive)
REMARK    1  A    between atoms: C2_2  and  C3_3 
REMARK    2  A    between atoms: C3_3  and  C4_4 
REMARK    3  A    between atoms: C5_5  and  C6_6 
REMARK    4  A    between atoms: C6_6  and  C7_7 
REMARK    5  A    between atoms: C7_7  and  O1_8 
REMARK    6  A    between atoms: C7_7  and  C8_11 
REMARK    7  A    between atoms: C8_11  and  C9_12 
REMARK    8  A    between atoms: C8_11  and  C13_19 
REMARK    9  A    between atoms: C10_13  and  C11_15 
ROOT
HETATM    1  C8  UNL     1       3.292   0.284  43.904  1.00  0.00     0.136 C 
ENDROOT
BRANCH   1   2
HETATM    2  C7  UNL     1       1.957   0.935  44.170  1.00  0.00     0.151 C 
HETATM    3 CL1  UNL     1       0.692  -0.300  44.460  1.00  0.00    -0.087 Cl
BRANCH   2   4
HETATM    4  C6  UNL     1       1.494   1.876  43.111  1.00  0.00     0.082 C 
BRANCH   4   5
HETATM    5  C5  UNL     1       0.309   1.258  42.452  1.00  0.00    -0.026 C 
HETATM    6  C4  UNL     1       0.232   1.050  41.145  1.00  0.00    -0.030 C 
BRANCH   6   7
HETATM    7  C3  UNL     1      -0.968   0.438  40.572  1.00  0.00     0.026 C 
BRANCH   7   8
HETATM    8  C2  UNL     1      -2.110   0.307  41.542  1.00  0.00    -0.001 C 
HETATM    9  C1  UNL     1      -3.158   1.356  41.396  1.00  0.00     0.005 C 
ENDBRANCH   7   8
ENDBRANCH   6   7
ENDBRANCH   4   5
ENDBRANCH   2   4
BRANCH   2  10
HETATM   10  O1  UNL     1       2.070   1.647  45.366  1.00  0.00    -0.373 OA
ATOM     11  H1  UNL     1       1.623   1.156  46.047  1.00  0.00     0.212 HD
ENDBRANCH   2  10
ENDBRANCH   1   2
BRANCH   1  12
HETATM   12  C9  UNL     1       3.651   0.271  42.479  1.00  0.00     0.013 C 
HETATM   13  C10 UNL     1       4.304  -0.723  41.889  1.00  0.00     0.047 C 
HETATM   14 CL2  UNL     1       4.754  -2.093  42.888  1.00  0.00    -0.086 Cl
BRANCH  13  15
HETATM   15  C11 UNL     1       4.669  -0.748  40.469  1.00  0.00     0.147 C 
HETATM   16  C12 UNL     1       5.245  -2.074  40.029  1.00  0.00     0.056 C 
HETATM   17 CL3  UNL     1       3.274  -0.292  39.473  1.00  0.00    -0.096 Cl
HETATM   18 CL4  UNL     1       5.934   0.493  40.186  1.00  0.00    -0.096 Cl
ENDBRANCH  13  15
ENDBRANCH   1  12
BRANCH   1  19
HETATM   19  C13 UNL     1       4.345   0.822  44.790  1.00  0.00     0.152 A 
HETATM   20  N1  UNL     1       4.777   0.320  45.964  1.00  0.00    -0.281 N 
HETATM   21  N2  UNL     1       5.725   1.132  46.395  1.00  0.00    -0.282 N 
ATOM     22  H1  UNL     1       4.438  -0.522  46.428  1.00  0.00     0.189 HD
HETATM   23  C14 UNL     1       5.889   2.124  45.515  1.00  0.00     0.136 A 
ATOM     24  H2  UNL     1       6.249   1.019  47.263  1.00  0.00     0.189 HD
HETATM   25  C15 UNL     1       6.849   3.275  45.584  1.00  0.00     0.099 C 
HETATM   26  O2  UNL     1       5.045   1.908  44.563  1.00  0.00    -0.282 OA
ENDBRANCH   1  19
TORSDOF 9
ENDMDL
MODEL 3
REMARK VINA RESULT: -7.362148660      1.977      2.787
REMARK  9 active torsions:
REMARK  status: ('A' for Active; 'I' for Inactive)
REMARK    1  A    between atoms: C2_2  and  C3_3 
REMARK    2  A    between atoms: C3_3  and  C4_4 
REMARK    3  A    between atoms: C5_5  and  C6_6 
REMARK    4  A    between atoms: C6_6  and  C7_7 
REMARK    5  A    between atoms: C7_7  and  O1_8 
REMARK    6  A    between atoms: C7_7  and  C8_11 
REMARK    7  A    between atoms: C8_11  and  C9_12 
REMARK    8  A    between atoms: C8_11  and  C13_19 
REMARK    9  A    between atoms: C10_13  and  C11_15 
ROOT
HETATM    1  C8  UNL     1       5.873   1.424  44.389  1.00  0.00     0.136 C 
ENDROOT
BRANCH   1   2
HETATM    2  C7  UNL     1       4.648   2.230  44.746  1.00  0.00     0.151 C 
HETATM    3 CL1  UNL     1       3.548   1.286  45.798  1.00  0.00    -0.087 Cl
BRANCH   2   4
HETATM    4  C6  UNL     1       3.883   2.761  43.582  1.00  0.00     0.082 C 
BRANCH   4   5
HETATM    5  C5  UNL     1       2.496   2.225  43.678  1.00  0.00    -0.026 C 
HETATM    6  C4  UNL     1       1.911   1.545  42.702  1.00  0.00    -0.030 C 
BRANCH   6   7
HETATM    7  C3  UNL     1       0.544   1.052  42.872  1.00  0.00     0.026 C 
BRANCH   7   8
HETATM    8  C2  UNL     1      -0.279   1.083  41.613  1.00  0.00    -0.001 C 
HETATM    9  C1  UNL     1       0.459   0.654  40.392  1.00  0.00     0.005 C 
ENDBRANCH   7   8
ENDBRANCH   6   7
ENDBRANCH   4   5
ENDBRANCH   2   4
BRANCH   2  10
HETATM   10  O1  UNL     1       5.071   3.313  45.520  1.00  0.00    -0.373 OA
ATOM     11  H1  UNL     1       5.232   3.002  46.403  1.00  0.00     0.212 HD
ENDBRANCH   2  10
ENDBRANCH   1   2
BRANCH   1  12
HETATM   12  C9  UNL     1       5.954   1.106  42.957  1.00  0.00     0.013 C 
HETATM   13  C10 UNL     1       5.390   0.041  42.401  1.00  0.00     0.047 C 
HETATM   14 CL2  UNL     1       4.500  -1.039  43.458  1.00  0.00    -0.086 Cl
BRANCH  13  15
HETATM   15  C11 UNL     1       5.464  -0.288  40.974  1.00  0.00     0.147 C 
HETATM   16  C12 UNL     1       4.123  -0.223  40.281  1.00  0.00     0.056 C 
HETATM   17 CL3  UNL     1       6.652   0.754  40.169  1.00  0.00    -0.096 Cl
HETATM   18 CL4  UNL     1       6.058  -1.973  40.809  1.00  0.00    -0.096 Cl
ENDBRANCH  13  15
ENDBRANCH   1  12
BRANCH   1  19
HETATM   19  C13 UNL     1       7.101   2.025  44.947  1.00  0.00     0.152 A 
HETATM   20  N1  UNL     1       7.809   1.621  46.020  1.00  0.00    -0.281 N 
HETATM   21  N2  UNL     1       8.823   2.458  46.141  1.00  0.00    -0.282 N 
ATOM     22  H1  UNL     1       7.602   0.823  46.621  1.00  0.00     0.189 HD
HETATM   23  C14 UNL     1       8.758   3.372  45.168  1.00  0.00     0.136 A 
ATOM     24  H2  UNL     1       9.542   2.414  46.864  1.00  0.00     0.189 HD
HETATM   25  C15 UNL     1       9.692   4.517  44.907  1.00  0.00     0.099 C 
HETATM   26  O2  UNL     1       7.712   3.084  44.468  1.00  0.00    -0.282 OA
ENDBRANCH   1  19
TORSDOF 9
ENDMDL
MODEL 4
REMARK VINA RESULT: -7.320063638      2.087      2.946
REMARK  9 active torsions:
REMARK  status: ('A' for Active; 'I' for Inactive)
REMARK    1  A    between atoms: C2_2  and  C3_3 
REMARK    2  A    between atoms: C3_3  and  C4_4 
REMARK    3  A    between atoms: C5_5  and  C6_6 
REMARK    4  A    between atoms: C6_6  and  C7_7 
REMARK    5  A    between atoms: C7_7  and  O1_8 
REMARK    6  A    between atoms: C7_7  and  C8_11 
REMARK    7  A    between atoms: C8_11  and  C9_12 
REMARK    8  A    between atoms: C8_11  and  C13_19 
REMARK    9  A    between atoms: C10_13  and  C11_15 
ROOT
HETATM    1  C8  UNL     1       5.886   1.388  44.374  1.00  0.00     0.136 C 
ENDROOT
BRANCH   1   2
HETATM    2  C7  UNL     1       4.689   2.230  44.745  1.00  0.00     0.151 C 
HETATM    3 CL1  UNL     1       3.602   1.337  45.854  1.00  0.00    -0.087 Cl
BRANCH   2   4
HETATM    4  C6  UNL     1       3.901   2.744  43.589  1.00  0.00     0.082 C 
BRANCH   4   5
HETATM    5  C5  UNL     1       2.511   2.226  43.732  1.00  0.00    -0.026 C 
HETATM    6  C4  UNL     1       1.881   1.562  42.773  1.00  0.00    -0.030 C 
BRANCH   6   7
HETATM    7  C3  UNL     1       0.514   1.086  42.989  1.00  0.00     0.026 C 
BRANCH   7   8
HETATM    8  C2  UNL     1      -0.417   1.361  41.841  1.00  0.00    -0.001 C 
HETATM    9  C1  UNL     1      -0.025   0.700  40.565  1.00  0.00     0.005 C 
ENDBRANCH   7   8
ENDBRANCH   6   7
ENDBRANCH   4   5
ENDBRANCH   2   4
BRANCH   2  10
HETATM   10  O1  UNL     1       5.157   3.324  45.475  1.00  0.00    -0.373 OA
ATOM     11  H1  UNL     1       4.407   3.789  45.827  1.00  0.00     0.212 HD
ENDBRANCH   2  10
ENDBRANCH   1   2
BRANCH   1  12
HETATM   12  C9  UNL     1       5.933   1.053  42.944  1.00  0.00     0.013 C 
HETATM   13  C10 UNL     1       5.344  -0.012  42.414  1.00  0.00     0.047 C 
HETATM   14 CL2  UNL     1       4.464  -1.069  43.502  1.00  0.00    -0.086 Cl
BRANCH  13  15
HETATM   15  C11 UNL     1       5.384  -0.358  40.990  1.00  0.00     0.147 C 
HETATM   16  C12 UNL     1       6.376   0.471  40.207  1.00  0.00     0.056 C 
HETATM   17 CL3  UNL     1       5.700  -2.092  40.792  1.00  0.00    -0.096 Cl
HETATM   18 CL4  UNL     1       3.765  -0.043  40.283  1.00  0.00    -0.096 Cl
ENDBRANCH  13  15
ENDBRANCH   1  12
BRANCH   1  19
HETATM   19  C13 UNL     1       7.140   1.964  44.903  1.00  0.00     0.152 A 
HETATM   20  N1  UNL     1       7.798   1.624  46.029  1.00  0.00    -0.281 N 
HETATM   21  N2  UNL     1       8.862   2.405  46.094  1.00  0.00    -0.282 N 
ATOM     22  H1  UNL     1       7.528   0.905  46.699  1.00  0.00     0.189 HD
HETATM   23  C14 UNL     1       8.876   3.220  45.035  1.00  0.00     0.136 A 
ATOM     24  H2  UNL     1       9.562   2.388  46.836  1.00  0.00     0.189 HD
HETATM   25  C15 UNL     1       9.887   4.272  44.688  1.00  0.00     0.099 C 
HETATM   26  O2  UNL     1       7.827   2.929  44.339  1.00  0.00    -0.282 OA
ENDBRANCH   1  19
TORSDOF 9
ENDMDL
MODEL 5
REMARK VINA RESULT: -7.211154970      2.617      5.832
REMARK  9 active torsions:
REMARK  status: ('A' for Active; 'I' for Inactive)
REMARK    1  A    between atoms: C2_2  and  C3_3 
REMARK    2  A    between atoms: C3_3  and  C4_4 
REMARK    3  A    between atoms: C5_5  and  C6_6 
REMARK    4  A    between atoms: C6_6  and  C7_7 
REMARK    5  A    between atoms: C7_7  and  O1_8 
REMARK    6  A    between atoms: C7_7  and  C8_11 
REMARK    7  A    between atoms: C8_11  and  C9_12 
REMARK    8  A    between atoms: C8_11  and  C13_19 
REMARK    9  A    between atoms: C10_13  and  C11_15 
ROOT
HETATM    1  C8  UNL     1       1.804   1.407  42.891  1.00  0.00     0.136 C 
ENDROOT
BRANCH   1   2
HETATM    2  C7  UNL     1       1.961   1.190  44.377  1.00  0.00     0.151 C 
HETATM    3 CL1  UNL     1       2.690   2.629  45.157  1.00  0.00    -0.087 Cl
BRANCH   2   4
HETATM    4  C6  UNL     1       2.738  -0.023  44.757  1.00  0.00     0.082 C 
BRANCH   4   5
HETATM    5  C5  UNL     1       3.896   0.427  45.579  1.00  0.00    -0.026 C 
HETATM    6  C4  UNL     1       5.152   0.365  45.161  1.00  0.00    -0.030 C 
BRANCH   6   7
HETATM    7  C3  UNL     1       6.236   0.827  46.029  1.00  0.00     0.026 C 
BRANCH   7   8
HETATM    8  C2  UNL     1       6.286   2.321  46.202  1.00  0.00    -0.001 C 
HETATM    9  C1  UNL     1       6.731   3.062  44.989  1.00  0.00     0.005 C 
ENDBRANCH   7   8
ENDBRANCH   6   7
ENDBRANCH   4   5
ENDBRANCH   2   4
BRANCH   2  10
HETATM   10  O1  UNL     1       0.680   1.075  44.921  1.00  0.00    -0.373 OA
ATOM     11  H1  UNL     1       0.050   1.156  44.214  1.00  0.00     0.212 HD
ENDBRANCH   2  10
ENDBRANCH   1   2
BRANCH   1  12
HETATM   12  C9  UNL     1       2.641   0.505  42.088  1.00  0.00     0.013 C 
HETATM   13  C10 UNL     1       3.869   0.802  41.679  1.00  0.00     0.047 C 
HETATM   14 CL2  UNL     1       4.511   2.369  42.136  1.00  0.00    -0.086 Cl
BRANCH  13  15
HETATM   15  C11 UNL     1       4.713  -0.088  40.877  1.00  0.00     0.147 C 
HETATM   16  C12 UNL     1       4.020  -0.602  39.636  1.00  0.00     0.056 C 
HETATM   17 CL3  UNL     1       6.238   0.720  40.470  1.00  0.00    -0.096 Cl
HETATM   18 CL4  UNL     1       5.137  -1.520  41.871  1.00  0.00    -0.096 Cl
ENDBRANCH  13  15
ENDBRANCH   1  12
BRANCH   1  19
HETATM   19  C13 UNL     1       0.382   1.430  42.493  1.00  0.00     0.152 A 
HETATM   20  N1  UNL     1      -0.445   2.492  42.435  1.00  0.00    -0.281 N 
HETATM   21  N2  UNL     1      -1.616   2.037  42.029  1.00  0.00    -0.282 N 
ATOM     22  H1  UNL     1      -0.213   3.460  42.662  1.00  0.00     0.189 HD
HETATM   23  C14 UNL     1      -1.532   0.717  41.834  1.00  0.00     0.136 A 
ATOM     24  H2  UNL     1      -2.453   2.603  41.887  1.00  0.00     0.189 HD
HETATM   25  C15 UNL     1      -2.608  -0.223  41.375  1.00  0.00     0.099 C 
HETATM   26  O2  UNL     1      -0.318   0.385  42.122  1.00  0.00    -0.282 OA
ENDBRANCH   1  19
TORSDOF 9
ENDMDL
