MODEL 1
REMARK VINA RESULT: -7.146745616      0.000      0.000
REMARK  4 active torsions:
REMARK  status: ('A' for Active; 'I' for Inactive)
REMARK    1  A    between atoms: C1_2  and  C2_4 
REMARK    2  A    between atoms: C2_4  and  C3_5 
REMARK    3  A    between atoms: C2_4  and  S1_11 
REMARK    4  A    between atoms: S1_11  and  C9_14 
ROOT
HETATM    1  C2  UNL     1      42.730   2.420  62.258  1.00  0.00     0.246 C 
ENDROOT
BRANCH   1   2
HETATM    2  C1  UNL     1      41.445   2.589  61.542  1.00  0.00     0.197 C 
HETATM    3  O1  UNL     1      40.815   3.670  61.645  1.00  0.00    -0.647 OA
HETATM    4  O2  UNL     1      40.897   1.577  60.745  1.00  0.00    -0.647 OA
ENDBRANCH   1   2
BRANCH   1   5
HETATM    5  C3  UNL     1      42.489   1.556  63.431  1.00  0.00    -0.029 A 
HETATM    6  C4  UNL     1      43.509   1.374  64.339  1.00  0.00     0.009 A 
HETATM    7  C5  UNL     1      43.337   0.576  65.455  1.00  0.00     0.001 A 
HETATM    8  C6  UNL     1      42.125  -0.053  65.671  1.00  0.00     0.000 A 
HETATM    9  C7  UNL     1      41.105   0.133  64.756  1.00  0.00     0.001 A 
HETATM   10  C8  UNL     1      41.286   0.936  63.639  1.00  0.00     0.009 A 
ENDBRANCH   1   5
BRANCH   1  11
HETATM   11  S1  UNL     1      43.928   1.763  61.153  1.00  0.00     0.193 S 
HETATM   12  O3  UNL     1      43.569   0.370  60.707  1.00  0.00    -0.221 OA
HETATM   13  O4  UNL     1      43.888   2.617  59.895  1.00  0.00    -0.221 OA
BRANCH  11  14
HETATM   14  C9  UNL     1      45.537   1.816  61.782  1.00  0.00     0.060 A 
HETATM   15  C10 UNL     1      46.039   2.980  62.326  1.00  0.00     0.023 A 
HETATM   16  C11 UNL     1      47.331   2.952  62.809  1.00  0.00     0.002 A 
HETATM   17  C12 UNL     1      48.111   1.804  62.758  1.00  0.00     0.000 A 
HETATM   18  C13 UNL     1      47.608   0.640  62.213  1.00  0.00     0.002 A 
HETATM   19  C14 UNL     1      46.312   0.675  61.730  1.00  0.00     0.023 A 
ENDBRANCH  11  14
ENDBRANCH   1  11
TORSDOF 4
ENDMDL
MODEL 2
REMARK VINA RESULT: -7.122273533      2.164      4.045
REMARK  4 active torsions:
REMARK  status: ('A' for Active; 'I' for Inactive)
REMARK    1  A    between atoms: C1_2  and  C2_4 
REMARK    2  A    between atoms: C2_4  and  C3_5 
REMARK    3  A    between atoms: C2_4  and  S1_11 
REMARK    4  A    between atoms: S1_11  and  C9_14 
ROOT
HETATM    1  C2  UNL     1      41.968   3.297  60.649  1.00  0.00     0.246 C 
ENDROOT
BRANCH   1   2
HETATM    2  C1  UNL     1      41.865   3.405  59.177  1.00  0.00     0.197 C 
HETATM    3  O1  UNL     1      42.739   2.867  58.453  1.00  0.00    -0.647 OA
HETATM    4  O2  UNL     1      40.819   4.092  58.551  1.00  0.00    -0.647 OA
ENDBRANCH   1   2
BRANCH   1   5
HETATM    5  C3  UNL     1      40.607   3.101  61.190  1.00  0.00    -0.029 A 
HETATM    6  C4  UNL     1      40.134   3.990  62.129  1.00  0.00     0.009 A 
HETATM    7  C5  UNL     1      38.867   3.853  62.667  1.00  0.00     0.001 A 
HETATM    8  C6  UNL     1      38.056   2.809  62.260  1.00  0.00     0.000 A 
HETATM    9  C7  UNL     1      38.538   1.919  61.317  1.00  0.00     0.001 A 
HETATM   10  C8  UNL     1      39.810   2.065  60.782  1.00  0.00     0.009 A 
ENDBRANCH   1   5
BRANCH   1  11
HETATM   11  S1  UNL     1      43.066   1.989  61.060  1.00  0.00     0.193 S 
HETATM   12  O3  UNL     1      42.847   0.782  60.187  1.00  0.00    -0.221 OA
HETATM   13  O4  UNL     1      44.473   2.473  60.740  1.00  0.00    -0.221 OA
BRANCH  11  14
HETATM   14  C9  UNL     1      43.020   1.560  62.735  1.00  0.00     0.060 A 
HETATM   15  C10 UNL     1      41.902   0.959  63.274  1.00  0.00     0.023 A 
HETATM   16  C11 UNL     1      41.932   0.644  64.616  1.00  0.00     0.002 A 
HETATM   17  C12 UNL     1      43.039   0.914  65.411  1.00  0.00     0.000 A 
HETATM   18  C13 UNL     1      44.158   1.515  64.870  1.00  0.00     0.002 A 
HETATM   19  C14 UNL     1      44.120   1.829  63.523  1.00  0.00     0.023 A 
ENDBRANCH  11  14
ENDBRANCH   1  11
TORSDOF 4
ENDMDL
MODEL 3
REMARK VINA RESULT: -7.091761879      2.102      5.194
REMARK  4 active torsions:
REMARK  status: ('A' for Active; 'I' for Inactive)
REMARK    1  A    between atoms: C1_2  and  C2_4 
REMARK    2  A    between atoms: C2_4  and  C3_5 
REMARK    3  A    between atoms: C2_4  and  S1_11 
REMARK    4  A    between atoms: S1_11  and  C9_14 
ROOT
HETATM    1  C2  UNL     1      41.630   2.032  59.789  1.00  0.00     0.246 C 
ENDROOT
BRANCH   1   2
HETATM    2  C1  UNL     1      41.600   3.078  58.741  1.00  0.00     0.197 C 
HETATM    3  O1  UNL     1      42.614   3.266  58.025  1.00  0.00    -0.647 OA
HETATM    4  O2  UNL     1      40.473   3.876  58.516  1.00  0.00    -0.647 OA
ENDBRANCH   1   2
BRANCH   1   5
HETATM    5  C3  UNL     1      42.991   1.994  60.360  1.00  0.00    -0.029 A 
HETATM    6  C4  UNL     1      43.837   0.973  59.987  1.00  0.00     0.009 A 
HETATM    7  C5  UNL     1      45.122   0.891  60.491  1.00  0.00     0.001 A 
HETATM    8  C6  UNL     1      45.574   1.846  61.384  1.00  0.00     0.000 A 
HETATM    9  C7  UNL     1      44.719   2.869  61.754  1.00  0.00     0.001 A 
HETATM   10  C8  UNL     1      43.431   2.943  61.243  1.00  0.00     0.009 A 
ENDBRANCH   1   5
BRANCH   1  11
HETATM   11  S1  UNL     1      40.391   2.376  60.986  1.00  0.00     0.193 S 
HETATM   12  O3  UNL     1      40.372   3.833  61.367  1.00  0.00    -0.221 OA
HETATM   13  O4  UNL     1      39.047   2.111  60.324  1.00  0.00    -0.221 OA
BRANCH  11  14
HETATM   14  C9  UNL     1      40.500   1.370  62.389  1.00  0.00     0.060 A 
HETATM   15  C10 UNL     1      39.835   0.164  62.440  1.00  0.00     0.023 A 
HETATM   16  C11 UNL     1      39.965  -0.587  63.590  1.00  0.00     0.002 A 
HETATM   17  C12 UNL     1      40.735  -0.161  64.664  1.00  0.00     0.000 A 
HETATM   18  C13 UNL     1      41.401   1.047  64.611  1.00  0.00     0.002 A 
HETATM   19  C14 UNL     1      41.265   1.796  63.456  1.00  0.00     0.023 A 
ENDBRANCH  11  14
ENDBRANCH   1  11
TORSDOF 4
ENDMDL
MODEL 4
REMARK VINA RESULT: -7.085178356      1.283      4.683
REMARK  4 active torsions:
REMARK  status: ('A' for Active; 'I' for Inactive)
REMARK    1  A    between atoms: C1_2  and  C2_4 
REMARK    2  A    between atoms: C2_4  and  C3_5 
REMARK    3  A    between atoms: C2_4  and  S1_11 
REMARK    4  A    between atoms: S1_11  and  C9_14 
ROOT
HETATM    1  C2  UNL     1      44.304   1.105  61.185  1.00  0.00     0.246 C 
ENDROOT
BRANCH   1   2
HETATM    2  C1  UNL     1      44.210   1.673  59.821  1.00  0.00     0.197 C 
HETATM    3  O1  UNL     1      45.106   1.417  58.979  1.00  0.00    -0.647 OA
HETATM    4  O2  UNL     1      43.149   2.496  59.427  1.00  0.00    -0.647 OA
ENDBRANCH   1   2
BRANCH   1   5
HETATM    5  C3  UNL     1      45.595   1.527  61.768  1.00  0.00    -0.029 A 
HETATM    6  C4  UNL     1      46.565   0.574  61.984  1.00  0.00     0.009 A 
HETATM    7  C5  UNL     1      47.791   0.914  62.526  1.00  0.00     0.001 A 
HETATM    8  C6  UNL     1      48.055   2.230  62.859  1.00  0.00     0.000 A 
HETATM    9  C7  UNL     1      47.075   3.182  62.640  1.00  0.00     0.001 A 
HETATM   10  C8  UNL     1      45.849   2.832  62.095  1.00  0.00     0.009 A 
ENDBRANCH   1   5
BRANCH   1  11
HETATM   11  S1  UNL     1      42.919   1.631  62.129  1.00  0.00     0.193 S 
HETATM   12  O3  UNL     1      42.704   3.118  62.023  1.00  0.00    -0.221 OA
HETATM   13  O4  UNL     1      41.687   0.996  61.501  1.00  0.00    -0.221 OA
BRANCH  11  14
HETATM   14  C9  UNL     1      42.991   1.131  63.782  1.00  0.00     0.060 A 
HETATM   15  C10 UNL     1      44.124   1.359  64.535  1.00  0.00     0.023 A 
HETATM   16  C11 UNL     1      44.114   0.934  65.847  1.00  0.00     0.002 A 
HETATM   17  C12 UNL     1      43.012   0.299  66.406  1.00  0.00     0.000 A 
HETATM   18  C13 UNL     1      41.879   0.071  65.652  1.00  0.00     0.002 A 
HETATM   19  C14 UNL     1      41.897   0.499  64.336  1.00  0.00     0.023 A 
ENDBRANCH  11  14
ENDBRANCH   1  11
TORSDOF 4
ENDMDL
MODEL 5
REMARK VINA RESULT: -7.071141736      2.147      4.070
REMARK  4 active torsions:
REMARK  status: ('A' for Active; 'I' for Inactive)
REMARK    1  A    between atoms: C1_2  and  C2_4 
REMARK    2  A    between atoms: C2_4  and  C3_5 
REMARK    3  A    between atoms: C2_4  and  S1_11 
REMARK    4  A    between atoms: S1_11  and  C9_14 
ROOT
HETATM    1  C2  UNL     1      41.876   3.305  60.513  1.00  0.00     0.246 C 
ENDROOT
BRANCH   1   2
HETATM    2  C1  UNL     1      41.749   3.423  59.043  1.00  0.00     0.197 C 
HETATM    3  O1  UNL     1      42.647   2.951  58.304  1.00  0.00    -0.647 OA
HETATM    4  O2  UNL     1      40.655   4.049  58.437  1.00  0.00    -0.647 OA
ENDBRANCH   1   2
BRANCH   1   5
HETATM    5  C3  UNL     1      40.519   3.158  61.079  1.00  0.00    -0.029 A 
HETATM    6  C4  UNL     1      40.116   4.029  62.067  1.00  0.00     0.009 A 
HETATM    7  C5  UNL     1      38.857   3.937  62.630  1.00  0.00     0.001 A 
HETATM    8  C6  UNL     1      37.981   2.957  62.199  1.00  0.00     0.000 A 
HETATM    9  C7  UNL     1      38.391   2.086  61.206  1.00  0.00     0.001 A 
HETATM   10  C8  UNL     1      39.657   2.186  60.647  1.00  0.00     0.009 A 
ENDBRANCH   1   5
BRANCH   1  11
HETATM   11  S1  UNL     1      42.931   1.953  60.898  1.00  0.00     0.193 S 
HETATM   12  O3  UNL     1      42.587   0.730  60.090  1.00  0.00    -0.221 OA
HETATM   13  O4  UNL     1      44.335   2.348  60.463  1.00  0.00    -0.221 OA
BRANCH  11  14
HETATM   14  C9  UNL     1      42.981   1.587  62.587  1.00  0.00     0.060 A 
HETATM   15  C10 UNL     1      44.101   1.879  63.336  1.00  0.00     0.023 A 
HETATM   16  C11 UNL     1      44.073   1.560  64.677  1.00  0.00     0.002 A 
HETATM   17  C12 UNL     1      42.966   0.966  65.269  1.00  0.00     0.000 A 
HETATM   18  C13 UNL     1      41.845   0.673  64.519  1.00  0.00     0.002 A 
HETATM   19  C14 UNL     1      41.880   0.996  63.174  1.00  0.00     0.023 A 
ENDBRANCH  11  14
ENDBRANCH   1  11
TORSDOF 4
ENDMDL
