MODEL 1
REMARK VINA RESULT: -8.298900924      0.000      0.000
REMARK  4 active torsions:
REMARK  status: ('A' for Active; 'I' for Inactive)
REMARK       I    between atoms: C1_2  and  N1_3 
REMARK    1  A    between atoms: C1_2  and  C9_12 
REMARK    2  A    between atoms: N1_3  and  C2_5 
REMARK    3  A    between atoms: C2_5  and  C3_6 
REMARK    4  A    between atoms: C14_17  and  N2_18 
ROOT
HETATM    1  C9  UNL     1      40.835   1.651  60.304  1.00  0.00     0.059 A 
HETATM    2  C10 UNL     1      39.602   1.957  59.686  1.00  0.00     0.019 A 
HETATM    3  C11 UNL     1      39.509   2.886  58.694  1.00  0.00     0.001 A 
HETATM    4  C12 UNL     1      40.666   3.523  58.308  1.00  0.00     0.002 A 
HETATM    5  C13 UNL     1      41.858   3.223  58.907  1.00  0.00     0.031 A 
HETATM    6  C14 UNL     1      41.986   2.267  59.933  1.00  0.00     0.055 A 
ENDROOT
BRANCH   1   7
HETATM    7  C1  UNL     1      40.778   0.720  61.394  1.00  0.00     0.254 C 
HETATM    8  O1  UNL     1      40.732  -0.500  61.166  1.00  0.00    -0.268 OA
HETATM    9  N1  UNL     1      40.765   1.233  62.712  1.00  0.00    -0.353 N 
ATOM     10  H1  UNL     1      40.805   2.244  62.842  1.00  0.00     0.163 HD
BRANCH   9  11
HETATM   11  C2  UNL     1      40.699   0.387  63.886  1.00  0.00     0.161 C 
BRANCH  11  12
HETATM   12  C3  UNL     1      41.921   0.459  64.730  1.00  0.00    -0.041 A 
HETATM   13  C4  UNL     1      43.042   1.074  64.267  1.00  0.00     0.009 A 
HETATM   14  C5  UNL     1      44.166   1.142  65.061  1.00  0.00     0.001 A 
HETATM   15  C6  UNL     1      44.189   0.599  66.325  1.00  0.00     0.000 A 
HETATM   16  C7  UNL     1      43.048  -0.024  66.790  1.00  0.00     0.001 A 
HETATM   17  C8  UNL     1      41.919  -0.092  65.995  1.00  0.00     0.009 A 
ENDBRANCH  11  12
ENDBRANCH   9  11
ENDBRANCH   1   7
BRANCH   6  18
HETATM   18  N2  UNL     1      43.306   2.009  60.401  1.00  0.00    -0.316 N 
HETATM   19  C15 UNL     1      43.861   2.860  61.359  1.00  0.00     0.115 A 
HETATM   20  C16 UNL     1      45.108   2.393  61.628  1.00  0.00     0.106 A 
HETATM   21  N3  UNL     1      45.304   1.307  60.872  1.00  0.00    -0.360 N 
HETATM   22  C17 UNL     1      44.187   1.065  60.107  1.00  0.00     0.188 A 
ATOM     23  H3  UNL     1      46.154   0.744  60.862  1.00  0.00     0.166 HD
ENDBRANCH   6  18
TORSDOF 4
ENDMDL
MODEL 2
REMARK VINA RESULT: -7.826898694      2.023      3.594
REMARK  4 active torsions:
REMARK  status: ('A' for Active; 'I' for Inactive)
REMARK       I    between atoms: C1_2  and  N1_3 
REMARK    1  A    between atoms: C1_2  and  C9_12 
REMARK    2  A    between atoms: N1_3  and  C2_5 
REMARK    3  A    between atoms: C2_5  and  C3_6 
REMARK    4  A    between atoms: C14_17  and  N2_18 
ROOT
HETATM    1  C9  UNL     1      38.841   1.633  61.879  1.00  0.00     0.059 A 
HETATM    2  C10 UNL     1      37.648   1.648  62.635  1.00  0.00     0.019 A 
HETATM    3  C11 UNL     1      36.532   2.295  62.199  1.00  0.00     0.001 A 
HETATM    4  C12 UNL     1      36.603   2.940  60.985  1.00  0.00     0.002 A 
HETATM    5  C13 UNL     1      37.759   2.921  60.256  1.00  0.00     0.031 A 
HETATM    6  C14 UNL     1      38.927   2.260  60.678  1.00  0.00     0.055 A 
ENDROOT
BRANCH   1   7
HETATM    7  C1  UNL     1      39.967   0.991  62.494  1.00  0.00     0.254 C 
HETATM    8  O1  UNL     1      40.179  -0.216  62.295  1.00  0.00    -0.268 OA
HETATM    9  N1  UNL     1      40.806   1.766  63.329  1.00  0.00    -0.353 N 
ATOM     10  H1  UNL     1      40.586   2.754  63.459  1.00  0.00     0.163 HD
BRANCH   9  11
HETATM   11  C2  UNL     1      41.963   1.222  64.009  1.00  0.00     0.161 C 
BRANCH  11  12
HETATM   12  C3  UNL     1      43.252   1.641  63.399  1.00  0.00    -0.041 A 
HETATM   13  C4  UNL     1      44.429   1.374  64.026  1.00  0.00     0.009 A 
HETATM   14  C5  UNL     1      45.618   1.759  63.447  1.00  0.00     0.001 A 
HETATM   15  C6  UNL     1      45.652   2.415  62.238  1.00  0.00     0.000 A 
HETATM   16  C7  UNL     1      44.454   2.683  61.606  1.00  0.00     0.001 A 
HETATM   17  C8  UNL     1      43.260   2.296  62.184  1.00  0.00     0.009 A 
ENDBRANCH  11  12
ENDBRANCH   9  11
ENDBRANCH   1   7
BRANCH   6  18
HETATM   18  N2  UNL     1      40.025   2.264  59.771  1.00  0.00    -0.316 N 
HETATM   19  C15 UNL     1      40.851   3.388  59.716  1.00  0.00     0.115 A 
HETATM   20  C16 UNL     1      41.807   3.132  58.785  1.00  0.00     0.106 A 
HETATM   21  N3  UNL     1      41.575   1.908  58.296  1.00  0.00    -0.360 N 
HETATM   22  C17 UNL     1      40.469   1.365  58.906  1.00  0.00     0.188 A 
ATOM     23  H3  UNL     1      42.135   1.448  57.579  1.00  0.00     0.166 HD
ENDBRANCH   6  18
TORSDOF 4
ENDMDL
MODEL 3
REMARK VINA RESULT: -7.689254386      3.749      5.527
REMARK  4 active torsions:
REMARK  status: ('A' for Active; 'I' for Inactive)
REMARK       I    between atoms: C1_2  and  N1_3 
REMARK    1  A    between atoms: C1_2  and  C9_12 
REMARK    2  A    between atoms: N1_3  and  C2_5 
REMARK    3  A    between atoms: C2_5  and  C3_6 
REMARK    4  A    between atoms: C14_17  and  N2_18 
ROOT
HETATM    1  C9  UNL     1      38.360   4.436  61.750  1.00  0.00     0.059 A 
HETATM    2  C10 UNL     1      38.679   5.256  62.855  1.00  0.00     0.019 A 
HETATM    3  C11 UNL     1      37.866   6.277  63.247  1.00  0.00     0.001 A 
HETATM    4  C12 UNL     1      36.713   6.485  62.527  1.00  0.00     0.002 A 
HETATM    5  C13 UNL     1      36.407   5.688  61.459  1.00  0.00     0.031 A 
HETATM    6  C14 UNL     1      37.225   4.625  61.031  1.00  0.00     0.055 A 
ENDROOT
BRANCH   1   7
HETATM    7  C1  UNL     1      39.344   3.456  61.390  1.00  0.00     0.254 C 
HETATM    8  O1  UNL     1      40.098   3.659  60.425  1.00  0.00    -0.268 OA
HETATM    9  N1  UNL     1      39.415   2.267  62.154  1.00  0.00    -0.353 N 
ATOM     10  H1  UNL     1      38.772   2.152  62.937  1.00  0.00     0.163 HD
BRANCH   9  11
HETATM   11  C2  UNL     1      40.360   1.206  61.875  1.00  0.00     0.161 C 
BRANCH  11  12
HETATM   12  C3  UNL     1      41.593   1.286  62.703  1.00  0.00    -0.041 A 
HETATM   13  C4  UNL     1      41.593   0.824  63.982  1.00  0.00     0.009 A 
HETATM   14  C5  UNL     1      42.743   0.895  64.737  1.00  0.00     0.001 A 
HETATM   15  C6  UNL     1      43.906   1.427  64.230  1.00  0.00     0.000 A 
HETATM   16  C7  UNL     1      43.900   1.895  62.931  1.00  0.00     0.001 A 
HETATM   17  C8  UNL     1      42.747   1.823  62.171  1.00  0.00     0.009 A 
ENDBRANCH  11  12
ENDBRANCH   9  11
ENDBRANCH   1   7
BRANCH   6  18
HETATM   18  N2  UNL     1      36.731   3.836  59.953  1.00  0.00    -0.316 N 
HETATM   19  C15 UNL     1      35.874   2.771  60.234  1.00  0.00     0.115 A 
HETATM   20  C16 UNL     1      35.554   2.196  59.045  1.00  0.00     0.106 A 
HETATM   21  N3  UNL     1      36.185   2.880  58.084  1.00  0.00    -0.360 N 
HETATM   22  C17 UNL     1      36.918   3.900  58.643  1.00  0.00     0.188 A 
ATOM     23  H3  UNL     1      36.132   2.675  57.087  1.00  0.00     0.166 HD
ENDBRANCH   6  18
TORSDOF 4
ENDMDL
MODEL 4
REMARK VINA RESULT: -7.673284901      2.337      3.749
REMARK  4 active torsions:
REMARK  status: ('A' for Active; 'I' for Inactive)
REMARK       I    between atoms: C1_2  and  N1_3 
REMARK    1  A    between atoms: C1_2  and  C9_12 
REMARK    2  A    between atoms: N1_3  and  C2_5 
REMARK    3  A    between atoms: C2_5  and  C3_6 
REMARK    4  A    between atoms: C14_17  and  N2_18 
ROOT
HETATM    1  C9  UNL     1      38.214   2.752  60.898  1.00  0.00     0.059 A 
HETATM    2  C10 UNL     1      36.856   2.742  61.285  1.00  0.00     0.019 A 
HETATM    3  C11 UNL     1      35.853   2.591  60.376  1.00  0.00     0.001 A 
HETATM    4  C12 UNL     1      36.208   2.446  59.054  1.00  0.00     0.002 A 
HETATM    5  C13 UNL     1      37.524   2.455  58.684  1.00  0.00     0.031 A 
HETATM    6  C14 UNL     1      38.583   2.607  59.599  1.00  0.00     0.055 A 
ENDROOT
BRANCH   1   7
HETATM    7  C1  UNL     1      39.164   3.008  61.942  1.00  0.00     0.254 C 
HETATM    8  O1  UNL     1      39.331   4.165  62.360  1.00  0.00    -0.268 OA
HETATM    9  N1  UNL     1      39.898   1.915  62.461  1.00  0.00    -0.353 N 
ATOM     10  H1  UNL     1      39.720   0.985  62.082  1.00  0.00     0.163 HD
BRANCH   9  11
HETATM   11  C2  UNL     1      40.889   2.057  63.508  1.00  0.00     0.161 C 
BRANCH  11  12
HETATM   12  C3  UNL     1      42.281   2.122  62.992  1.00  0.00    -0.041 A 
HETATM   13  C4  UNL     1      42.538   2.668  61.773  1.00  0.00     0.009 A 
HETATM   14  C5  UNL     1      43.833   2.731  61.308  1.00  0.00     0.001 A 
HETATM   15  C6  UNL     1      44.889   2.252  62.050  1.00  0.00     0.000 A 
HETATM   16  C7  UNL     1      44.622   1.700  63.286  1.00  0.00     0.001 A 
HETATM   17  C8  UNL     1      43.323   1.636  63.755  1.00  0.00     0.009 A 
ENDBRANCH  11  12
ENDBRANCH   9  11
ENDBRANCH   1   7
BRANCH   6  18
HETATM   18  N2  UNL     1      39.901   2.515  59.070  1.00  0.00    -0.316 N 
HETATM   19  C15 UNL     1      40.557   3.686  58.685  1.00  0.00     0.115 A 
HETATM   20  C16 UNL     1      41.782   3.320  58.224  1.00  0.00     0.106 A 
HETATM   21  N3  UNL     1      41.869   1.989  58.325  1.00  0.00    -0.360 N 
HETATM   22  C17 UNL     1      40.703   1.484  58.850  1.00  0.00     0.188 A 
ATOM     23  H3  UNL     1      42.679   1.432  58.052  1.00  0.00     0.166 HD
ENDBRANCH   6  18
TORSDOF 4
ENDMDL
MODEL 5
REMARK VINA RESULT: -7.549800847      3.458      5.139
REMARK  4 active torsions:
REMARK  status: ('A' for Active; 'I' for Inactive)
REMARK       I    between atoms: C1_2  and  N1_3 
REMARK    1  A    between atoms: C1_2  and  C9_12 
REMARK    2  A    between atoms: N1_3  and  C2_5 
REMARK    3  A    between atoms: C2_5  and  C3_6 
REMARK    4  A    between atoms: C14_17  and  N2_18 
ROOT
HETATM    1  C9  UNL     1      37.804   3.871  62.340  1.00  0.00     0.059 A 
HETATM    2  C10 UNL     1      37.621   4.687  63.478  1.00  0.00     0.019 A 
HETATM    3  C11 UNL     1      37.018   5.906  63.396  1.00  0.00     0.001 A 
HETATM    4  C12 UNL     1      36.586   6.321  62.157  1.00  0.00     0.002 A 
HETATM    5  C13 UNL     1      36.764   5.526  61.058  1.00  0.00     0.031 A 
HETATM    6  C14 UNL     1      37.381   4.263  61.111  1.00  0.00     0.055 A 
ENDROOT
BRANCH   1   7
HETATM    7  C1  UNL     1      38.532   2.652  62.551  1.00  0.00     0.254 C 
HETATM    8  O1  UNL     1      37.923   1.575  62.643  1.00  0.00    -0.268 OA
HETATM    9  N1  UNL     1      39.941   2.725  62.658  1.00  0.00    -0.353 N 
ATOM     10  H1  UNL     1      40.389   3.637  62.574  1.00  0.00     0.163 HD
BRANCH   9  11
HETATM   11  C2  UNL     1      40.775   1.562  62.881  1.00  0.00     0.161 C 
BRANCH  11  12
HETATM   12  C3  UNL     1      42.226   1.841  62.716  1.00  0.00    -0.041 A 
HETATM   13  C4  UNL     1      42.679   2.506  61.619  1.00  0.00     0.009 A 
HETATM   14  C5  UNL     1      44.024   2.766  61.482  1.00  0.00     0.001 A 
HETATM   15  C6  UNL     1      44.936   2.369  62.433  1.00  0.00     0.000 A 
HETATM   16  C7  UNL     1      44.471   1.695  63.544  1.00  0.00     0.001 A 
HETATM   17  C8  UNL     1      43.121   1.434  63.685  1.00  0.00     0.009 A 
ENDBRANCH  11  12
ENDBRANCH   9  11
ENDBRANCH   1   7
BRANCH   6  18
HETATM   18  N2  UNL     1      37.420   3.521  59.896  1.00  0.00    -0.316 N 
HETATM   19  C15 UNL     1      38.513   3.682  59.042  1.00  0.00     0.115 A 
HETATM   20  C16 UNL     1      38.304   2.870  57.973  1.00  0.00     0.106 A 
HETATM   21  N3  UNL     1      37.138   2.243  58.167  1.00  0.00    -0.360 N 
HETATM   22  C17 UNL     1      36.585   2.644  59.360  1.00  0.00     0.188 A 
ATOM     23  H3  UNL     1      36.721   1.568  57.525  1.00  0.00     0.166 HD
ENDBRANCH   6  18
TORSDOF 4
ENDMDL
