MODEL 1
REMARK VINA RESULT: -9.189357574      0.000      0.000
REMARK  5 active torsions:
REMARK  status: ('A' for Active; 'I' for Inactive)
REMARK       I    between atoms: C1_2  and  N1_3 
REMARK    1  A    between atoms: C1_2  and  O3_13 
REMARK       I    between atoms: N1_3  and  C2_5 
REMARK    2  A    between atoms: C2_5  and  C3_7 
REMARK    3  A    between atoms: O3_13  and  C9_14 
REMARK    4  A    between atoms: C9_14  and  C10_15 
REMARK    5  A    between atoms: C10_15  and  C11_17 
ROOT
HETATM    1  O1  UNL     1      40.306   4.128  57.707  1.00  0.00    -0.238 OA
HETATM    2  C1  UNL     1      40.089   3.155  58.475  1.00  0.00     0.367 C 
HETATM    3  N1  UNL     1      38.808   2.992  59.125  1.00  0.00    -0.269 N 
ATOM      4  H1  UNL     1      38.632   2.203  59.747  1.00  0.00     0.174 HD
HETATM    5  C2  UNL     1      37.804   3.961  58.874  1.00  0.00     0.260 C 
HETATM    6  O2  UNL     1      38.038   4.936  58.098  1.00  0.00    -0.267 OA
ENDROOT
BRANCH   2   7
HETATM    7  O3  UNL     1      41.120   2.255  58.668  1.00  0.00    -0.296 OA
BRANCH   7   8
HETATM    8  C9  UNL     1      42.343   2.682  59.231  1.00  0.00     0.264 C 
BRANCH   8   9
HETATM    9  C10 UNL     1      42.177   3.173  60.624  1.00  0.00     0.183 C 
HETATM   10  O4  UNL     1      41.290   3.983  60.961  1.00  0.00    -0.290 OA
BRANCH   9  11
HETATM   11  C11 UNL     1      43.115   2.657  61.603  1.00  0.00     0.012 A 
HETATM   12  C12 UNL     1      44.490   2.760  61.497  1.00  0.00     0.015 A 
HETATM   13  C13 UNL     1      45.335   2.250  62.460  1.00  0.00     0.001 A 
HETATM   14  C14 UNL     1      44.824   1.618  63.564  1.00  0.00     0.000 A 
HETATM   15  C15 UNL     1      43.477   1.504  63.693  1.00  0.00     0.001 A 
HETATM   16  C16 UNL     1      42.632   2.019  62.719  1.00  0.00     0.015 A 
ENDBRANCH   9  11
ENDBRANCH   8   9
ENDBRANCH   7   8
ENDBRANCH   2   7
BRANCH   5  17
HETATM   17  C3  UNL     1      36.486   3.869  59.491  1.00  0.00     0.032 A 
HETATM   18  C4  UNL     1      35.837   2.633  59.574  1.00  0.00     0.017 A 
HETATM   19  C5  UNL     1      34.599   2.509  60.146  1.00  0.00     0.001 A 
HETATM   20  C6  UNL     1      33.929   3.601  60.673  1.00  0.00     0.000 A 
HETATM   21  C7  UNL     1      34.557   4.821  60.597  1.00  0.00     0.001 A 
HETATM   22  C8  UNL     1      35.807   4.945  60.019  1.00  0.00     0.017 A 
ENDBRANCH   5  17
TORSDOF 5
ENDMDL
MODEL 2
REMARK VINA RESULT: -9.171270887      0.056      1.029
REMARK  5 active torsions:
REMARK  status: ('A' for Active; 'I' for Inactive)
REMARK       I    between atoms: C1_2  and  N1_3 
REMARK    1  A    between atoms: C1_2  and  O3_13 
REMARK       I    between atoms: N1_3  and  C2_5 
REMARK    2  A    between atoms: C2_5  and  C3_7 
REMARK    3  A    between atoms: O3_13  and  C9_14 
REMARK    4  A    between atoms: C9_14  and  C10_15 
REMARK    5  A    between atoms: C10_15  and  C11_17 
ROOT
HETATM    1  O1  UNL     1      40.327   4.136  57.711  1.00  0.00    -0.238 OA
HETATM    2  C1  UNL     1      40.115   3.143  58.454  1.00  0.00     0.367 C 
HETATM    3  N1  UNL     1      38.832   2.951  59.091  1.00  0.00    -0.269 N 
ATOM      4  H1  UNL     1      38.660   2.146  59.693  1.00  0.00     0.174 HD
HETATM    5  C2  UNL     1      37.818   3.915  58.855  1.00  0.00     0.260 C 
HETATM    6  O2  UNL     1      38.048   4.910  58.104  1.00  0.00    -0.267 OA
ENDROOT
BRANCH   2   7
HETATM    7  O3  UNL     1      41.154   2.249  58.634  1.00  0.00    -0.296 OA
BRANCH   7   8
HETATM    8  C9  UNL     1      42.375   2.680  59.201  1.00  0.00     0.264 C 
BRANCH   8   9
HETATM    9  C10 UNL     1      42.199   3.186  60.587  1.00  0.00     0.183 C 
HETATM   10  O4  UNL     1      41.321   4.013  60.905  1.00  0.00    -0.290 OA
BRANCH   9  11
HETATM   11  C11 UNL     1      43.117   2.665  61.582  1.00  0.00     0.012 A 
HETATM   12  C12 UNL     1      44.495   2.714  61.476  1.00  0.00     0.015 A 
HETATM   13  C13 UNL     1      45.320   2.201  62.455  1.00  0.00     0.001 A 
HETATM   14  C14 UNL     1      44.785   1.621  63.576  1.00  0.00     0.000 A 
HETATM   15  C15 UNL     1      43.434   1.560  63.705  1.00  0.00     0.001 A 
HETATM   16  C16 UNL     1      42.610   2.077  62.716  1.00  0.00     0.015 A 
ENDBRANCH   9  11
ENDBRANCH   8   9
ENDBRANCH   7   8
ENDBRANCH   2   7
BRANCH   5  17
HETATM   17  C3  UNL     1      36.498   3.794  59.460  1.00  0.00     0.032 A 
HETATM   18  C4  UNL     1      35.842   4.932  59.942  1.00  0.00     0.017 A 
HETATM   19  C5  UNL     1      34.601   4.856  60.517  1.00  0.00     0.001 A 
HETATM   20  C6  UNL     1      33.933   3.649  60.647  1.00  0.00     0.000 A 
HETATM   21  C7  UNL     1      34.567   2.524  60.176  1.00  0.00     0.001 A 
HETATM   22  C8  UNL     1      35.821   2.603  59.597  1.00  0.00     0.017 A 
ENDBRANCH   5  17
TORSDOF 5
ENDMDL
MODEL 3
REMARK VINA RESULT: -9.164304507      1.096      1.710
REMARK  5 active torsions:
REMARK  status: ('A' for Active; 'I' for Inactive)
REMARK       I    between atoms: C1_2  and  N1_3 
REMARK    1  A    between atoms: C1_2  and  O3_13 
REMARK       I    between atoms: N1_3  and  C2_5 
REMARK    2  A    between atoms: C2_5  and  C3_7 
REMARK    3  A    between atoms: O3_13  and  C9_14 
REMARK    4  A    between atoms: C9_14  and  C10_15 
REMARK    5  A    between atoms: C10_15  and  C11_17 
ROOT
HETATM    1  O1  UNL     1      40.879   4.172  57.817  1.00  0.00    -0.238 OA
HETATM    2  C1  UNL     1      40.709   3.411  58.804  1.00  0.00     0.367 C 
HETATM    3  N1  UNL     1      39.396   3.217  59.377  1.00  0.00    -0.269 N 
ATOM      4  H1  UNL     1      39.258   2.600  60.177  1.00  0.00     0.174 HD
HETATM    5  C2  UNL     1      38.304   3.909  58.793  1.00  0.00     0.260 C 
HETATM    6  O2  UNL     1      38.492   4.672  57.798  1.00  0.00    -0.267 OA
ENDROOT
BRANCH   2   7
HETATM    7  O3  UNL     1      41.824   2.774  59.315  1.00  0.00    -0.296 OA
BRANCH   7   8
HETATM    8  C9  UNL     1      42.385   3.193  60.542  1.00  0.00     0.264 C 
BRANCH   8   9
HETATM    9  C10 UNL     1      43.569   2.379  60.922  1.00  0.00     0.183 C 
HETATM   10  O4  UNL     1      44.495   2.110  60.130  1.00  0.00    -0.290 OA
BRANCH   9  11
HETATM   11  C11 UNL     1      43.605   1.897  62.290  1.00  0.00     0.012 A 
HETATM   12  C12 UNL     1      44.736   1.883  63.085  1.00  0.00     0.015 A 
HETATM   13  C13 UNL     1      44.711   1.411  64.380  1.00  0.00     0.001 A 
HETATM   14  C14 UNL     1      43.543   0.936  64.920  1.00  0.00     0.000 A 
HETATM   15  C15 UNL     1      42.417   0.938  64.161  1.00  0.00     0.001 A 
HETATM   16  C16 UNL     1      42.450   1.414  62.858  1.00  0.00     0.015 A 
ENDBRANCH   9  11
ENDBRANCH   8   9
ENDBRANCH   7   8
ENDBRANCH   2   7
BRANCH   5  17
HETATM   17  C3  UNL     1      36.949   3.767  59.310  1.00  0.00     0.032 A 
HETATM   18  C4  UNL     1      36.219   4.901  59.683  1.00  0.00     0.017 A 
HETATM   19  C5  UNL     1      34.944   4.806  60.173  1.00  0.00     0.001 A 
HETATM   20  C6  UNL     1      34.313   3.582  60.324  1.00  0.00     0.000 A 
HETATM   21  C7  UNL     1      35.020   2.460  59.961  1.00  0.00     0.001 A 
HETATM   22  C8  UNL     1      36.308   2.558  59.466  1.00  0.00     0.017 A 
ENDBRANCH   5  17
TORSDOF 5
ENDMDL
MODEL 4
REMARK VINA RESULT: -9.151254504      1.072      1.337
REMARK  5 active torsions:
REMARK  status: ('A' for Active; 'I' for Inactive)
REMARK       I    between atoms: C1_2  and  N1_3 
REMARK    1  A    between atoms: C1_2  and  O3_13 
REMARK       I    between atoms: N1_3  and  C2_5 
REMARK    2  A    between atoms: C2_5  and  C3_7 
REMARK    3  A    between atoms: O3_13  and  C9_14 
REMARK    4  A    between atoms: C9_14  and  C10_15 
REMARK    5  A    between atoms: C10_15  and  C11_17 
ROOT
HETATM    1  O1  UNL     1      40.850   4.144  57.786  1.00  0.00    -0.238 OA
HETATM    2  C1  UNL     1      40.677   3.401  58.787  1.00  0.00     0.367 C 
HETATM    3  N1  UNL     1      39.367   3.243  59.377  1.00  0.00    -0.269 N 
ATOM      4  H1  UNL     1      39.226   2.640  60.188  1.00  0.00     0.174 HD
HETATM    5  C2  UNL     1      38.283   3.949  58.796  1.00  0.00     0.260 C 
HETATM    6  O2  UNL     1      38.474   4.693  57.788  1.00  0.00    -0.267 OA
ENDROOT
BRANCH   2   7
HETATM    7  O3  UNL     1      41.784   2.748  59.294  1.00  0.00    -0.296 OA
BRANCH   7   8
HETATM    8  C9  UNL     1      42.367   3.172  60.510  1.00  0.00     0.264 C 
BRANCH   8   9
HETATM    9  C10 UNL     1      43.557   2.359  60.873  1.00  0.00     0.183 C 
HETATM   10  O4  UNL     1      44.459   2.069  60.061  1.00  0.00    -0.290 OA
BRANCH   9  11
HETATM   11  C11 UNL     1      43.627   1.901  62.248  1.00  0.00     0.012 A 
HETATM   12  C12 UNL     1      44.778   1.906  63.015  1.00  0.00     0.015 A 
HETATM   13  C13 UNL     1      44.785   1.458  64.319  1.00  0.00     0.001 A 
HETATM   14  C14 UNL     1      43.633   0.989  64.896  1.00  0.00     0.000 A 
HETATM   15  C15 UNL     1      42.489   0.973  64.164  1.00  0.00     0.001 A 
HETATM   16  C16 UNL     1      42.489   1.425  62.852  1.00  0.00     0.015 A 
ENDBRANCH   9  11
ENDBRANCH   8   9
ENDBRANCH   7   8
ENDBRANCH   2   7
BRANCH   5  17
HETATM   17  C3  UNL     1      36.931   3.843  59.331  1.00  0.00     0.032 A 
HETATM   18  C4  UNL     1      36.312   2.592  59.427  1.00  0.00     0.017 A 
HETATM   19  C5  UNL     1      35.043   2.455  59.925  1.00  0.00     0.001 A 
HETATM   20  C6  UNL     1      34.311   3.548  60.359  1.00  0.00     0.000 A 
HETATM   21  C7  UNL     1      34.909   4.782  60.270  1.00  0.00     0.001 A 
HETATM   22  C8  UNL     1      36.190   4.919  59.767  1.00  0.00     0.017 A 
ENDBRANCH   5  17
TORSDOF 5
ENDMDL
MODEL 5
REMARK VINA RESULT: -9.130603973      1.178      7.925
REMARK  5 active torsions:
REMARK  status: ('A' for Active; 'I' for Inactive)
REMARK       I    between atoms: C1_2  and  N1_3 
REMARK    1  A    between atoms: C1_2  and  O3_13 
REMARK       I    between atoms: N1_3  and  C2_5 
REMARK    2  A    between atoms: C2_5  and  C3_7 
REMARK    3  A    between atoms: O3_13  and  C9_14 
REMARK    4  A    between atoms: C9_14  and  C10_15 
REMARK    5  A    between atoms: C10_15  and  C11_17 
ROOT
HETATM    1  O1  UNL     1      41.067   3.252  58.490  1.00  0.00    -0.238 OA
HETATM    2  C1  UNL     1      40.591   3.291  59.654  1.00  0.00     0.367 C 
HETATM    3  N1  UNL     1      41.407   2.965  60.802  1.00  0.00    -0.269 N 
ATOM      4  H1  UNL     1      41.022   2.998  61.746  1.00  0.00     0.174 HD
HETATM    5  C2  UNL     1      42.759   2.599  60.578  1.00  0.00     0.260 C 
HETATM    6  O2  UNL     1      43.223   2.564  59.399  1.00  0.00    -0.267 OA
ENDROOT
BRANCH   2   7
HETATM    7  O3  UNL     1      39.265   3.657  59.788  1.00  0.00    -0.296 OA
BRANCH   7   8
HETATM    8  C9  UNL     1      38.396   3.606  58.675  1.00  0.00     0.264 C 
BRANCH   8   9
HETATM    9  C10 UNL     1      37.270   4.568  58.800  1.00  0.00     0.183 C 
HETATM   10  O4  UNL     1      37.299   5.719  58.319  1.00  0.00    -0.290 OA
BRANCH   9  11
HETATM   11  C11 UNL     1      36.104   4.101  59.526  1.00  0.00     0.012 A 
HETATM   12  C12 UNL     1      35.724   2.775  59.626  1.00  0.00     0.015 A 
HETATM   13  C13 UNL     1      34.603   2.389  60.330  1.00  0.00     0.001 A 
HETATM   14  C14 UNL     1      33.824   3.327  60.958  1.00  0.00     0.000 A 
HETATM   15  C15 UNL     1      34.174   4.637  60.875  1.00  0.00     0.001 A 
HETATM   16  C16 UNL     1      35.304   5.018  60.164  1.00  0.00     0.015 A 
ENDBRANCH   9  11
ENDBRANCH   8   9
ENDBRANCH   7   8
ENDBRANCH   2   7
BRANCH   5  17
HETATM   17  C3  UNL     1      43.647   2.256  61.682  1.00  0.00     0.032 A 
HETATM   18  C4  UNL     1      43.113   1.857  62.912  1.00  0.00     0.017 A 
HETATM   19  C5  UNL     1      43.917   1.527  63.971  1.00  0.00     0.001 A 
HETATM   20  C6  UNL     1      45.299   1.571  63.876  1.00  0.00     0.000 A 
HETATM   21  C7  UNL     1      45.835   1.961  62.671  1.00  0.00     0.001 A 
HETATM   22  C8  UNL     1      45.021   2.294  61.603  1.00  0.00     0.017 A 
ENDBRANCH   5  17
TORSDOF 5
ENDMDL
