MODEL 1
REMARK VINA RESULT: -4.421669258      0.000      0.000
REMARK  3 active torsions:
REMARK  status: ('A' for Active; 'I' for Inactive)
REMARK    1  A    between atoms: C5_7  and  C6_8 
REMARK    2  A    between atoms: C6_8  and  C7_9 
REMARK    3  A    between atoms: C7_9  and  C8_10 
ROOT
HETATM    1  C6  UNL     1      26.421   1.191   3.710  1.00  0.00    -0.061 C 
ENDROOT
BRANCH   1   2
HETATM    2  C5  UNL     1      27.435   0.180   3.485  1.00  0.00     0.020 A 
HETATM    3  C4  UNL     1      28.501   0.407   2.649  1.00  0.00     0.052 A 
HETATM    4  C3  UNL     1      29.448  -0.571   2.456  1.00  0.00     0.061 A 
HETATM    5  N1  UNL     1      30.557  -0.626   1.723  1.00  0.00    -0.344 N 
HETATM    6  C19 UNL     1      29.347  -1.803   3.097  1.00  0.00     0.060 A 
HETATM    7  C2  UNL     1      31.134  -1.808   1.877  1.00  0.00     0.078 A 
ATOM      8  H1  UNL     1      30.909   0.127   1.132  1.00  0.00     0.167 HD
HETATM    9  C1  UNL     1      32.406  -2.275   1.223  1.00  0.00     0.089 C 
HETATM   10  N3  UNL     1      30.405  -2.539   2.716  1.00  0.00    -0.344 N 
ATOM     11  H3  UNL     1      30.613  -3.491   3.018  1.00  0.00     0.167 HD
HETATM   12  C18 UNL     1      28.287  -2.040   3.933  1.00  0.00     0.033 A 
HETATM   13  C17 UNL     1      27.350  -1.053   4.116  1.00  0.00     0.023 A 
ENDBRANCH   1   2
BRANCH   1  14
HETATM   14  C7  UNL     1      25.584   2.050   3.888  1.00  0.00    -0.060 C 
BRANCH  14  15
HETATM   15  C8  UNL     1      24.611   3.080   4.084  1.00  0.00     0.032 A 
HETATM   16  C9  UNL     1      23.293   2.840   4.433  1.00  0.00     0.038 A 
HETATM   17  C10 UNL     1      22.403   3.870   4.608  1.00  0.00     0.090 A 
HETATM   18  N2  UNL     1      22.803   5.128   4.442  1.00  0.00    -0.365 N 
HETATM   19  C11 UNL     1      24.075   5.393   4.103  1.00  0.00     0.043 A 
ATOM     20  H2  UNL     1      22.141   5.893   4.572  1.00  0.00     0.165 HD
HETATM   21  C12 UNL     1      24.514   6.699   3.924  1.00  0.00     0.030 A 
HETATM   22  C16 UNL     1      25.011   4.387   3.915  1.00  0.00     0.009 A 
HETATM   23  C13 UNL     1      25.811   6.986   3.578  1.00  0.00     0.002 A 
HETATM   24  C14 UNL     1      26.709   5.947   3.401  1.00  0.00     0.001 A 
HETATM   25  C15 UNL     1      26.313   4.637   3.569  1.00  0.00     0.015 A 
ENDBRANCH  14  15
ENDBRANCH   1  14
TORSDOF 3
ENDMDL
MODEL 2
REMARK VINA RESULT: -2.498883312      1.024      1.058
REMARK  3 active torsions:
REMARK  status: ('A' for Active; 'I' for Inactive)
REMARK    1  A    between atoms: C5_7  and  C6_8 
REMARK    2  A    between atoms: C6_8  and  C7_9 
REMARK    3  A    between atoms: C7_9  and  C8_10 
ROOT
HETATM    1  C6  UNL     1      25.920   1.131   4.155  1.00  0.00    -0.061 C 
ENDROOT
BRANCH   1   2
HETATM    2  C5  UNL     1      26.833   0.007   4.085  1.00  0.00     0.020 A 
HETATM    3  C4  UNL     1      28.173   0.185   3.841  1.00  0.00     0.052 A 
HETATM    4  C3  UNL     1      29.015  -0.901   3.780  1.00  0.00     0.061 A 
HETATM    5  N1  UNL     1      30.321  -1.022   3.566  1.00  0.00    -0.344 N 
HETATM    6  C19 UNL     1      28.530  -2.193   3.964  1.00  0.00     0.060 A 
HETATM    7  C2  UNL     1      30.661  -2.302   3.607  1.00  0.00     0.078 A 
ATOM      8  H1  UNL     1      30.964  -0.249   3.396  1.00  0.00     0.167 HD
HETATM    9  C1  UNL     1      32.042  -2.867   3.413  1.00  0.00     0.089 C 
HETATM   10  N3  UNL     1      29.576  -3.030   3.850  1.00  0.00    -0.344 N 
ATOM     11  H3  UNL     1      29.542  -4.047   3.936  1.00  0.00     0.167 HD
HETATM   12  C18 UNL     1      27.194  -2.382   4.208  1.00  0.00     0.033 A 
HETATM   13  C17 UNL     1      26.367  -1.287   4.265  1.00  0.00     0.023 A 
ENDBRANCH   1   2
BRANCH   1  14
HETATM   14  C7  UNL     1      25.159   2.074   4.192  1.00  0.00    -0.060 C 
BRANCH  14  15
HETATM   15  C8  UNL     1      24.279   3.201   4.228  1.00  0.00     0.032 A 
HETATM   16  C9  UNL     1      22.917   3.110   4.461  1.00  0.00     0.038 A 
HETATM   17  C10 UNL     1      22.121   4.228   4.484  1.00  0.00     0.090 A 
HETATM   18  N2  UNL     1      22.657   5.428   4.279  1.00  0.00    -0.365 N 
HETATM   19  C11 UNL     1      23.975   5.549   4.050  1.00  0.00     0.043 A 
ATOM     20  H2  UNL     1      22.066   6.259   4.296  1.00  0.00     0.165 HD
HETATM   21  C12 UNL     1      24.556   6.793   3.833  1.00  0.00     0.030 A 
HETATM   22  C16 UNL     1      24.820   4.449   4.017  1.00  0.00     0.009 A 
HETATM   23  C13 UNL     1      25.901   6.933   3.598  1.00  0.00     0.002 A 
HETATM   24  C14 UNL     1      26.704   5.805   3.574  1.00  0.00     0.001 A 
HETATM   25  C15 UNL     1      26.167   4.552   3.785  1.00  0.00     0.015 A 
ENDBRANCH  14  15
ENDBRANCH   1  14
TORSDOF 3
ENDMDL
MODEL 3
REMARK VINA RESULT: -2.264081756      1.580      8.225
REMARK  3 active torsions:
REMARK  status: ('A' for Active; 'I' for Inactive)
REMARK    1  A    between atoms: C5_7  and  C6_8 
REMARK    2  A    between atoms: C6_8  and  C7_9 
REMARK    3  A    between atoms: C7_9  and  C8_10 
ROOT
HETATM    1  C6  UNL     1      26.627   2.098   3.790  1.00  0.00    -0.061 C 
ENDROOT
BRANCH   1   2
HETATM    2  C5  UNL     1      26.276   3.503   3.719  1.00  0.00     0.020 A 
HETATM    3  C4  UNL     1      25.259   4.027   4.479  1.00  0.00     0.052 A 
HETATM    4  C3  UNL     1      24.949   5.364   4.390  1.00  0.00     0.061 A 
HETATM    5  N1  UNL     1      24.039   6.124   4.992  1.00  0.00    -0.344 N 
HETATM    6  C19 UNL     1      25.654   6.208   3.535  1.00  0.00     0.060 A 
HETATM    7  C2  UNL     1      24.145   7.372   4.559  1.00  0.00     0.078 A 
ATOM      8  H1  UNL     1      23.363   5.797   5.682  1.00  0.00     0.167 HD
HETATM    9  C1  UNL     1      23.302   8.542   4.989  1.00  0.00     0.089 C 
HETATM   10  N3  UNL     1      25.129   7.438   3.668  1.00  0.00    -0.344 N 
ATOM     11  H3  UNL     1      25.433   8.276   3.171  1.00  0.00     0.167 HD
HETATM   12  C18 UNL     1      26.671   5.694   2.772  1.00  0.00     0.033 A 
HETATM   13  C17 UNL     1      26.968   4.357   2.872  1.00  0.00     0.023 A 
ENDBRANCH   1   2
BRANCH   1  14
HETATM   14  C7  UNL     1      26.940   0.929   3.855  1.00  0.00    -0.060 C 
BRANCH  14  15
HETATM   15  C8  UNL     1      27.334  -0.445   3.930  1.00  0.00     0.032 A 
HETATM   16  C9  UNL     1      26.660  -1.401   4.671  1.00  0.00     0.038 A 
HETATM   17  C10 UNL     1      27.085  -2.705   4.705  1.00  0.00     0.090 A 
HETATM   18  N2  UNL     1      28.164  -3.071   4.017  1.00  0.00    -0.365 N 
HETATM   19  C11 UNL     1      28.838  -2.166   3.289  1.00  0.00     0.043 A 
ATOM     20  H2  UNL     1      28.479  -4.040   4.042  1.00  0.00     0.165 HD
HETATM   21  C12 UNL     1      29.968  -2.525   2.563  1.00  0.00     0.030 A 
HETATM   22  C16 UNL     1      28.448  -0.836   3.223  1.00  0.00     0.009 A 
HETATM   23  C13 UNL     1      30.667  -1.612   1.814  1.00  0.00     0.002 A 
HETATM   24  C14 UNL     1      30.239  -0.295   1.780  1.00  0.00     0.001 A 
HETATM   25  C15 UNL     1      29.123   0.102   2.486  1.00  0.00     0.015 A 
ENDBRANCH  14  15
ENDBRANCH   1  14
TORSDOF 3
ENDMDL
MODEL 4
REMARK VINA RESULT: -2.230744828      1.619      8.402
REMARK  3 active torsions:
REMARK  status: ('A' for Active; 'I' for Inactive)
REMARK    1  A    between atoms: C5_7  and  C6_8 
REMARK    2  A    between atoms: C6_8  and  C7_9 
REMARK    3  A    between atoms: C7_9  and  C8_10 
ROOT
HETATM    1  C6  UNL     1      27.537   2.649   3.081  1.00  0.00    -0.061 C 
ENDROOT
BRANCH   1   2
HETATM    2  C5  UNL     1      26.916   3.956   3.168  1.00  0.00     0.020 A 
HETATM    3  C4  UNL     1      25.945   4.229   4.100  1.00  0.00     0.052 A 
HETATM    4  C3  UNL     1      25.374   5.478   4.158  1.00  0.00     0.061 A 
HETATM    5  N1  UNL     1      24.438   6.011   4.937  1.00  0.00    -0.344 N 
HETATM    6  C19 UNL     1      25.764   6.485   3.279  1.00  0.00     0.060 A 
HETATM    7  C2  UNL     1      24.234   7.273   4.589  1.00  0.00     0.078 A 
ATOM      8  H1  UNL     1      23.950   5.522   5.689  1.00  0.00     0.167 HD
HETATM    9  C1  UNL     1      23.258   8.228   5.221  1.00  0.00     0.089 C 
HETATM   10  N3  UNL     1      25.039   7.577   3.576  1.00  0.00    -0.344 N 
ATOM     11  H3  UNL     1      25.097   8.481   3.107  1.00  0.00     0.167 HD
HETATM   12  C18 UNL     1      26.732   6.223   2.343  1.00  0.00     0.033 A 
HETATM   13  C17 UNL     1      27.293   4.970   2.299  1.00  0.00     0.023 A 
ENDBRANCH   1   2
BRANCH   1  14
HETATM   14  C7  UNL     1      28.038   1.547   3.005  1.00  0.00    -0.060 C 
BRANCH  14  15
HETATM   15  C8  UNL     1      28.605   0.237   2.914  1.00  0.00     0.032 A 
HETATM   16  C9  UNL     1      29.731  -0.065   2.167  1.00  0.00     0.038 A 
HETATM   17  C10 UNL     1      30.231  -1.343   2.116  1.00  0.00     0.090 A 
HETATM   18  N2  UNL     1      29.630  -2.318   2.794  1.00  0.00    -0.365 N 
HETATM   19  C11 UNL     1      28.536  -2.055   3.528  1.00  0.00     0.043 A 
ATOM     20  H2  UNL     1      30.002  -3.267   2.757  1.00  0.00     0.165 HD
HETATM   21  C12 UNL     1      27.893  -3.058   4.243  1.00  0.00     0.030 A 
HETATM   22  C16 UNL     1      27.994  -0.781   3.610  1.00  0.00     0.009 A 
HETATM   23  C13 UNL     1      26.775  -2.806   4.998  1.00  0.00     0.002 A 
HETATM   24  C14 UNL     1      26.269  -1.517   5.048  1.00  0.00     0.001 A 
HETATM   25  C15 UNL     1      26.879  -0.494   4.353  1.00  0.00     0.015 A 
ENDBRANCH  14  15
ENDBRANCH   1  14
TORSDOF 3
ENDMDL
MODEL 5
REMARK VINA RESULT: -1.024464406      1.401      7.994
REMARK  3 active torsions:
REMARK  status: ('A' for Active; 'I' for Inactive)
REMARK    1  A    between atoms: C5_7  and  C6_8 
REMARK    2  A    between atoms: C6_8  and  C7_9 
REMARK    3  A    between atoms: C7_9  and  C8_10 
ROOT
HETATM    1  C6  UNL     1      25.998   1.495   4.173  1.00  0.00    -0.061 C 
ENDROOT
BRANCH   1   2
HETATM    2  C5  UNL     1      25.363   2.798   4.206  1.00  0.00     0.020 A 
HETATM    3  C4  UNL     1      25.946   3.895   3.619  1.00  0.00     0.052 A 
HETATM    4  C3  UNL     1      25.320   5.118   3.667  1.00  0.00     0.061 A 
HETATM    5  N1  UNL     1      25.643   6.320   3.197  1.00  0.00    -0.344 N 
HETATM    6  C19 UNL     1      24.092   5.270   4.306  1.00  0.00     0.060 A 
HETATM    7  C2  UNL     1      24.693   7.189   3.509  1.00  0.00     0.078 A 
ATOM      8  H1  UNL     1      26.492   6.538   2.676  1.00  0.00     0.167 HD
HETATM    9  C1  UNL     1      24.674   8.654   3.163  1.00  0.00     0.089 C 
HETATM   10  N3  UNL     1      23.738   6.561   4.187  1.00  0.00    -0.344 N 
ATOM     11  H3  UNL     1      22.885   6.985   4.553  1.00  0.00     0.167 HD
HETATM   12  C18 UNL     1      23.502   4.182   4.896  1.00  0.00     0.033 A 
HETATM   13  C17 UNL     1      24.141   2.967   4.839  1.00  0.00     0.023 A 
ENDBRANCH   1   2
BRANCH   1  14
HETATM   14  C7  UNL     1      26.542   0.412   4.131  1.00  0.00    -0.060 C 
BRANCH  14  15
HETATM   15  C8  UNL     1      27.204  -0.854   4.070  1.00  0.00     0.032 A 
HETATM   16  C9  UNL     1      26.768  -1.985   4.739  1.00  0.00     0.038 A 
HETATM   17  C10 UNL     1      27.445  -3.175   4.644  1.00  0.00     0.090 A 
HETATM   18  N2  UNL     1      28.543  -3.256   3.897  1.00  0.00    -0.365 N 
HETATM   19  C11 UNL     1      28.991  -2.176   3.236  1.00  0.00     0.043 A 
ATOM     20  H2  UNL     1      29.046  -4.140   3.825  1.00  0.00     0.165 HD
HETATM   21  C12 UNL     1      30.136  -2.237   2.450  1.00  0.00     0.030 A 
HETATM   22  C16 UNL     1      28.342  -0.952   3.301  1.00  0.00     0.009 A 
HETATM   23  C13 UNL     1      30.606  -1.143   1.768  1.00  0.00     0.002 A 
HETATM   24  C14 UNL     1      29.923   0.059   1.865  1.00  0.00     0.001 A 
HETATM   25  C15 UNL     1      28.783   0.161   2.634  1.00  0.00     0.015 A 
ENDBRANCH  14  15
ENDBRANCH   1  14
TORSDOF 3
ENDMDL
