MODEL 1
REMARK VINA RESULT: -7.352072462      0.000      0.000
REMARK  2 active torsions:
REMARK  status: ('A' for Active; 'I' for Inactive)
REMARK    1  A    between atoms: N1_3  and  C3_5 
REMARK    2  A    between atoms: C3_5  and  N2_7 
ROOT
HETATM    1  C1  UNL     1      27.201   6.397   4.187  1.00  0.00     0.037 C 
HETATM    2  C2  UNL     1      27.777   5.478   3.673  1.00  0.00     0.001 C 
HETATM    3  N1  UNL     1      28.471   4.336   3.062  1.00  0.00    -0.295 N 
ATOM      4  H1  UNL     1      29.057   4.436   2.233  1.00  0.00     0.178 HD
ENDROOT
BRANCH   3   5
HETATM    5  C3  UNL     1      28.278   3.128   3.683  1.00  0.00     0.170 C 
HETATM    6  S1  UNL     1      29.204   3.076   5.185  1.00  0.00    -0.012 SA
BRANCH   5   7
HETATM    7  N2  UNL     1      27.395   2.025   3.621  1.00  0.00    -0.288 N 
HETATM    8  C4  UNL     1      27.968   0.721   3.380  1.00  0.00     0.059 A 
HETATM    9  C5  UNL     1      29.170   0.653   2.670  1.00  0.00     0.031 A 
HETATM   10  C9  UNL     1      27.397  -0.489   3.606  1.00  0.00     0.033 A 
HETATM   11  C6  UNL     1      29.722  -0.573   2.246  1.00  0.00     0.002 A 
HETATM   12  C7  UNL     1      29.077  -1.748   2.520  1.00  0.00     0.002 A 
HETATM   13  C8  UNL     1      27.888  -1.708   3.214  1.00  0.00     0.021 A 
HETATM   14  S2  UNL     1      25.854  -0.548   4.480  1.00  0.00    -0.086 SA
HETATM   15  C10 UNL     1      25.243   1.119   4.455  1.00  0.00     0.033 A 
HETATM   16  C11 UNL     1      23.929   1.263   4.843  1.00  0.00     0.021 A 
HETATM   17  C15 UNL     1      26.068   2.162   4.134  1.00  0.00     0.059 A 
HETATM   18  C12 UNL     1      23.364   2.508   4.933  1.00  0.00     0.002 A 
HETATM   19  C13 UNL     1      24.126   3.589   4.632  1.00  0.00     0.002 A 
HETATM   20  C14 UNL     1      25.443   3.401   4.243  1.00  0.00     0.031 A 
ENDBRANCH   5   7
ENDBRANCH   3   5
TORSDOF 2
ENDMDL
MODEL 2
REMARK VINA RESULT: -6.717747648      0.983      4.341
REMARK  2 active torsions:
REMARK  status: ('A' for Active; 'I' for Inactive)
REMARK    1  A    between atoms: N1_3  and  C3_5 
REMARK    2  A    between atoms: C3_5  and  N2_7 
ROOT
HETATM    1  C1  UNL     1      27.564   6.541   4.192  1.00  0.00     0.037 C 
HETATM    2  C2  UNL     1      27.907   5.490   3.722  1.00  0.00     0.001 C 
HETATM    3  N1  UNL     1      28.318   4.193   3.169  1.00  0.00    -0.295 N 
ATOM      4  H1  UNL     1      28.753   4.105   2.251  1.00  0.00     0.178 HD
ENDROOT
BRANCH   3   5
HETATM    5  C3  UNL     1      28.076   3.106   3.971  1.00  0.00     0.170 C 
HETATM    6  S1  UNL     1      29.163   3.139   5.361  1.00  0.00    -0.012 SA
BRANCH   5   7
HETATM    7  N2  UNL     1      27.081   2.118   4.159  1.00  0.00    -0.288 N 
HETATM    8  C4  UNL     1      25.702   2.551   4.178  1.00  0.00     0.059 A 
HETATM    9  C5  UNL     1      25.430   3.857   4.593  1.00  0.00     0.031 A 
HETATM   10  C9  UNL     1      24.593   1.788   4.008  1.00  0.00     0.033 A 
HETATM   11  C6  UNL     1      24.115   4.319   4.799  1.00  0.00     0.002 A 
HETATM   12  C7  UNL     1      23.052   3.480   4.601  1.00  0.00     0.002 A 
HETATM   13  C8  UNL     1      23.294   2.185   4.197  1.00  0.00     0.021 A 
HETATM   14  S2  UNL     1      24.795   0.099   3.502  1.00  0.00    -0.086 SA
HETATM   15  C10 UNL     1      26.511  -0.264   3.774  1.00  0.00     0.033 A 
HETATM   16  C11 UNL     1      26.842  -1.599   3.702  1.00  0.00     0.021 A 
HETATM   17  C15 UNL     1      27.418   0.742   3.968  1.00  0.00     0.059 A 
HETATM   18  C12 UNL     1      28.147  -1.999   3.824  1.00  0.00     0.002 A 
HETATM   19  C13 UNL     1      29.100  -1.053   4.016  1.00  0.00     0.002 A 
HETATM   20  C14 UNL     1      28.725   0.280   4.084  1.00  0.00     0.031 A 
ENDBRANCH   5   7
ENDBRANCH   3   5
TORSDOF 2
ENDMDL
MODEL 3
REMARK VINA RESULT: -6.706810625      2.071      4.500
REMARK  2 active torsions:
REMARK  status: ('A' for Active; 'I' for Inactive)
REMARK    1  A    between atoms: N1_3  and  C3_5 
REMARK    2  A    between atoms: C3_5  and  N2_7 
ROOT
HETATM    1  C1  UNL     1      27.026  -2.487   4.517  1.00  0.00     0.037 C 
HETATM    2  C2  UNL     1      26.270  -1.570   4.695  1.00  0.00     0.001 C 
HETATM    3  N1  UNL     1      25.361  -0.434   4.897  1.00  0.00    -0.295 N 
ATOM      4  H1  UNL     1      24.522  -0.504   5.473  1.00  0.00     0.178 HD
ENDROOT
BRANCH   3   5
HETATM    5  C3  UNL     1      25.717   0.726   4.258  1.00  0.00     0.170 C 
HETATM    6  S1  UNL     1      24.997   0.763   2.647  1.00  0.00    -0.012 SA
BRANCH   5   7
HETATM    7  N2  UNL     1      26.270   1.991   4.570  1.00  0.00    -0.288 N 
HETATM    8  C4  UNL     1      27.706   2.077   4.707  1.00  0.00     0.059 A 
HETATM    9  C5  UNL     1      28.398   0.930   5.105  1.00  0.00     0.031 A 
HETATM   10  C9  UNL     1      28.475   3.195   4.667  1.00  0.00     0.033 A 
HETATM   11  C6  UNL     1      29.771   0.956   5.422  1.00  0.00     0.002 A 
HETATM   12  C7  UNL     1      30.471   2.129   5.352  1.00  0.00     0.002 A 
HETATM   13  C8  UNL     1      29.811   3.275   4.967  1.00  0.00     0.021 A 
HETATM   14  S2  UNL     1      27.718   4.729   4.198  1.00  0.00    -0.086 SA
HETATM   15  C10 UNL     1      25.970   4.438   4.315  1.00  0.00     0.033 A 
HETATM   16  C11 UNL     1      25.186   5.569   4.254  1.00  0.00     0.021 A 
HETATM   17  C15 UNL     1      25.475   3.165   4.391  1.00  0.00     0.059 A 
HETATM   18  C12 UNL     1      23.820   5.470   4.263  1.00  0.00     0.002 A 
HETATM   19  C13 UNL     1      23.261   4.236   4.334  1.00  0.00     0.002 A 
HETATM   20  C14 UNL     1      24.084   3.122   4.396  1.00  0.00     0.031 A 
ENDBRANCH   5   7
ENDBRANCH   3   5
TORSDOF 2
ENDMDL
MODEL 4
REMARK VINA RESULT: -6.581628638      1.465      5.239
REMARK  2 active torsions:
REMARK  status: ('A' for Active; 'I' for Inactive)
REMARK    1  A    between atoms: N1_3  and  C3_5 
REMARK    2  A    between atoms: C3_5  and  N2_7 
ROOT
HETATM    1  C1  UNL     1      22.773   3.922   4.419  1.00  0.00     0.037 C 
HETATM    2  C2  UNL     1      23.316   2.863   4.585  1.00  0.00     0.001 C 
HETATM    3  N1  UNL     1      23.996   1.575   4.768  1.00  0.00    -0.295 N 
ATOM      4  H1  UNL     1      23.705   0.901   5.475  1.00  0.00     0.178 HD
ENDROOT
BRANCH   3   5
HETATM    5  C3  UNL     1      25.051   1.340   3.922  1.00  0.00     0.170 C 
HETATM    6  S1  UNL     1      24.447   0.809   2.351  1.00  0.00    -0.012 SA
BRANCH   5   7
HETATM    7  N2  UNL     1      26.435   1.618   3.839  1.00  0.00    -0.288 N 
HETATM    8  C4  UNL     1      26.852   2.993   3.995  1.00  0.00     0.059 A 
HETATM    9  C5  UNL     1      25.948   3.997   3.641  1.00  0.00     0.031 A 
HETATM   10  C9  UNL     1      28.095   3.453   4.285  1.00  0.00     0.033 A 
HETATM   11  C6  UNL     1      26.316   5.357   3.604  1.00  0.00     0.002 A 
HETATM   12  C7  UNL     1      27.594   5.733   3.914  1.00  0.00     0.002 A 
HETATM   13  C8  UNL     1      28.506   4.761   4.262  1.00  0.00     0.021 A 
HETATM   14  S2  UNL     1      29.350   2.281   4.732  1.00  0.00    -0.086 SA
HETATM   15  C10 UNL     1      28.702   0.700   4.247  1.00  0.00     0.033 A 
HETATM   16  C11 UNL     1      29.615  -0.331   4.254  1.00  0.00     0.021 A 
HETATM   17  C15 UNL     1      27.372   0.546   3.962  1.00  0.00     0.059 A 
HETATM   18  C12 UNL     1      29.220  -1.611   3.967  1.00  0.00     0.002 A 
HETATM   19  C13 UNL     1      27.915  -1.837   3.678  1.00  0.00     0.002 A 
HETATM   20  C14 UNL     1      27.027  -0.772   3.680  1.00  0.00     0.031 A 
ENDBRANCH   5   7
ENDBRANCH   3   5
TORSDOF 2
ENDMDL
MODEL 5
REMARK VINA RESULT: -6.472283714      1.545      2.079
REMARK  2 active torsions:
REMARK  status: ('A' for Active; 'I' for Inactive)
REMARK    1  A    between atoms: N1_3  and  C3_5 
REMARK    2  A    between atoms: C3_5  and  N2_7 
ROOT
HETATM    1  C1  UNL     1      29.676   1.475   6.438  1.00  0.00     0.037 C 
HETATM    2  C2  UNL     1      29.487   2.459   5.777  1.00  0.00     0.001 C 
HETATM    3  N1  UNL     1      29.233   3.652   4.958  1.00  0.00    -0.295 N 
ATOM      4  H1  UNL     1      29.865   4.453   4.953  1.00  0.00     0.178 HD
ENDROOT
BRANCH   3   5
HETATM    5  C3  UNL     1      28.089   3.616   4.202  1.00  0.00     0.170 C 
HETATM    6  S1  UNL     1      28.043   5.012   3.124  1.00  0.00    -0.012 SA
BRANCH   5   7
HETATM    7  N2  UNL     1      27.071   2.699   3.849  1.00  0.00    -0.288 N 
HETATM    8  C4  UNL     1      27.467   1.341   3.552  1.00  0.00     0.059 A 
HETATM    9  C5  UNL     1      28.758   1.127   3.060  1.00  0.00     0.031 A 
HETATM   10  C9  UNL     1      26.680   0.237   3.521  1.00  0.00     0.033 A 
HETATM   11  C6  UNL     1      29.181  -0.133   2.591  1.00  0.00     0.002 A 
HETATM   12  C7  UNL     1      28.319  -1.195   2.599  1.00  0.00     0.002 A 
HETATM   13  C8  UNL     1      27.039  -1.009   3.073  1.00  0.00     0.021 A 
HETATM   14  S2  UNL     1      25.007   0.372   4.097  1.00  0.00    -0.086 SA
HETATM   15  C10 UNL     1      24.683   2.117   4.174  1.00  0.00     0.033 A 
HETATM   16  C11 UNL     1      23.359   2.456   4.341  1.00  0.00     0.021 A 
HETATM   17  C15 UNL     1      25.709   3.022   4.135  1.00  0.00     0.059 A 
HETATM   18  C12 UNL     1      22.990   3.768   4.485  1.00  0.00     0.002 A 
HETATM   19  C13 UNL     1      23.957   4.719   4.459  1.00  0.00     0.002 A 
HETATM   20  C14 UNL     1      25.278   4.336   4.287  1.00  0.00     0.031 A 
ENDBRANCH   5   7
ENDBRANCH   3   5
TORSDOF 2
ENDMDL
