MODEL 1
REMARK VINA RESULT: -7.550356245      0.000      0.000
REMARK  9 active torsions:
REMARK  status: ('A' for Active; 'I' for Inactive)
REMARK    1  A    between atoms: O1_2  and  C2_3 
REMARK    2  A    between atoms: C3_4  and  C4_5 
REMARK    3  A    between atoms: C8_11  and  C9_12 
REMARK    4  A    between atoms: C9_12  and  O3_13 
REMARK    5  A    between atoms: O3_13  and  C10_14 
REMARK    6  A    between atoms: C12_17  and  O5_18 
REMARK    7  A    between atoms: O5_18  and  C13_19 
REMARK    8  A    between atoms: C13_19  and  C14_21 
REMARK    9  A    between atoms: C17_24  and  O7_25 
ROOT
HETATM    1  C2  UNL     1      22.853  30.535  16.080  1.00  0.00     0.184 C 
HETATM    2  C3  UNL     1      23.442  31.406  17.154  1.00  0.00     0.177 C 
HETATM    3  O2  UNL     1      23.605  30.745  18.333  1.00  0.00    -0.369 OA
HETATM    4  C8  UNL     1      22.645  29.923  18.790  1.00  0.00     0.179 C 
HETATM    5  C12 UNL     1      21.930  29.080  17.725  1.00  0.00     0.194 C 
HETATM    6  C17 UNL     1      21.528  29.912  16.564  1.00  0.00     0.182 C 
ENDROOT
BRANCH   5   7
HETATM    7  O5  UNL     1      20.966  28.331  18.353  1.00  0.00    -0.310 OA
BRANCH   7   8
HETATM    8  C13 UNL     1      20.952  26.985  18.568  1.00  0.00     0.263 C 
HETATM    9  O6  UNL     1      21.370  26.308  17.586  1.00  0.00    -0.265 OA
BRANCH   8  10
HETATM   10  C14 UNL     1      20.499  26.327  19.818  1.00  0.00     0.085 A 
HETATM   11  C15 UNL     1      19.722  27.078  20.828  1.00  0.00     0.015 A 
HETATM   12  C16 UNL     1      18.976  26.183  19.910  1.00  0.00     0.015 A 
ENDBRANCH   8  10
ENDBRANCH   7   8
ENDBRANCH   5   7
BRANCH   4  13
HETATM   13  C9  UNL     1      21.681  30.442  19.804  1.00  0.00     0.213 C 
BRANCH  13  14
HETATM   14  O3  UNL     1      21.513  31.810  19.904  1.00  0.00    -0.319 OA
BRANCH  14  15
HETATM   15  C10 UNL     1      20.496  32.621  19.494  1.00  0.00     0.254 C 
HETATM   16  C11 UNL     1      19.181  32.550  20.229  1.00  0.00     0.126 C 
HETATM   17  O4  UNL     1      20.658  33.399  18.531  1.00  0.00    -0.266 OA
ENDBRANCH  14  15
ENDBRANCH  13  14
ENDBRANCH   4  13
BRANCH   6  18
HETATM   18  O7  UNL     1      20.642  30.922  16.844  1.00  0.00    -0.390 OA
ATOM     19  H7  UNL     1      19.811  30.722  16.430  1.00  0.00     0.210 HD
ENDBRANCH   6  18
BRANCH   1  20
HETATM   20  O1  UNL     1      22.769  31.101  14.861  1.00  0.00    -0.385 OA
HETATM   21  C1  UNL     1      22.187  30.360  13.860  1.00  0.00     0.202 C 
ENDBRANCH   1  20
BRANCH   2  22
HETATM   22  C4  UNL     1      24.827  31.767  16.671  1.00  0.00     0.021 C 
HETATM   23  C5  UNL     1      25.475  32.824  17.145  1.00  0.00    -0.022 C 
HETATM   24  C6  UNL     1      26.769  33.513  16.971  1.00  0.00     0.056 C 
HETATM   25  S1  UNL     1      25.041  34.060  18.363  1.00  0.00    -0.134 SA
HETATM   26  C7  UNL     1      26.449  34.845  17.570  1.00  0.00     0.084 C 
ENDBRANCH   2  22
TORSDOF 9
ENDMDL
MODEL 2
REMARK VINA RESULT: -7.359831311      0.957      1.044
REMARK  9 active torsions:
REMARK  status: ('A' for Active; 'I' for Inactive)
REMARK    1  A    between atoms: O1_2  and  C2_3 
REMARK    2  A    between atoms: C3_4  and  C4_5 
REMARK    3  A    between atoms: C8_11  and  C9_12 
REMARK    4  A    between atoms: C9_12  and  O3_13 
REMARK    5  A    between atoms: O3_13  and  C10_14 
REMARK    6  A    between atoms: C12_17  and  O5_18 
REMARK    7  A    between atoms: O5_18  and  C13_19 
REMARK    8  A    between atoms: C13_19  and  C14_21 
REMARK    9  A    between atoms: C17_24  and  O7_25 
ROOT
HETATM    1  C2  UNL     1      22.805  30.509  16.018  1.00  0.00     0.184 C 
HETATM    2  C3  UNL     1      23.190  31.502  17.078  1.00  0.00     0.177 C 
HETATM    3  O2  UNL     1      23.348  30.926  18.301  1.00  0.00    -0.369 OA
HETATM    4  C8  UNL     1      22.473  30.004  18.737  1.00  0.00     0.179 C 
HETATM    5  C12 UNL     1      21.960  29.022  17.675  1.00  0.00     0.194 C 
HETATM    6  C17 UNL     1      21.541  29.735  16.443  1.00  0.00     0.182 C 
ENDROOT
BRANCH   5   7
HETATM    7  O5  UNL     1      21.058  28.179  18.276  1.00  0.00    -0.310 OA
BRANCH   7   8
HETATM    8  C13 UNL     1      21.312  27.077  19.037  1.00  0.00     0.263 C 
HETATM    9  O6  UNL     1      22.375  26.470  18.715  1.00  0.00    -0.265 OA
BRANCH   8  10
HETATM   10  C14 UNL     1      20.456  26.591  20.147  1.00  0.00     0.085 A 
HETATM   11  C15 UNL     1      19.349  27.423  20.667  1.00  0.00     0.015 A 
HETATM   12  C16 UNL     1      19.007  26.329  19.725  1.00  0.00     0.015 A 
ENDBRANCH   8  10
ENDBRANCH   7   8
ENDBRANCH   5   7
BRANCH   4  13
HETATM   13  C9  UNL     1      21.374  30.435  19.651  1.00  0.00     0.213 C 
BRANCH  13  14
HETATM   14  O3  UNL     1      20.550  31.464  19.239  1.00  0.00    -0.319 OA
BRANCH  14  15
HETATM   15  C10 UNL     1      20.397  32.734  19.713  1.00  0.00     0.254 C 
HETATM   16  C11 UNL     1      21.623  33.475  20.188  1.00  0.00     0.126 C 
HETATM   17  O4  UNL     1      19.267  33.262  19.749  1.00  0.00    -0.266 OA
ENDBRANCH  14  15
ENDBRANCH  13  14
ENDBRANCH   4  13
BRANCH   6  18
HETATM   18  O7  UNL     1      20.510  30.627  16.603  1.00  0.00    -0.390 OA
ATOM     19  H7  UNL     1      19.753  30.307  16.128  1.00  0.00     0.210 HD
ENDBRANCH   6  18
BRANCH   1  20
HETATM   20  O1  UNL     1      22.740  31.000  14.765  1.00  0.00    -0.385 OA
HETATM   21  C1  UNL     1      22.179  30.197  13.800  1.00  0.00     0.202 C 
ENDBRANCH   1  20
BRANCH   2  22
HETATM   22  C4  UNL     1      24.547  32.026  16.672  1.00  0.00     0.021 C 
HETATM   23  C5  UNL     1      24.798  33.327  16.600  1.00  0.00    -0.022 C 
HETATM   24  C6  UNL     1      25.913  34.234  16.267  1.00  0.00     0.056 C 
HETATM   25  S1  UNL     1      23.786  34.769  16.907  1.00  0.00    -0.134 SA
HETATM   26  C7  UNL     1      25.165  35.505  16.021  1.00  0.00     0.084 C 
ENDBRANCH   2  22
TORSDOF 9
ENDMDL
MODEL 3
REMARK VINA RESULT: -7.265936881      1.020      1.205
REMARK  9 active torsions:
REMARK  status: ('A' for Active; 'I' for Inactive)
REMARK    1  A    between atoms: O1_2  and  C2_3 
REMARK    2  A    between atoms: C3_4  and  C4_5 
REMARK    3  A    between atoms: C8_11  and  C9_12 
REMARK    4  A    between atoms: C9_12  and  O3_13 
REMARK    5  A    between atoms: O3_13  and  C10_14 
REMARK    6  A    between atoms: C12_17  and  O5_18 
REMARK    7  A    between atoms: O5_18  and  C13_19 
REMARK    8  A    between atoms: C13_19  and  C14_21 
REMARK    9  A    between atoms: C17_24  and  O7_25 
ROOT
HETATM    1  C2  UNL     1      22.874  30.522  16.097  1.00  0.00     0.184 C 
HETATM    2  C3  UNL     1      23.476  31.385  17.171  1.00  0.00     0.177 C 
HETATM    3  O2  UNL     1      23.635  30.720  18.348  1.00  0.00    -0.369 OA
HETATM    4  C8  UNL     1      22.667  29.909  18.807  1.00  0.00     0.179 C 
HETATM    5  C12 UNL     1      21.940  29.075  17.742  1.00  0.00     0.194 C 
HETATM    6  C17 UNL     1      21.544  29.913  16.583  1.00  0.00     0.182 C 
ENDROOT
BRANCH   5   7
HETATM    7  O5  UNL     1      20.969  28.336  18.371  1.00  0.00    -0.310 OA
BRANCH   7   8
HETATM    8  C13 UNL     1      20.941  26.990  18.585  1.00  0.00     0.263 C 
HETATM    9  O6  UNL     1      21.354  26.309  17.602  1.00  0.00    -0.265 OA
BRANCH   8  10
HETATM   10  C14 UNL     1      20.478  26.335  19.833  1.00  0.00     0.085 A 
HETATM   11  C15 UNL     1      19.691  27.087  20.834  1.00  0.00     0.015 A 
HETATM   12  C16 UNL     1      18.955  26.187  19.911  1.00  0.00     0.015 A 
ENDBRANCH   8  10
ENDBRANCH   7   8
ENDBRANCH   5   7
BRANCH   4  13
HETATM   13  C9  UNL     1      21.711  30.437  19.824  1.00  0.00     0.213 C 
BRANCH  13  14
HETATM   14  O3  UNL     1      22.228  31.036  20.955  1.00  0.00    -0.319 OA
BRANCH  14  15
HETATM   15  C10 UNL     1      22.450  32.349  21.253  1.00  0.00     0.254 C 
HETATM   16  C11 UNL     1      23.162  32.682  22.541  1.00  0.00     0.126 C 
HETATM   17  O4  UNL     1      22.069  33.246  20.473  1.00  0.00    -0.266 OA
ENDBRANCH  14  15
ENDBRANCH  13  14
ENDBRANCH   4  13
BRANCH   6  18
HETATM   18  O7  UNL     1      20.670  30.932  16.867  1.00  0.00    -0.390 OA
ATOM     19  H7  UNL     1      19.790  30.578  16.905  1.00  0.00     0.210 HD
ENDBRANCH   6  18
BRANCH   1  20
HETATM   20  O1  UNL     1      22.794  31.091  14.879  1.00  0.00    -0.385 OA
HETATM   21  C1  UNL     1      22.175  30.369  13.885  1.00  0.00     0.202 C 
ENDBRANCH   1  20
BRANCH   2  22
HETATM   22  C4  UNL     1      24.863  31.732  16.684  1.00  0.00     0.021 C 
HETATM   23  C5  UNL     1      25.538  32.760  17.182  1.00  0.00    -0.022 C 
HETATM   24  C6  UNL     1      26.845  33.427  17.016  1.00  0.00     0.056 C 
HETATM   25  S1  UNL     1      25.141  33.968  18.440  1.00  0.00    -0.134 SA
HETATM   26  C7  UNL     1      26.558  34.747  17.656  1.00  0.00     0.084 C 
ENDBRANCH   2  22
TORSDOF 9
ENDMDL
MODEL 4
REMARK VINA RESULT: -7.201384880      2.534      4.866
REMARK  9 active torsions:
REMARK  status: ('A' for Active; 'I' for Inactive)
REMARK    1  A    between atoms: O1_2  and  C2_3 
REMARK    2  A    between atoms: C3_4  and  C4_5 
REMARK    3  A    between atoms: C8_11  and  C9_12 
REMARK    4  A    between atoms: C9_12  and  O3_13 
REMARK    5  A    between atoms: O3_13  and  C10_14 
REMARK    6  A    between atoms: C12_17  and  O5_18 
REMARK    7  A    between atoms: O5_18  and  C13_19 
REMARK    8  A    between atoms: C13_19  and  C14_21 
REMARK    9  A    between atoms: C17_24  and  O7_25 
ROOT
HETATM    1  C2  UNL     1      21.156  31.028  20.783  1.00  0.00     0.184 C 
HETATM    2  C3  UNL     1      20.788  31.889  19.607  1.00  0.00     0.177 C 
HETATM    3  O2  UNL     1      20.257  31.171  18.579  1.00  0.00    -0.369 OA
HETATM    4  C8  UNL     1      20.799  29.995  18.221  1.00  0.00     0.179 C 
HETATM    5  C12 UNL     1      21.292  29.112  19.376  1.00  0.00     0.194 C 
HETATM    6  C17 UNL     1      22.103  29.895  20.341  1.00  0.00     0.182 C 
ENDROOT
BRANCH   5   7
HETATM    7  O5  UNL     1      21.843  27.975  18.837  1.00  0.00    -0.310 OA
BRANCH   7   8
HETATM    8  C13 UNL     1      21.235  26.782  18.586  1.00  0.00     0.263 C 
HETATM    9  O6  UNL     1      21.326  26.406  17.381  1.00  0.00    -0.265 OA
BRANCH   8  10
HETATM   10  C14 UNL     1      20.517  25.963  19.593  1.00  0.00     0.085 A 
HETATM   11  C15 UNL     1      19.990  26.578  20.830  1.00  0.00     0.015 A 
HETATM   12  C16 UNL     1      19.034  26.325  19.724  1.00  0.00     0.015 A 
ENDBRANCH   8  10
ENDBRANCH   7   8
ENDBRANCH   5   7
BRANCH   4  13
HETATM   13  C9  UNL     1      21.753  29.965  17.073  1.00  0.00     0.213 C 
BRANCH  13  14
HETATM   14  O3  UNL     1      21.245  29.734  15.810  1.00  0.00    -0.319 OA
BRANCH  14  15
HETATM   15  C10 UNL     1      21.860  29.682  14.593  1.00  0.00     0.254 C 
HETATM   16  C11 UNL     1      22.156  28.328  13.996  1.00  0.00     0.126 C 
HETATM   17  O4  UNL     1      22.166  30.734  13.995  1.00  0.00    -0.266 OA
ENDBRANCH  14  15
ENDBRANCH  13  14
ENDBRANCH   4  13
BRANCH   6  18
HETATM   18  O7  UNL     1      23.248  30.451  19.830  1.00  0.00    -0.390 OA
ATOM     19  H7  UNL     1      23.815  30.698  20.550  1.00  0.00     0.210 HD
ENDBRANCH   6  18
BRANCH   1  20
HETATM   20  O1  UNL     1      21.584  31.694  21.872  1.00  0.00    -0.385 OA
HETATM   21  C1  UNL     1      22.692  32.496  21.727  1.00  0.00     0.202 C 
ENDBRANCH   1  20
BRANCH   2  22
HETATM   22  C4  UNL     1      19.692  32.805  20.100  1.00  0.00     0.021 C 
HETATM   23  C5  UNL     1      19.702  34.106  19.837  1.00  0.00    -0.022 C 
HETATM   24  C6  UNL     1      18.886  35.306  20.102  1.00  0.00     0.056 C 
HETATM   25  S1  UNL     1      20.841  35.145  18.930  1.00  0.00    -0.134 SA
HETATM   26  C7  UNL     1      19.885  36.382  19.815  1.00  0.00     0.084 C 
ENDBRANCH   2  22
TORSDOF 9
ENDMDL
MODEL 5
REMARK VINA RESULT: -7.139477189      2.397      4.537
REMARK  9 active torsions:
REMARK  status: ('A' for Active; 'I' for Inactive)
REMARK    1  A    between atoms: O1_2  and  C2_3 
REMARK    2  A    between atoms: C3_4  and  C4_5 
REMARK    3  A    between atoms: C8_11  and  C9_12 
REMARK    4  A    between atoms: C9_12  and  O3_13 
REMARK    5  A    between atoms: O3_13  and  C10_14 
REMARK    6  A    between atoms: C12_17  and  O5_18 
REMARK    7  A    between atoms: O5_18  and  C13_19 
REMARK    8  A    between atoms: C13_19  and  C14_21 
REMARK    9  A    between atoms: C17_24  and  O7_25 
ROOT
HETATM    1  C2  UNL     1      21.852  31.923  19.948  1.00  0.00     0.184 C 
HETATM    2  C3  UNL     1      21.671  32.617  18.627  1.00  0.00     0.177 C 
HETATM    3  O2  UNL     1      20.875  31.917  17.773  1.00  0.00    -0.369 OA
HETATM    4  C8  UNL     1      21.012  30.586  17.653  1.00  0.00     0.179 C 
HETATM    5  C12 UNL     1      21.305  29.829  18.956  1.00  0.00     0.194 C 
HETATM    6  C17 UNL     1      22.382  30.491  19.732  1.00  0.00     0.182 C 
ENDROOT
BRANCH   5   7
HETATM    7  O5  UNL     1      21.449  28.497  18.651  1.00  0.00    -0.310 OA
BRANCH   7   8
HETATM    8  C13 UNL     1      21.723  27.464  19.497  1.00  0.00     0.263 C 
HETATM    9  O6  UNL     1      22.926  27.077  19.455  1.00  0.00    -0.265 OA
BRANCH   8  10
HETATM   10  C14 UNL     1      20.739  26.818  20.400  1.00  0.00     0.085 A 
HETATM   11  C15 UNL     1      19.288  26.915  20.128  1.00  0.00     0.015 A 
HETATM   12  C16 UNL     1      19.980  25.661  19.741  1.00  0.00     0.015 A 
ENDBRANCH   8  10
ENDBRANCH   7   8
ENDBRANCH   5   7
BRANCH   4  13
HETATM   13  C9  UNL     1      21.825  30.049  16.523  1.00  0.00     0.213 C 
BRANCH  13  14
HETATM   14  O3  UNL     1      21.319  30.165  15.243  1.00  0.00    -0.319 OA
BRANCH  14  15
HETATM   15  C10 UNL     1      21.870  29.868  14.031  1.00  0.00     0.254 C 
HETATM   16  C11 UNL     1      22.265  28.438  13.754  1.00  0.00     0.126 C 
HETATM   17  O4  UNL     1      22.039  30.763  13.177  1.00  0.00    -0.266 OA
ENDBRANCH  14  15
ENDBRANCH  13  14
ENDBRANCH   4  13
BRANCH   6  18
HETATM   18  O7  UNL     1      23.599  30.562  19.103  1.00  0.00    -0.390 OA
ATOM     19  H7  UNL     1      24.069  31.319  19.432  1.00  0.00     0.210 HD
ENDBRANCH   6  18
BRANCH   1  20
HETATM   20  O1  UNL     1      22.540  32.618  20.874  1.00  0.00    -0.385 OA
HETATM   21  C1  UNL     1      22.563  32.114  22.154  1.00  0.00     0.202 C 
ENDBRANCH   1  20
BRANCH   2  22
HETATM   22  C4  UNL     1      20.938  33.901  18.940  1.00  0.00     0.021 C 
HETATM   23  C5  UNL     1      20.954  34.932  18.103  1.00  0.00    -0.022 C 
HETATM   24  C6  UNL     1      20.411  36.301  18.006  1.00  0.00     0.056 C 
HETATM   25  S1  UNL     1      21.728  35.181  16.510  1.00  0.00    -0.134 SA
HETATM   26  C7  UNL     1      21.304  36.871  16.950  1.00  0.00     0.084 C 
ENDBRANCH   2  22
TORSDOF 9
ENDMDL
