MODEL 1
REMARK VINA RESULT: -7.920616480      0.000      0.000
REMARK  9 active torsions:
REMARK  status: ('A' for Active; 'I' for Inactive)
REMARK    1  A    between atoms: O1_2  and  C2_3 
REMARK    2  A    between atoms: C2_3  and  C3_5 
REMARK    3  A    between atoms: C3_5  and  C4_6 
REMARK    4  A    between atoms: C7_9  and  O3_10 
REMARK    5  A    between atoms: O3_10  and  C8_11 
REMARK    6  A    between atoms: C9_13  and  C10_14 
REMARK    7  A    between atoms: C12_17  and  O6_18 
REMARK    8  A    between atoms: C14_21  and  O7_22 
REMARK    9  A    between atoms: O7_22  and  C15_23 
ROOT
HETATM    1  C8  UNL     1      21.882  29.304  19.019  1.00  0.00     0.290 C 
HETATM    2  O4  UNL     1      22.794  29.967  18.219  1.00  0.00    -0.343 OA
HETATM    3  C9  UNL     1      22.547  29.823  16.865  1.00  0.00     0.222 C 
HETATM    4  C12 UNL     1      22.309  28.417  16.431  1.00  0.00     0.157 C 
HETATM    5  C13 UNL     1      21.616  27.536  17.411  1.00  0.00     0.072 C 
HETATM    6  C14 UNL     1      22.134  27.813  18.793  1.00  0.00     0.189 C 
ENDROOT
BRANCH   1   7
HETATM    7  O3  UNL     1      21.985  29.681  20.328  1.00  0.00    -0.353 OA
BRANCH   7   8
HETATM    8  C7  UNL     1      21.347  30.889  20.576  1.00  0.00     0.124 C 
HETATM    9  C6  UNL     1      20.058  30.884  19.768  1.00  0.00     0.032 C 
HETATM   10  C5  UNL     1      19.213  32.097  20.176  1.00  0.00     0.007 C 
HETATM   11  C4  UNL     1      19.979  33.319  19.735  1.00  0.00    -0.005 C 
HETATM   12  C18 UNL     1      21.312  33.315  20.453  1.00  0.00     0.007 C 
HETATM   13  C17 UNL     1      22.135  32.088  20.129  1.00  0.00     0.032 C 
BRANCH  11  14
HETATM   14  C3  UNL     1      19.264  34.600  20.107  1.00  0.00     0.115 C 
BRANCH  14  15
HETATM   15  C2  UNL     1      19.100  35.523  18.969  1.00  0.00     0.258 C 
HETATM   16  O2  UNL     1      19.612  35.242  17.867  1.00  0.00    -0.265 OA
BRANCH  15  17
HETATM   17  O1  UNL     1      18.388  36.692  19.108  1.00  0.00    -0.326 OA
HETATM   18  C1  UNL     1      17.384  37.091  18.193  1.00  0.00     0.213 C 
ENDBRANCH  15  17
ENDBRANCH  14  15
ENDBRANCH  11  14
ENDBRANCH   7   8
ENDBRANCH   1   7
BRANCH   6  19
HETATM   19  O7  UNL     1      21.564  27.014  19.786  1.00  0.00    -0.311 OA
BRANCH  19  20
HETATM   20  C15 UNL     1      20.330  26.431  19.558  1.00  0.00     0.255 C 
HETATM   21  C16 UNL     1      19.061  27.111  19.968  1.00  0.00     0.126 C 
HETATM   22  O8  UNL     1      20.297  25.300  18.991  1.00  0.00    -0.266 OA
ENDBRANCH  19  20
ENDBRANCH   6  19
BRANCH   3  23
HETATM   23  C10 UNL     1      21.520  30.787  16.382  1.00  0.00     0.154 C 
HETATM   24  C11 UNL     1      21.821  32.188  16.003  1.00  0.00     0.094 C 
HETATM   25  O5  UNL     1      20.364  30.423  16.286  1.00  0.00    -0.295 OA
ENDBRANCH   3  23
BRANCH   4  26
HETATM   26  O6  UNL     1      21.593  28.358  15.233  1.00  0.00    -0.392 OA
ATOM     27  H6  UNL     1      21.951  27.708  14.640  1.00  0.00     0.210 HD
ENDBRANCH   4  26
TORSDOF 9
ENDMDL
MODEL 2
REMARK VINA RESULT: -7.545988122      1.382      1.657
REMARK  9 active torsions:
REMARK  status: ('A' for Active; 'I' for Inactive)
REMARK    1  A    between atoms: O1_2  and  C2_3 
REMARK    2  A    between atoms: C2_3  and  C3_5 
REMARK    3  A    between atoms: C3_5  and  C4_6 
REMARK    4  A    between atoms: C7_9  and  O3_10 
REMARK    5  A    between atoms: O3_10  and  C8_11 
REMARK    6  A    between atoms: C9_13  and  C10_14 
REMARK    7  A    between atoms: C12_17  and  O6_18 
REMARK    8  A    between atoms: C14_21  and  O7_22 
REMARK    9  A    between atoms: O7_22  and  C15_23 
ROOT
HETATM    1  C8  UNL     1      22.200  30.300  18.439  1.00  0.00     0.290 C 
HETATM    2  O4  UNL     1      23.485  30.696  18.120  1.00  0.00    -0.343 OA
HETATM    3  C9  UNL     1      23.671  30.927  16.769  1.00  0.00     0.222 C 
HETATM    4  C12 UNL     1      23.164  29.841  15.884  1.00  0.00     0.157 C 
HETATM    5  C13 UNL     1      21.944  29.127  16.355  1.00  0.00     0.072 C 
HETATM    6  C14 UNL     1      22.032  28.904  17.838  1.00  0.00     0.189 C 
ENDROOT
BRANCH   1   7
HETATM    7  O3  UNL     1      21.973  30.342  19.786  1.00  0.00    -0.353 OA
BRANCH   7   8
HETATM    8  C7  UNL     1      21.278  31.484  20.162  1.00  0.00     0.124 C 
HETATM    9  C6  UNL     1      19.887  31.378  19.555  1.00  0.00     0.032 C 
HETATM   10  C5  UNL     1      19.012  32.502  20.121  1.00  0.00     0.007 C 
HETATM   11  C4  UNL     1      19.595  33.796  19.608  1.00  0.00    -0.005 C 
HETATM   12  C18 UNL     1      21.015  33.899  20.121  1.00  0.00     0.007 C 
HETATM   13  C17 UNL     1      21.884  32.757  19.641  1.00  0.00     0.032 C 
BRANCH  11  14
HETATM   14  C3  UNL     1      18.836  35.000  20.122  1.00  0.00     0.115 C 
BRANCH  14  15
HETATM   15  C2  UNL     1      18.793  36.113  19.155  1.00  0.00     0.258 C 
HETATM   16  O2  UNL     1      18.954  37.283  19.554  1.00  0.00    -0.265 OA
BRANCH  15  17
HETATM   17  O1  UNL     1      18.579  35.876  17.817  1.00  0.00    -0.326 OA
HETATM   18  C1  UNL     1      19.203  36.630  16.795  1.00  0.00     0.213 C 
ENDBRANCH  15  17
ENDBRANCH  14  15
ENDBRANCH  11  14
ENDBRANCH   7   8
ENDBRANCH   1   7
BRANCH   6  19
HETATM   19  O7  UNL     1      20.944  28.214  18.375  1.00  0.00    -0.311 OA
BRANCH  19  20
HETATM   20  C15 UNL     1      21.156  26.996  18.997  1.00  0.00     0.255 C 
HETATM   21  C16 UNL     1      20.036  26.253  19.657  1.00  0.00     0.126 C 
HETATM   22  O8  UNL     1      22.329  26.519  18.995  1.00  0.00    -0.266 OA
ENDBRANCH  19  20
ENDBRANCH   6  19
BRANCH   3  23
HETATM   23  C10 UNL     1      23.222  32.290  16.371  1.00  0.00     0.154 C 
HETATM   24  C11 UNL     1      24.021  33.518  16.594  1.00  0.00     0.094 C 
HETATM   25  O5  UNL     1      22.140  32.424  15.831  1.00  0.00    -0.295 OA
ENDBRANCH   3  23
BRANCH   4  26
HETATM   26  O6  UNL     1      22.907  30.301  14.591  1.00  0.00    -0.392 OA
ATOM     27  H6  UNL     1      23.630  30.120  14.002  1.00  0.00     0.210 HD
ENDBRANCH   4  26
TORSDOF 9
ENDMDL
MODEL 3
REMARK VINA RESULT: -7.107876152      3.184      4.482
REMARK  9 active torsions:
REMARK  status: ('A' for Active; 'I' for Inactive)
REMARK    1  A    between atoms: O1_2  and  C2_3 
REMARK    2  A    between atoms: C2_3  and  C3_5 
REMARK    3  A    between atoms: C3_5  and  C4_6 
REMARK    4  A    between atoms: C7_9  and  O3_10 
REMARK    5  A    between atoms: O3_10  and  C8_11 
REMARK    6  A    between atoms: C9_13  and  C10_14 
REMARK    7  A    between atoms: C12_17  and  O6_18 
REMARK    8  A    between atoms: C14_21  and  O7_22 
REMARK    9  A    between atoms: O7_22  and  C15_23 
ROOT
HETATM    1  C8  UNL     1      22.748  30.360  17.914  1.00  0.00     0.290 C 
HETATM    2  O4  UNL     1      23.912  30.657  17.231  1.00  0.00    -0.343 OA
HETATM    3  C9  UNL     1      23.692  31.222  15.987  1.00  0.00     0.222 C 
HETATM    4  C12 UNL     1      22.700  30.493  15.148  1.00  0.00     0.157 C 
HETATM    5  C13 UNL     1      21.576  29.842  15.878  1.00  0.00     0.072 C 
HETATM    6  C14 UNL     1      22.092  29.214  17.141  1.00  0.00     0.189 C 
ENDROOT
BRANCH   1   7
HETATM    7  O3  UNL     1      22.988  30.063  19.225  1.00  0.00    -0.353 OA
BRANCH   7   8
HETATM    8  C7  UNL     1      23.049  31.203  20.016  1.00  0.00     0.124 C 
HETATM    9  C6  UNL     1      24.490  31.347  20.479  1.00  0.00     0.032 C 
HETATM   10  C5  UNL     1      24.655  32.705  21.171  1.00  0.00     0.007 C 
HETATM   11  C4  UNL     1      23.817  32.651  22.423  1.00  0.00    -0.005 C 
HETATM   12  C18 UNL     1      22.380  32.420  22.009  1.00  0.00     0.007 C 
HETATM   13  C17 UNL     1      22.200  31.122  21.255  1.00  0.00     0.032 C 
BRANCH  11  14
HETATM   14  C3  UNL     1      23.867  33.953  23.193  1.00  0.00     0.115 C 
BRANCH  14  15
HETATM   15  C2  UNL     1      25.159  34.178  23.867  1.00  0.00     0.258 C 
HETATM   16  O2  UNL     1      25.405  33.593  24.940  1.00  0.00    -0.265 OA
BRANCH  15  17
HETATM   17  O1  UNL     1      26.097  35.026  23.326  1.00  0.00    -0.326 OA
HETATM   18  C1  UNL     1      25.755  36.098  22.466  1.00  0.00     0.213 C 
ENDBRANCH  15  17
ENDBRANCH  14  15
ENDBRANCH  11  14
ENDBRANCH   7   8
ENDBRANCH   1   7
BRANCH   6  19
HETATM   19  O7  UNL     1      21.116  28.551  17.887  1.00  0.00    -0.311 OA
BRANCH  19  20
HETATM   20  C15 UNL     1      21.344  27.246  18.290  1.00  0.00     0.255 C 
HETATM   21  C16 UNL     1      21.459  26.889  19.740  1.00  0.00     0.126 C 
HETATM   22  O8  UNL     1      21.455  26.355  17.399  1.00  0.00    -0.266 OA
ENDBRANCH  19  20
ENDBRANCH   6  19
BRANCH   3  23
HETATM   23  C10 UNL     1      23.447  32.688  16.076  1.00  0.00     0.154 C 
HETATM   24  C11 UNL     1      24.501  33.681  16.390  1.00  0.00     0.094 C 
HETATM   25  O5  UNL     1      22.323  33.113  15.886  1.00  0.00    -0.295 OA
ENDBRANCH   3  23
BRANCH   4  26
HETATM   26  O6  UNL     1      22.142  31.316  14.168  1.00  0.00    -0.392 OA
ATOM     27  H6  UNL     1      21.468  30.869  13.672  1.00  0.00     0.210 HD
ENDBRANCH   4  26
TORSDOF 9
ENDMDL
MODEL 4
REMARK VINA RESULT: -7.069423498      1.122      1.552
REMARK  9 active torsions:
REMARK  status: ('A' for Active; 'I' for Inactive)
REMARK    1  A    between atoms: O1_2  and  C2_3 
REMARK    2  A    between atoms: C2_3  and  C3_5 
REMARK    3  A    between atoms: C3_5  and  C4_6 
REMARK    4  A    between atoms: C7_9  and  O3_10 
REMARK    5  A    between atoms: O3_10  and  C8_11 
REMARK    6  A    between atoms: C9_13  and  C10_14 
REMARK    7  A    between atoms: C12_17  and  O6_18 
REMARK    8  A    between atoms: C14_21  and  O7_22 
REMARK    9  A    between atoms: O7_22  and  C15_23 
ROOT
HETATM    1  C8  UNL     1      21.641  29.815  18.535  1.00  0.00     0.290 C 
HETATM    2  O4  UNL     1      22.665  30.142  17.665  1.00  0.00    -0.343 OA
HETATM    3  C9  UNL     1      22.566  29.514  16.437  1.00  0.00     0.222 C 
HETATM    4  C12 UNL     1      22.319  28.046  16.515  1.00  0.00     0.157 C 
HETATM    5  C13 UNL     1      21.483  27.582  17.656  1.00  0.00     0.072 C 
HETATM    6  C14 UNL     1      21.853  28.345  18.896  1.00  0.00     0.189 C 
ENDROOT
BRANCH   1   7
HETATM    7  O3  UNL     1      21.611  30.643  19.621  1.00  0.00    -0.353 OA
BRANCH   7   8
HETATM    8  C7  UNL     1      20.733  31.704  19.445  1.00  0.00     0.124 C 
HETATM    9  C6  UNL     1      21.560  32.980  19.500  1.00  0.00     0.032 C 
HETATM   10  C5  UNL     1      20.674  34.163  19.093  1.00  0.00     0.007 C 
HETATM   11  C4  UNL     1      19.623  34.299  20.166  1.00  0.00    -0.005 C 
HETATM   12  C18 UNL     1      18.830  33.010  20.203  1.00  0.00     0.007 C 
HETATM   13  C17 UNL     1      19.694  31.812  20.526  1.00  0.00     0.032 C 
BRANCH  11  14
HETATM   14  C3  UNL     1      18.654  35.423  19.869  1.00  0.00     0.115 C 
BRANCH  14  15
HETATM   15  C2  UNL     1      19.037  36.222  18.690  1.00  0.00     0.258 C 
HETATM   16  O2  UNL     1      19.789  37.207  18.831  1.00  0.00    -0.265 OA
BRANCH  15  17
HETATM   17  O1  UNL     1      18.576  35.894  17.437  1.00  0.00    -0.326 OA
HETATM   18  C1  UNL     1      19.163  36.393  16.249  1.00  0.00     0.213 C 
ENDBRANCH  15  17
ENDBRANCH  14  15
ENDBRANCH  11  14
ENDBRANCH   7   8
ENDBRANCH   1   7
BRANCH   6  19
HETATM   19  O7  UNL     1      21.142  27.962  20.034  1.00  0.00    -0.311 OA
BRANCH  19  20
HETATM   20  C15 UNL     1      20.421  26.780  20.015  1.00  0.00     0.255 C 
HETATM   21  C16 UNL     1      18.927  26.782  19.917  1.00  0.00     0.126 C 
HETATM   22  O8  UNL     1      21.058  25.689  20.082  1.00  0.00    -0.266 OA
ENDBRANCH  19  20
ENDBRANCH   6  19
BRANCH   3  23
HETATM   23  C10 UNL     1      21.642  30.233  15.516  1.00  0.00     0.154 C 
HETATM   24  C11 UNL     1      21.995  30.614  14.128  1.00  0.00     0.094 C 
HETATM   25  O5  UNL     1      20.531  30.535  15.908  1.00  0.00    -0.295 OA
ENDBRANCH   3  23
BRANCH   4  26
HETATM   26  O6  UNL     1      21.741  27.553  15.343  1.00  0.00    -0.392 OA
ATOM     27  H6  UNL     1      22.226  26.815  14.994  1.00  0.00     0.210 HD
ENDBRANCH   4  26
TORSDOF 9
ENDMDL
MODEL 5
REMARK VINA RESULT: -6.996705976      2.788      3.966
REMARK  9 active torsions:
REMARK  status: ('A' for Active; 'I' for Inactive)
REMARK    1  A    between atoms: O1_2  and  C2_3 
REMARK    2  A    between atoms: C2_3  and  C3_5 
REMARK    3  A    between atoms: C3_5  and  C4_6 
REMARK    4  A    between atoms: C7_9  and  O3_10 
REMARK    5  A    between atoms: O3_10  and  C8_11 
REMARK    6  A    between atoms: C9_13  and  C10_14 
REMARK    7  A    between atoms: C12_17  and  O6_18 
REMARK    8  A    between atoms: C14_21  and  O7_22 
REMARK    9  A    between atoms: O7_22  and  C15_23 
ROOT
HETATM    1  C8  UNL     1      22.066  29.282  18.959  1.00  0.00     0.290 C 
HETATM    2  O4  UNL     1      22.924  29.976  18.127  1.00  0.00    -0.343 OA
HETATM    3  C9  UNL     1      22.559  29.925  16.793  1.00  0.00     0.222 C 
HETATM    4  C12 UNL     1      22.250  28.556  16.293  1.00  0.00     0.157 C 
HETATM    5  C13 UNL     1      21.620  27.627  17.272  1.00  0.00     0.072 C 
HETATM    6  C14 UNL     1      22.260  27.804  18.619  1.00  0.00     0.189 C 
ENDROOT
BRANCH   1   7
HETATM    7  O3  UNL     1      22.288  29.570  20.276  1.00  0.00    -0.353 OA
BRANCH   7   8
HETATM    8  C7  UNL     1      22.709  30.881  20.459  1.00  0.00     0.124 C 
HETATM    9  C6  UNL     1      24.206  30.835  20.722  1.00  0.00     0.032 C 
HETATM   10  C5  UNL     1      24.755  32.267  20.712  1.00  0.00     0.007 C 
HETATM   11  C4  UNL     1      24.144  32.966  21.900  1.00  0.00    -0.005 C 
HETATM   12  C18 UNL     1      22.641  32.957  21.720  1.00  0.00     0.007 C 
HETATM   13  C17 UNL     1      22.080  31.554  21.648  1.00  0.00     0.032 C 
BRANCH  11  14
HETATM   14  C3  UNL     1      24.583  34.412  21.992  1.00  0.00     0.115 C 
BRANCH  14  15
HETATM   15  C2  UNL     1      24.340  35.007  23.320  1.00  0.00     0.258 C 
HETATM   16  O2  UNL     1      23.883  36.164  23.403  1.00  0.00    -0.265 OA
BRANCH  15  17
HETATM   17  O1  UNL     1      24.612  34.301  24.468  1.00  0.00    -0.326 OA
HETATM   18  C1  UNL     1      25.867  34.353  25.122  1.00  0.00     0.213 C 
ENDBRANCH  15  17
ENDBRANCH  14  15
ENDBRANCH  11  14
ENDBRANCH   7   8
ENDBRANCH   1   7
BRANCH   6  19
HETATM   19  O7  UNL     1      21.756  26.954  19.605  1.00  0.00    -0.311 OA
BRANCH  19  20
HETATM   20  C15 UNL     1      20.457  26.488  19.496  1.00  0.00     0.255 C 
HETATM   21  C16 UNL     1      19.303  27.265  20.050  1.00  0.00     0.126 C 
HETATM   22  O8  UNL     1      20.265  25.380  18.914  1.00  0.00    -0.266 OA
ENDBRANCH  19  20
ENDBRANCH   6  19
BRANCH   3  23
HETATM   23  C10 UNL     1      21.520  30.939  16.461  1.00  0.00     0.154 C 
HETATM   24  C11 UNL     1      21.829  32.321  16.022  1.00  0.00     0.094 C 
HETATM   25  O5  UNL     1      20.346  30.635  16.550  1.00  0.00    -0.295 OA
ENDBRANCH   3  23
BRANCH   4  26
HETATM   26  O6  UNL     1      21.434  28.588  15.160  1.00  0.00    -0.392 OA
ATOM     27  H6  UNL     1      20.744  29.236  15.240  1.00  0.00     0.210 HD
ENDBRANCH   4  26
TORSDOF 9
ENDMDL
