MODEL 1
REMARK VINA RESULT: -7.883455715      0.000      0.000
REMARK  8 active torsions:
REMARK  status: ('A' for Active; 'I' for Inactive)
REMARK    1  A    between atoms: C2_2  and  C3_3 
REMARK    2  A    between atoms: C3_3  and  O1_4 
REMARK    3  A    between atoms: O1_4  and  C4_5 
REMARK    4  A    between atoms: C5_7  and  O3_8 
REMARK    5  A    between atoms: O3_8  and  C6_9 
REMARK    6  A    between atoms: C6_9  and  C7_11 
REMARK    7  A    between atoms: C7_11  and  C8_12 
REMARK    8  A    between atoms: C17_23  and  O7_24 
ROOT
HETATM    1  C4  UNL     1      22.045  29.776  17.332  1.00  0.00     0.238 C 
HETATM    2  O2  UNL     1      21.667  28.740  18.169  1.00  0.00    -0.286 OA
HETATM    3  C5  UNL     1      22.175  28.122  19.295  1.00  0.00     0.188 C 
HETATM    4  C10 UNL     1      22.768  28.744  20.277  1.00  0.00     0.049 C 
HETATM    5  C11 UNL     1      23.075  30.185  20.508  1.00  0.00     0.082 C 
HETATM    6  C12 UNL     1      21.862  30.935  21.007  1.00  0.00     0.022 C 
HETATM    7  C13 UNL     1      23.424  30.728  19.184  1.00  0.00     0.174 C 
HETATM    8  O5  UNL     1      24.599  30.985  19.030  1.00  0.00    -0.294 OA
HETATM    9  C14 UNL     1      22.553  30.994  18.048  1.00  0.00     0.186 C 
HETATM   10  O6  UNL     1      21.203  31.271  18.359  1.00  0.00    -0.355 OA
HETATM   11  C15 UNL     1      20.891  30.720  17.093  1.00  0.00     0.192 C 
HETATM   12  C16 UNL     1      21.064  31.731  15.998  1.00  0.00     0.070 C 
HETATM   13  C17 UNL     1      21.929  32.844  16.582  1.00  0.00     0.128 C 
HETATM   14  C18 UNL     1      23.104  32.093  17.213  1.00  0.00     0.058 C 
HETATM   15  C19 UNL     1      24.089  31.688  16.177  1.00  0.00     0.016 C 
ENDROOT
BRANCH   3  16
HETATM   16  O3  UNL     1      22.035  26.744  19.369  1.00  0.00    -0.255 OA
BRANCH  16  17
HETATM   17  C6  UNL     1      20.820  26.108  19.576  1.00  0.00     0.265 C 
HETATM   18  O4  UNL     1      20.392  25.390  18.633  1.00  0.00    -0.265 OA
BRANCH  17  19
HETATM   19  C7  UNL     1      20.051  26.259  20.846  1.00  0.00     0.111 C 
BRANCH  19  20
HETATM   20  C8  UNL     1      18.921  27.232  20.599  1.00  0.00     0.005 C 
HETATM   21  C9  UNL     1      19.187  28.494  21.394  1.00  0.00     0.005 C 
ENDBRANCH  19  20
ENDBRANCH  17  19
ENDBRANCH  16  17
ENDBRANCH   3  16
BRANCH   1  22
HETATM   22  O1  UNL     1      22.782  29.398  16.233  1.00  0.00    -0.346 OA
BRANCH  22  23
HETATM   23  C3  UNL     1      22.244  28.333  15.555  1.00  0.00     0.198 C 
BRANCH  23  24
HETATM   24  C2  UNL     1      22.456  28.588  14.093  1.00  0.00    -0.011 C 
HETATM   25  C1  UNL     1      23.036  27.669  13.342  1.00  0.00     0.009 C 
ENDBRANCH  23  24
ENDBRANCH  22  23
ENDBRANCH   1  22
BRANCH  13  26
HETATM   26  O7  UNL     1      22.333  33.752  15.643  1.00  0.00    -0.395 OA
ATOM     27  H7  UNL     1      22.078  34.641  15.854  1.00  0.00     0.210 HD
ENDBRANCH  13  26
TORSDOF 8
ENDMDL
MODEL 2
REMARK VINA RESULT: -7.725458641      1.708      4.071
REMARK  8 active torsions:
REMARK  status: ('A' for Active; 'I' for Inactive)
REMARK    1  A    between atoms: C2_2  and  C3_3 
REMARK    2  A    between atoms: C3_3  and  O1_4 
REMARK    3  A    between atoms: O1_4  and  C4_5 
REMARK    4  A    between atoms: C5_7  and  O3_8 
REMARK    5  A    between atoms: O3_8  and  C6_9 
REMARK    6  A    between atoms: C6_9  and  C7_11 
REMARK    7  A    between atoms: C7_11  and  C8_12 
REMARK    8  A    between atoms: C17_23  and  O7_24 
ROOT
HETATM    1  C4  UNL     1      22.880  31.214  18.651  1.00  0.00     0.238 C 
HETATM    2  O2  UNL     1      22.616  29.864  18.488  1.00  0.00    -0.286 OA
HETATM    3  C5  UNL     1      21.975  29.072  17.556  1.00  0.00     0.188 C 
HETATM    4  C10 UNL     1      22.038  29.250  16.264  1.00  0.00     0.049 C 
HETATM    5  C11 UNL     1      22.745  30.262  15.427  1.00  0.00     0.082 C 
HETATM    6  C12 UNL     1      24.209  29.920  15.268  1.00  0.00     0.022 C 
HETATM    7  C13 UNL     1      22.659  31.523  16.182  1.00  0.00     0.174 C 
HETATM    8  O5  UNL     1      21.906  32.350  15.713  1.00  0.00    -0.294 OA
HETATM    9  C14 UNL     1      23.353  31.905  17.405  1.00  0.00     0.186 C 
HETATM   10  O6  UNL     1      24.598  31.275  17.628  1.00  0.00    -0.355 OA
HETATM   11  C15 UNL     1      24.330  31.436  19.009  1.00  0.00     0.192 C 
HETATM   12  C16 UNL     1      24.704  32.810  19.483  1.00  0.00     0.070 C 
HETATM   13  C17 UNL     1      24.821  33.673  18.230  1.00  0.00     0.128 C 
HETATM   14  C18 UNL     1      23.526  33.379  17.468  1.00  0.00     0.058 C 
HETATM   15  C19 UNL     1      22.389  34.140  18.049  1.00  0.00     0.016 C 
ENDROOT
BRANCH   3  16
HETATM   16  O3  UNL     1      21.218  28.018  18.045  1.00  0.00    -0.255 OA
BRANCH  16  17
HETATM   17  C6  UNL     1      21.573  27.273  19.160  1.00  0.00     0.265 C 
HETATM   18  O4  UNL     1      22.597  26.546  19.050  1.00  0.00    -0.265 OA
BRANCH  17  19
HETATM   19  C7  UNL     1      20.789  27.322  20.430  1.00  0.00     0.111 C 
BRANCH  19  20
HETATM   20  C8  UNL     1      19.900  26.102  20.480  1.00  0.00     0.005 C 
HETATM   21  C9  UNL     1      18.618  26.408  19.733  1.00  0.00     0.005 C 
ENDBRANCH  19  20
ENDBRANCH  17  19
ENDBRANCH  16  17
ENDBRANCH   3  16
BRANCH   1  22
HETATM   22  O1  UNL     1      21.942  31.908  19.380  1.00  0.00    -0.346 OA
BRANCH  22  23
HETATM   23  C3  UNL     1      21.529  31.245  20.509  1.00  0.00     0.198 C 
BRANCH  23  24
HETATM   24  C2  UNL     1      20.035  31.142  20.437  1.00  0.00    -0.011 C 
HETATM   25  C1  UNL     1      19.313  32.212  20.160  1.00  0.00     0.009 C 
ENDBRANCH  23  24
ENDBRANCH  22  23
ENDBRANCH   1  22
BRANCH  13  26
HETATM   26  O7  UNL     1      24.971  35.002  18.512  1.00  0.00    -0.395 OA
ATOM     27  H7  UNL     1      25.869  35.238  18.712  1.00  0.00     0.210 HD
ENDBRANCH  13  26
TORSDOF 8
ENDMDL
MODEL 3
REMARK VINA RESULT: -7.588496322      1.679      4.311
REMARK  8 active torsions:
REMARK  status: ('A' for Active; 'I' for Inactive)
REMARK    1  A    between atoms: C2_2  and  C3_3 
REMARK    2  A    between atoms: C3_3  and  O1_4 
REMARK    3  A    between atoms: O1_4  and  C4_5 
REMARK    4  A    between atoms: C5_7  and  O3_8 
REMARK    5  A    between atoms: O3_8  and  C6_9 
REMARK    6  A    between atoms: C6_9  and  C7_11 
REMARK    7  A    between atoms: C7_11  and  C8_12 
REMARK    8  A    between atoms: C17_23  and  O7_24 
ROOT
HETATM    1  C4  UNL     1      22.958  31.125  18.679  1.00  0.00     0.238 C 
HETATM    2  O2  UNL     1      22.722  29.795  18.375  1.00  0.00    -0.286 OA
HETATM    3  C5  UNL     1      21.918  29.093  17.499  1.00  0.00     0.188 C 
HETATM    4  C10 UNL     1      21.672  29.452  16.269  1.00  0.00     0.049 C 
HETATM    5  C11 UNL     1      22.122  30.622  15.459  1.00  0.00     0.082 C 
HETATM    6  C12 UNL     1      23.522  30.419  14.928  1.00  0.00     0.022 C 
HETATM    7  C13 UNL     1      22.159  31.755  16.398  1.00  0.00     0.174 C 
HETATM    8  O5  UNL     1      21.283  32.579  16.241  1.00  0.00    -0.294 OA
HETATM    9  C14 UNL     1      23.100  32.017  17.479  1.00  0.00     0.186 C 
HETATM   10  O6  UNL     1      24.388  31.459  17.321  1.00  0.00    -0.355 OA
HETATM   11  C15 UNL     1      24.441  31.406  18.735  1.00  0.00     0.192 C 
HETATM   12  C16 UNL     1      24.855  32.725  19.318  1.00  0.00     0.070 C 
HETATM   13  C17 UNL     1      24.642  33.760  18.217  1.00  0.00     0.128 C 
HETATM   14  C18 UNL     1      23.219  33.477  17.727  1.00  0.00     0.058 C 
HETATM   15  C19 UNL     1      22.215  34.060  18.655  1.00  0.00     0.016 C 
ENDROOT
BRANCH   3  16
HETATM   16  O3  UNL     1      21.341  27.926  17.978  1.00  0.00    -0.255 OA
BRANCH  16  17
HETATM   17  C6  UNL     1      21.734  27.303  19.154  1.00  0.00     0.265 C 
HETATM   18  O4  UNL     1      22.847  26.711  19.133  1.00  0.00    -0.265 OA
BRANCH  17  19
HETATM   19  C7  UNL     1      20.892  27.328  20.385  1.00  0.00     0.111 C 
BRANCH  19  20
HETATM   20  C8  UNL     1      20.075  26.057  20.421  1.00  0.00     0.005 C 
HETATM   21  C9  UNL     1      18.728  26.330  19.782  1.00  0.00     0.005 C 
ENDBRANCH  19  20
ENDBRANCH  17  19
ENDBRANCH  16  17
ENDBRANCH   3  16
BRANCH   1  22
HETATM   22  O1  UNL     1      22.186  31.637  19.696  1.00  0.00    -0.346 OA
BRANCH  22  23
HETATM   23  C3  UNL     1      22.147  30.835  20.809  1.00  0.00     0.198 C 
BRANCH  23  24
HETATM   24  C2  UNL     1      21.956  31.733  21.994  1.00  0.00    -0.011 C 
HETATM   25  C1  UNL     1      22.954  32.490  22.414  1.00  0.00     0.009 C 
ENDBRANCH  23  24
ENDBRANCH  22  23
ENDBRANCH   1  22
BRANCH  13  26
HETATM   26  O7  UNL     1      24.796  35.045  18.658  1.00  0.00    -0.395 OA
ATOM     27  H7  UNL     1      24.031  35.373  19.115  1.00  0.00     0.210 HD
ENDBRANCH  13  26
TORSDOF 8
ENDMDL
MODEL 4
REMARK VINA RESULT: -7.577511703      0.983      1.040
REMARK  8 active torsions:
REMARK  status: ('A' for Active; 'I' for Inactive)
REMARK    1  A    between atoms: C2_2  and  C3_3 
REMARK    2  A    between atoms: C3_3  and  O1_4 
REMARK    3  A    between atoms: O1_4  and  C4_5 
REMARK    4  A    between atoms: C5_7  and  O3_8 
REMARK    5  A    between atoms: O3_8  and  C6_9 
REMARK    6  A    between atoms: C6_9  and  C7_11 
REMARK    7  A    between atoms: C7_11  and  C8_12 
REMARK    8  A    between atoms: C17_23  and  O7_24 
ROOT
HETATM    1  C4  UNL     1      22.596  30.467  17.370  1.00  0.00     0.238 C 
HETATM    2  O2  UNL     1      22.191  29.347  18.078  1.00  0.00    -0.286 OA
HETATM    3  C5  UNL     1      22.610  28.666  19.204  1.00  0.00     0.188 C 
HETATM    4  C10 UNL     1      23.055  29.234  20.291  1.00  0.00     0.049 C 
HETATM    5  C11 UNL     1      23.248  30.665  20.664  1.00  0.00     0.082 C 
HETATM    6  C12 UNL     1      21.945  31.309  21.079  1.00  0.00     0.022 C 
HETATM    7  C13 UNL     1      23.706  31.332  19.434  1.00  0.00     0.174 C 
HETATM    8  O5  UNL     1      24.873  31.661  19.433  1.00  0.00    -0.294 OA
HETATM    9  C14 UNL     1      22.949  31.646  18.230  1.00  0.00     0.186 C 
HETATM   10  O6  UNL     1      21.559  31.827  18.407  1.00  0.00    -0.355 OA
HETATM   11  C15 UNL     1      21.420  31.367  17.075  1.00  0.00     0.192 C 
HETATM   12  C16 UNL     1      21.649  32.472  16.086  1.00  0.00     0.070 C 
HETATM   13  C17 UNL     1      22.378  33.577  16.848  1.00  0.00     0.128 C 
HETATM   14  C18 UNL     1      23.521  32.837  17.549  1.00  0.00     0.058 C 
HETATM   15  C19 UNL     1      24.635  32.569  16.603  1.00  0.00     0.016 C 
ENDROOT
BRANCH   3  16
HETATM   16  O3  UNL     1      22.546  27.281  19.156  1.00  0.00    -0.255 OA
BRANCH  16  17
HETATM   17  C6  UNL     1      21.411  26.579  18.778  1.00  0.00     0.265 C 
HETATM   18  O4  UNL     1      21.228  26.429  17.540  1.00  0.00    -0.265 OA
BRANCH  17  19
HETATM   19  C7  UNL     1      20.449  26.028  19.777  1.00  0.00     0.111 C 
BRANCH  19  20
HETATM   20  C8  UNL     1      19.227  26.917  19.793  1.00  0.00     0.005 C 
HETATM   21  C9  UNL     1      19.419  27.984  20.851  1.00  0.00     0.005 C 
ENDBRANCH  19  20
ENDBRANCH  17  19
ENDBRANCH  16  17
ENDBRANCH   3  16
BRANCH   1  22
HETATM   22  O1  UNL     1      23.469  30.219  16.336  1.00  0.00    -0.346 OA
BRANCH  22  23
HETATM   23  C3  UNL     1      23.124  29.126  15.581  1.00  0.00     0.198 C 
BRANCH  23  24
HETATM   24  C2  UNL     1      22.778  29.628  14.211  1.00  0.00    -0.011 C 
HETATM   25  C1  UNL     1      21.524  29.606  13.799  1.00  0.00     0.009 C 
ENDBRANCH  23  24
ENDBRANCH  22  23
ENDBRANCH   1  22
BRANCH  13  26
HETATM   26  O7  UNL     1      22.827  34.577  16.032  1.00  0.00    -0.395 OA
ATOM     27  H7  UNL     1      22.837  34.330  15.115  1.00  0.00     0.210 HD
ENDBRANCH  13  26
TORSDOF 8
ENDMDL
MODEL 5
REMARK VINA RESULT: -7.370863246      1.217      1.424
REMARK  8 active torsions:
REMARK  status: ('A' for Active; 'I' for Inactive)
REMARK    1  A    between atoms: C2_2  and  C3_3 
REMARK    2  A    between atoms: C3_3  and  O1_4 
REMARK    3  A    between atoms: O1_4  and  C4_5 
REMARK    4  A    between atoms: C5_7  and  O3_8 
REMARK    5  A    between atoms: O3_8  and  C6_9 
REMARK    6  A    between atoms: C6_9  and  C7_11 
REMARK    7  A    between atoms: C7_11  and  C8_12 
REMARK    8  A    between atoms: C17_23  and  O7_24 
ROOT
HETATM    1  C4  UNL     1      22.161  30.734  17.259  1.00  0.00     0.238 C 
HETATM    2  O2  UNL     1      21.224  29.908  17.856  1.00  0.00    -0.286 OA
HETATM    3  C5  UNL     1      21.174  29.082  18.962  1.00  0.00     0.188 C 
HETATM    4  C10 UNL     1      21.720  29.355  20.116  1.00  0.00     0.049 C 
HETATM    5  C11 UNL     1      22.505  30.528  20.599  1.00  0.00     0.082 C 
HETATM    6  C12 UNL     1      21.603  31.687  20.955  1.00  0.00     0.022 C 
HETATM    7  C13 UNL     1      23.334  30.941  19.454  1.00  0.00     0.174 C 
HETATM    8  O5  UNL     1      24.517  30.697  19.564  1.00  0.00    -0.294 OA
HETATM    9  C14 UNL     1      22.926  31.598  18.220  1.00  0.00     0.186 C 
HETATM   10  O6  UNL     1      21.760  32.392  18.303  1.00  0.00    -0.355 OA
HETATM   11  C15 UNL     1      21.559  32.081  16.936  1.00  0.00     0.192 C 
HETATM   12  C16 UNL     1      22.362  32.982  16.045  1.00  0.00     0.070 C 
HETATM   13  C17 UNL     1      23.434  33.609  16.932  1.00  0.00     0.128 C 
HETATM   14  C18 UNL     1      24.040  32.410  17.666  1.00  0.00     0.058 C 
HETATM   15  C19 UNL     1      24.998  31.684  16.792  1.00  0.00     0.016 C 
ENDROOT
BRANCH   3  16
HETATM   16  O3  UNL     1      20.492  27.883  18.817  1.00  0.00    -0.255 OA
BRANCH  16  17
HETATM   17  C6  UNL     1      21.070  26.641  19.040  1.00  0.00     0.265 C 
HETATM   18  O4  UNL     1      22.273  26.509  18.690  1.00  0.00    -0.265 OA
BRANCH  17  19
HETATM   19  C7  UNL     1      20.313  25.514  19.660  1.00  0.00     0.111 C 
BRANCH  19  20
HETATM   20  C8  UNL     1      19.176  26.099  20.465  1.00  0.00     0.005 C 
HETATM   21  C9  UNL     1      19.670  26.376  21.870  1.00  0.00     0.005 C 
ENDBRANCH  19  20
ENDBRANCH  17  19
ENDBRANCH  16  17
ENDBRANCH   3  16
BRANCH   1  22
HETATM   22  O1  UNL     1      22.923  30.139  16.279  1.00  0.00    -0.346 OA
BRANCH  22  23
HETATM   23  C3  UNL     1      22.329  29.035  15.721  1.00  0.00     0.198 C 
BRANCH  23  24
HETATM   24  C2  UNL     1      22.435  29.182  14.233  1.00  0.00    -0.011 C 
HETATM   25  C1  UNL     1      21.986  30.276  13.646  1.00  0.00     0.009 C 
ENDBRANCH  23  24
ENDBRANCH  22  23
ENDBRANCH   1  22
BRANCH  13  26
HETATM   26  O7  UNL     1      24.367  34.312  16.222  1.00  0.00    -0.395 OA
ATOM     27  H7  UNL     1      25.258  34.100  16.472  1.00  0.00     0.210 HD
ENDBRANCH  13  26
TORSDOF 8
ENDMDL
