MODEL 1
REMARK VINA RESULT: -7.798794441      0.000      0.000
REMARK  7 active torsions:
REMARK  status: ('A' for Active; 'I' for Inactive)
REMARK    1  A    between atoms: O1_2  and  C2_3 
REMARK    2  A    between atoms: C3_6  and  N2_7 
REMARK    3  A    between atoms: C5_9  and  C6_10 
REMARK    4  A    between atoms: C6_10  and  C7_11 
REMARK    5  A    between atoms: C7_11  and  N3_13 
REMARK    6  A    between atoms: N3_13  and  C8_15 
REMARK    7  A    between atoms: C20_30  and  N5_31 
ROOT
HETATM    1  N2  UNL     1      21.587  31.694  20.399  1.00  0.00    -0.212 N 
HETATM    2  C4  UNL     1      22.953  32.027  20.691  1.00  0.00     0.146 C 
HETATM    3  C5  UNL     1      23.400  33.307  19.965  1.00  0.00     0.011 C 
HETATM    4  C13 UNL     1      22.473  34.367  20.518  1.00  0.00     0.013 C 
HETATM    5  C14 UNL     1      21.038  34.101  20.159  1.00  0.00     0.009 C 
HETATM    6  C15 UNL     1      20.708  34.046  18.719  1.00  0.00     0.009 C 
HETATM    7  C16 UNL     1      19.978  32.752  18.951  1.00  0.00     0.027 C 
HETATM    8  C17 UNL     1      20.565  32.712  20.345  1.00  0.00     0.106 C 
ENDROOT
BRANCH   1   9
HETATM    9  C3  UNL     1      21.205  30.347  20.161  1.00  0.00     0.683 A 
HETATM   10  N1  UNL     1      21.576  29.697  19.025  1.00  0.00    -0.168 N 
HETATM   11  C2  UNL     1      21.257  28.442  18.734  1.00  0.00     0.192 A 
ATOM     12  H1  UNL     1      22.140  30.210  18.348  1.00  0.00     0.186 HD
HETATM   13  C20 UNL     1      20.488  27.724  19.643  1.00  0.00     0.176 A 
HETATM   14  C18 UNL     1      20.099  28.359  20.801  1.00  0.00     0.060 A 
HETATM   15  N4  UNL     1      20.461  29.617  21.018  1.00  0.00    -0.193 N 
HETATM   16  C19 UNL     1      19.277  27.592  21.772  1.00  0.00     0.071 C 
ATOM     17  H4  UNL     1      20.158  30.060  21.886  1.00  0.00     0.184 HD
BRANCH  11  18
HETATM   18  O1  UNL     1      21.638  27.787  17.576  1.00  0.00    -0.339 OA
HETATM   19  C1  UNL     1      21.889  28.453  16.363  1.00  0.00     0.211 C 
ENDBRANCH  11  18
BRANCH  13  20
HETATM   20  N5  UNL     1      20.102  26.380  19.411  1.00  0.00    -0.109 N 
HETATM   21  O3  UNL     1      19.010  26.093  18.902  1.00  0.00    -0.532 OA
HETATM   22  O4  UNL     1      20.956  25.374  19.758  1.00  0.00    -0.532 OA
ENDBRANCH  13  20
ENDBRANCH   1   9
BRANCH   3  23
HETATM   23  C6  UNL     1      24.794  33.579  20.487  1.00  0.00     0.075 C 
BRANCH  23  24
HETATM   24  C7  UNL     1      25.875  33.168  19.584  1.00  0.00     0.074 C 
HETATM   25  S1  UNL     1      27.385  33.854  19.661  1.00  0.00    -0.066 SA
BRANCH  24  26
HETATM   26  N3  UNL     1      25.687  32.193  18.580  1.00  0.00    -0.380 N 
ATOM     27  H3  UNL     1      25.227  31.328  18.862  1.00  0.00     0.160 HD
BRANCH  26  28
HETATM   28  C8  UNL     1      26.079  32.299  17.201  1.00  0.00     0.086 C 
HETATM   29  C9  UNL     1      25.416  31.174  16.397  1.00  0.00     0.051 C 
HETATM   30  C10 UNL     1      23.931  31.407  16.292  1.00  0.00     0.169 C 
HETATM   31  O2  UNL     1      23.611  32.637  15.768  1.00  0.00    -0.391 OA
HETATM   32  C11 UNL     1      24.087  33.619  16.669  1.00  0.00     0.169 C 
HETATM   33  C12 UNL     1      25.602  33.566  16.524  1.00  0.00     0.051 C 
ENDBRANCH  26  28
ENDBRANCH  24  26
ENDBRANCH  23  24
ENDBRANCH   3  23
TORSDOF 7
ENDMDL
MODEL 2
REMARK VINA RESULT: -7.787199981      2.506      3.268
REMARK  7 active torsions:
REMARK  status: ('A' for Active; 'I' for Inactive)
REMARK    1  A    between atoms: O1_2  and  C2_3 
REMARK    2  A    between atoms: C3_6  and  N2_7 
REMARK    3  A    between atoms: C5_9  and  C6_10 
REMARK    4  A    between atoms: C6_10  and  C7_11 
REMARK    5  A    between atoms: C7_11  and  N3_13 
REMARK    6  A    between atoms: N3_13  and  C8_15 
REMARK    7  A    between atoms: C20_30  and  N5_31 
ROOT
HETATM    1  N2  UNL     1      21.569  31.940  19.596  1.00  0.00    -0.212 N 
HETATM    2  C4  UNL     1      22.726  32.468  18.930  1.00  0.00     0.146 C 
HETATM    3  C5  UNL     1      22.431  33.812  18.243  1.00  0.00     0.011 C 
HETATM    4  C13 UNL     1      22.030  34.714  19.390  1.00  0.00     0.013 C 
HETATM    5  C14 UNL     1      20.770  34.242  20.060  1.00  0.00     0.009 C 
HETATM    6  C15 UNL     1      19.556  34.162  19.220  1.00  0.00     0.009 C 
HETATM    7  C16 UNL     1      19.310  32.770  19.734  1.00  0.00     0.027 C 
HETATM    8  C17 UNL     1      20.689  32.795  20.357  1.00  0.00     0.106 C 
ENDROOT
BRANCH   1   9
HETATM    9  C3  UNL     1      21.261  30.556  19.525  1.00  0.00     0.683 A 
HETATM   10  N1  UNL     1      21.585  29.814  18.431  1.00  0.00    -0.168 N 
HETATM   11  C2  UNL     1      21.330  28.519  18.294  1.00  0.00     0.192 A 
ATOM     12  H1  UNL     1      22.057  30.287  17.660  1.00  0.00     0.186 HD
HETATM   13  C20 UNL     1      20.687  27.855  19.332  1.00  0.00     0.176 A 
HETATM   14  C18 UNL     1      20.349  28.583  20.451  1.00  0.00     0.060 A 
HETATM   15  N4  UNL     1      20.640  29.876  20.511  1.00  0.00    -0.193 N 
HETATM   16  C19 UNL     1      19.661  27.873  21.561  1.00  0.00     0.071 C 
ATOM     17  H4  UNL     1      20.378  30.387  21.354  1.00  0.00     0.184 HD
BRANCH  11  18
HETATM   18  O1  UNL     1      21.661  27.771  17.177  1.00  0.00    -0.339 OA
HETATM   19  C1  UNL     1      21.962  28.345  15.929  1.00  0.00     0.211 C 
ENDBRANCH  11  18
BRANCH  13  20
HETATM   20  N5  UNL     1      20.376  26.474  19.269  1.00  0.00    -0.109 N 
HETATM   21  O3  UNL     1      21.215  25.602  19.536  1.00  0.00    -0.532 OA
HETATM   22  O4  UNL     1      19.118  26.091  18.904  1.00  0.00    -0.532 OA
ENDBRANCH  13  20
ENDBRANCH   1   9
BRANCH   3  23
HETATM   23  C6  UNL     1      23.772  34.281  17.720  1.00  0.00     0.075 C 
BRANCH  23  24
HETATM   24  C7  UNL     1      23.737  35.571  17.021  1.00  0.00     0.074 C 
HETATM   25  S1  UNL     1      24.725  36.830  17.464  1.00  0.00    -0.066 SA
BRANCH  24  26
HETATM   26  N3  UNL     1      22.844  35.827  15.959  1.00  0.00    -0.380 N 
ATOM     27  H3  UNL     1      22.727  35.085  15.269  1.00  0.00     0.160 HD
BRANCH  26  28
HETATM   28  C8  UNL     1      22.081  37.028  15.753  1.00  0.00     0.086 C 
HETATM   29  C9  UNL     1      21.734  37.160  14.265  1.00  0.00     0.051 C 
HETATM   30  C10 UNL     1      20.730  36.111  13.863  1.00  0.00     0.169 C 
HETATM   31  O2  UNL     1      19.593  36.127  14.635  1.00  0.00    -0.391 OA
HETATM   32  C11 UNL     1      19.972  35.802  15.959  1.00  0.00     0.169 C 
HETATM   33  C12 UNL     1      20.736  37.027  16.446  1.00  0.00     0.051 C 
ENDBRANCH  26  28
ENDBRANCH  24  26
ENDBRANCH  23  24
ENDBRANCH   3  23
TORSDOF 7
ENDMDL
MODEL 3
REMARK VINA RESULT: -7.609880578      2.639      3.877
REMARK  7 active torsions:
REMARK  status: ('A' for Active; 'I' for Inactive)
REMARK    1  A    between atoms: O1_2  and  C2_3 
REMARK    2  A    between atoms: C3_6  and  N2_7 
REMARK    3  A    between atoms: C5_9  and  C6_10 
REMARK    4  A    between atoms: C6_10  and  C7_11 
REMARK    5  A    between atoms: C7_11  and  N3_13 
REMARK    6  A    between atoms: N3_13  and  C8_15 
REMARK    7  A    between atoms: C20_30  and  N5_31 
ROOT
HETATM    1  N2  UNL     1      21.337  32.230  19.420  1.00  0.00    -0.212 N 
HETATM    2  C4  UNL     1      20.261  33.154  19.200  1.00  0.00     0.146 C 
HETATM    3  C5  UNL     1      20.322  34.348  20.169  1.00  0.00     0.011 C 
HETATM    4  C13 UNL     1      21.648  35.000  19.842  1.00  0.00     0.013 C 
HETATM    5  C14 UNL     1      22.808  34.092  20.141  1.00  0.00     0.009 C 
HETATM    6  C15 UNL     1      22.961  33.642  21.541  1.00  0.00     0.009 C 
HETATM    7  C16 UNL     1      23.109  32.227  21.054  1.00  0.00     0.027 C 
HETATM    8  C17 UNL     1      22.680  32.693  19.680  1.00  0.00     0.106 C 
ENDROOT
BRANCH   1   9
HETATM    9  C3  UNL     1      21.108  30.829  19.383  1.00  0.00     0.683 A 
HETATM   10  N1  UNL     1      21.492  30.077  18.316  1.00  0.00    -0.168 N 
HETATM   11  C2  UNL     1      21.311  28.767  18.210  1.00  0.00     0.192 A 
ATOM     12  H1  UNL     1      21.952  30.555  17.541  1.00  0.00     0.186 HD
HETATM   13  C20 UNL     1      20.685  28.096  19.255  1.00  0.00     0.176 A 
HETATM   14  C18 UNL     1      20.287  28.834  20.348  1.00  0.00     0.060 A 
HETATM   15  N4  UNL     1      20.505  30.142  20.377  1.00  0.00    -0.193 N 
HETATM   16  C19 UNL     1      19.618  28.118  21.464  1.00  0.00     0.071 C 
ATOM     17  H4  UNL     1      20.200  30.661  21.200  1.00  0.00     0.184 HD
BRANCH  11  18
HETATM   18  O1  UNL     1      21.704  28.009  17.121  1.00  0.00    -0.339 OA
HETATM   19  C1  UNL     1      21.976  28.561  15.857  1.00  0.00     0.211 C 
ENDBRANCH  11  18
BRANCH  13  20
HETATM   20  N5  UNL     1      20.451  26.699  19.225  1.00  0.00    -0.109 N 
HETATM   21  O3  UNL     1      21.337  25.882  19.514  1.00  0.00    -0.532 OA
HETATM   22  O4  UNL     1      19.218  26.238  18.867  1.00  0.00    -0.532 OA
ENDBRANCH  13  20
ENDBRANCH   1   9
BRANCH   3  23
HETATM   23  C6  UNL     1      19.215  35.273  19.711  1.00  0.00     0.075 C 
BRANCH  23  24
HETATM   24  C7  UNL     1      19.665  36.402  18.887  1.00  0.00     0.074 C 
HETATM   25  S1  UNL     1      19.990  37.889  19.550  1.00  0.00    -0.066 SA
BRANCH  24  26
HETATM   26  N3  UNL     1      19.815  36.299  17.488  1.00  0.00    -0.380 N 
ATOM     27  H3  UNL     1      19.015  35.941  16.966  1.00  0.00     0.160 HD
BRANCH  26  28
HETATM   28  C8  UNL     1      20.982  36.649  16.725  1.00  0.00     0.086 C 
HETATM   29  C9  UNL     1      21.912  35.433  16.632  1.00  0.00     0.051 C 
HETATM   30  C10 UNL     1      21.303  34.370  15.755  1.00  0.00     0.169 C 
HETATM   31  O2  UNL     1      20.970  34.827  14.502  1.00  0.00    -0.391 OA
HETATM   32  C11 UNL     1      19.964  35.809  14.662  1.00  0.00     0.169 C 
HETATM   33  C12 UNL     1      20.687  36.998  15.282  1.00  0.00     0.051 C 
ENDBRANCH  26  28
ENDBRANCH  24  26
ENDBRANCH  23  24
ENDBRANCH   3  23
TORSDOF 7
ENDMDL
MODEL 4
REMARK VINA RESULT: -7.520985738      2.234      2.778
REMARK  7 active torsions:
REMARK  status: ('A' for Active; 'I' for Inactive)
REMARK    1  A    between atoms: O1_2  and  C2_3 
REMARK    2  A    between atoms: C3_6  and  N2_7 
REMARK    3  A    between atoms: C5_9  and  C6_10 
REMARK    4  A    between atoms: C6_10  and  C7_11 
REMARK    5  A    between atoms: C7_11  and  N3_13 
REMARK    6  A    between atoms: N3_13  and  C8_15 
REMARK    7  A    between atoms: C20_30  and  N5_31 
ROOT
HETATM    1  N2  UNL     1      21.918  31.541  20.249  1.00  0.00    -0.212 N 
HETATM    2  C4  UNL     1      23.324  31.811  20.362  1.00  0.00     0.146 C 
HETATM    3  C5  UNL     1      23.724  33.095  19.616  1.00  0.00     0.011 C 
HETATM    4  C13 UNL     1      22.926  34.172  20.317  1.00  0.00     0.013 C 
HETATM    5  C14 UNL     1      21.446  33.974  20.147  1.00  0.00     0.009 C 
HETATM    6  C15 UNL     1      20.924  33.978  18.764  1.00  0.00     0.009 C 
HETATM    7  C16 UNL     1      20.176  32.706  19.059  1.00  0.00     0.027 C 
HETATM    8  C17 UNL     1      20.943  32.599  20.359  1.00  0.00     0.106 C 
ENDROOT
BRANCH   1   9
HETATM    9  C3  UNL     1      21.450  30.218  20.029  1.00  0.00     0.683 A 
HETATM   10  N1  UNL     1      21.723  29.554  18.873  1.00  0.00    -0.168 N 
HETATM   11  C2  UNL     1      21.321  28.321  18.597  1.00  0.00     0.192 A 
ATOM     12  H1  UNL     1      22.276  30.040  18.167  1.00  0.00     0.186 HD
HETATM   13  C20 UNL     1      20.564  27.641  19.545  1.00  0.00     0.176 A 
HETATM   14  C18 UNL     1      20.275  28.291  20.725  1.00  0.00     0.060 A 
HETATM   15  N4  UNL     1      20.716  29.525  20.924  1.00  0.00    -0.193 N 
HETATM   16  C19 UNL     1      19.466  27.564  21.738  1.00  0.00     0.071 C 
ATOM     17  H4  UNL     1      20.486  29.979  21.808  1.00  0.00     0.184 HD
BRANCH  11  18
HETATM   18  O1  UNL     1      21.601  27.652  17.418  1.00  0.00    -0.339 OA
HETATM   19  C1  UNL     1      21.952  28.309  16.226  1.00  0.00     0.211 C 
ENDBRANCH  11  18
BRANCH  13  20
HETATM   20  N5  UNL     1      20.093  26.321  19.333  1.00  0.00    -0.109 N 
HETATM   21  O3  UNL     1      18.953  26.096  18.903  1.00  0.00    -0.532 OA
HETATM   22  O4  UNL     1      20.916  25.269  19.608  1.00  0.00    -0.532 OA
ENDBRANCH  13  20
ENDBRANCH   1   9
BRANCH   3  23
HETATM   23  C6  UNL     1      25.186  33.297  19.952  1.00  0.00     0.075 C 
BRANCH  23  24
HETATM   24  C7  UNL     1      26.113  32.978  18.859  1.00  0.00     0.074 C 
HETATM   25  S1  UNL     1      25.571  32.654  17.323  1.00  0.00    -0.066 SA
BRANCH  24  26
HETATM   26  N3  UNL     1      27.508  32.897  19.055  1.00  0.00    -0.380 N 
ATOM     27  H3  UNL     1      27.957  32.018  18.799  1.00  0.00     0.160 HD
BRANCH  26  28
HETATM   28  C8  UNL     1      28.360  33.930  19.580  1.00  0.00     0.086 C 
HETATM   29  C9  UNL     1      29.553  33.287  20.298  1.00  0.00     0.051 C 
HETATM   30  C10 UNL     1      30.476  32.633  19.303  1.00  0.00     0.169 C 
HETATM   31  O2  UNL     1      30.901  33.489  18.315  1.00  0.00    -0.391 OA
HETATM   32  C11 UNL     1      29.762  33.883  17.574  1.00  0.00     0.169 C 
HETATM   33  C12 UNL     1      28.994  34.800  18.517  1.00  0.00     0.051 C 
ENDBRANCH  26  28
ENDBRANCH  24  26
ENDBRANCH  23  24
ENDBRANCH   3  23
TORSDOF 7
ENDMDL
MODEL 5
REMARK VINA RESULT: -7.390312272      2.741      4.952
REMARK  7 active torsions:
REMARK  status: ('A' for Active; 'I' for Inactive)
REMARK    1  A    between atoms: O1_2  and  C2_3 
REMARK    2  A    between atoms: C3_6  and  N2_7 
REMARK    3  A    between atoms: C5_9  and  C6_10 
REMARK    4  A    between atoms: C6_10  and  C7_11 
REMARK    5  A    between atoms: C7_11  and  N3_13 
REMARK    6  A    between atoms: N3_13  and  C8_15 
REMARK    7  A    between atoms: C20_30  and  N5_31 
ROOT
HETATM    1  N2  UNL     1      23.088  32.380  16.861  1.00  0.00    -0.212 N 
HETATM    2  C4  UNL     1      22.129  33.389  16.512  1.00  0.00     0.146 C 
HETATM    3  C5  UNL     1      22.534  34.775  17.044  1.00  0.00     0.011 C 
HETATM    4  C13 UNL     1      23.853  35.045  16.355  1.00  0.00     0.013 C 
HETATM    5  C14 UNL     1      24.912  34.059  16.762  1.00  0.00     0.009 C 
HETATM    6  C15 UNL     1      25.257  34.004  18.198  1.00  0.00     0.009 C 
HETATM    7  C16 UNL     1      25.114  32.507  18.160  1.00  0.00     0.027 C 
HETATM    8  C17 UNL     1      24.507  32.636  16.780  1.00  0.00     0.106 C 
ENDROOT
BRANCH   1   9
HETATM    9  C3  UNL     1      22.663  31.095  17.292  1.00  0.00     0.683 A 
HETATM   10  N1  UNL     1      22.403  30.100  16.401  1.00  0.00    -0.168 N 
HETATM   11  C2  UNL     1      22.003  28.878  16.728  1.00  0.00     0.192 A 
ATOM     12  H1  UNL     1      22.524  30.308  15.410  1.00  0.00     0.186 HD
HETATM   13  C20 UNL     1      21.831  28.574  18.074  1.00  0.00     0.176 A 
HETATM   14  C18 UNL     1      22.089  29.563  18.997  1.00  0.00     0.060 A 
HETATM   15  N4  UNL     1      22.486  30.761  18.587  1.00  0.00    -0.193 N 
HETATM   16  C19 UNL     1      21.905  29.238  20.434  1.00  0.00     0.071 C 
ATOM     17  H4  UNL     1      22.670  31.472  19.295  1.00  0.00     0.184 HD
BRANCH  11  18
HETATM   18  O1  UNL     1      21.740  27.871  15.816  1.00  0.00    -0.339 OA
HETATM   19  C1  UNL     1      22.086  27.955  14.456  1.00  0.00     0.211 C 
ENDBRANCH  11  18
BRANCH  13  20
HETATM   20  N5  UNL     1      21.406  27.294  18.512  1.00  0.00    -0.109 N 
HETATM   21  O3  UNL     1      22.213  26.387  18.758  1.00  0.00    -0.532 OA
HETATM   22  O4  UNL     1      20.073  27.054  18.668  1.00  0.00    -0.532 OA
ENDBRANCH  13  20
ENDBRANCH   1   9
BRANCH   3  23
HETATM   23  C6  UNL     1      21.501  35.723  16.475  1.00  0.00     0.075 C 
BRANCH  23  24
HETATM   24  C7  UNL     1      20.665  36.390  17.481  1.00  0.00     0.074 C 
HETATM   25  S1  UNL     1      20.656  38.042  17.651  1.00  0.00    -0.066 SA
BRANCH  24  26
HETATM   26  N3  UNL     1      19.850  35.669  18.379  1.00  0.00    -0.380 N 
ATOM     27  H3  UNL     1      18.970  35.306  18.010  1.00  0.00     0.160 HD
BRANCH  26  28
HETATM   28  C8  UNL     1      20.135  35.394  19.761  1.00  0.00     0.086 C 
HETATM   29  C9  UNL     1      18.822  35.358  20.553  1.00  0.00     0.051 C 
HETATM   30  C10 UNL     1      18.014  34.142  20.179  1.00  0.00     0.169 C 
HETATM   31  O2  UNL     1      18.709  32.965  20.328  1.00  0.00    -0.391 OA
HETATM   32  C11 UNL     1      19.794  32.993  19.420  1.00  0.00     0.169 C 
HETATM   33  C12 UNL     1      20.747  34.030  20.000  1.00  0.00     0.051 C 
ENDBRANCH  26  28
ENDBRANCH  24  26
ENDBRANCH  23  24
ENDBRANCH   3  23
TORSDOF 7
ENDMDL
