MODEL 1
REMARK VINA RESULT: -7.117826212      0.000      0.000
REMARK  7 active torsions:
REMARK  status: ('A' for Active; 'I' for Inactive)
REMARK    1  A    between atoms: C2_2  and  C3_3 
REMARK    2  A    between atoms: C3_3  and  N1_4 
REMARK    3  A    between atoms: C7_10  and  N2_11 
REMARK       I    between atoms: N2_11  and  C8_13 
REMARK    4  A    between atoms: C8_13  and  C9_15 
REMARK    5  A    between atoms: C9_15  and  N3_16 
REMARK    6  A    between atoms: N5_25  and  C16_26 
REMARK    7  A    between atoms: C16_26  and  C17_27 
ROOT
HETATM    1  N1  UNL     1      21.657  28.186  18.692  1.00  0.00    -0.265 N 
HETATM    2  C4  UNL     1      21.695  29.317  19.397  1.00  0.00     0.266 A 
HETATM    3  O1  UNL     1      21.728  29.239  20.648  1.00  0.00    -0.267 OA
HETATM    4  C5  UNL     1      21.699  30.563  18.720  1.00  0.00     0.091 A 
HETATM    5  C6  UNL     1      21.734  31.814  19.258  1.00  0.00     0.086 A 
HETATM    6 CL1  UNL     1      21.783  32.045  21.048  1.00  0.00    -0.080 Cl
HETATM    7  C7  UNL     1      21.729  32.884  18.427  1.00  0.00     0.101 A 
HETATM    8  S1  UNL     1      21.675  32.081  16.859  1.00  0.00    -0.051 SA
HETATM    9  C15 UNL     1      21.661  30.469  17.364  1.00  0.00     0.100 A 
HETATM   10  N5  UNL     1      21.622  29.279  16.674  1.00  0.00    -0.292 N 
HETATM   11  C19 UNL     1      21.619  28.117  17.353  1.00  0.00     0.332 A 
HETATM   12  O3  UNL     1      21.584  27.033  16.764  1.00  0.00    -0.246 OA
ENDROOT
BRANCH   7  13
HETATM   13  N2  UNL     1      21.758  34.294  18.577  1.00  0.00    -0.318 N 
HETATM   14  C8  UNL     1      20.897  35.310  18.187  1.00  0.00     0.251 C 
HETATM   15  O2  UNL     1      19.847  35.137  17.583  1.00  0.00    -0.271 OA
ATOM     16  H2  UNL     1      22.583  34.631  19.075  1.00  0.00     0.169 HD
BRANCH  14  17
HETATM   17  C9  UNL     1      21.318  36.732  18.554  1.00  0.00     0.375 C 
BRANCH  17  18
HETATM   18  N3  UNL     1      21.371  36.900  19.960  1.00  0.00     0.100 N 
HETATM   19  C10 UNL     1      22.078  38.070  20.316  1.00  0.00     0.303 C 
HETATM   20  C11 UNL     1      21.387  39.112  21.096  1.00  0.00     0.302 C 
HETATM   21  N4  UNL     1      19.964  39.155  21.069  1.00  0.00     0.087 N 
HETATM   22  C12 UNL     1      19.379  39.454  22.364  1.00  0.00     0.310 C 
HETATM   23  C13 UNL     1      19.331  38.041  20.425  1.00  0.00     0.302 C 
HETATM   24  C14 UNL     1      20.157  36.793  20.663  1.00  0.00     0.303 C 
ENDBRANCH  17  18
ENDBRANCH  14  17
ENDBRANCH   7  13
BRANCH  10  25
HETATM   25  C16 UNL     1      21.578  29.362  15.246  1.00  0.00     0.134 C 
BRANCH  25  26
HETATM   26  C17 UNL     1      22.902  29.111  14.600  1.00  0.00     0.016 C 
HETATM   27  C18 UNL     1      22.906  27.980  13.620  1.00  0.00     0.006 C 
ENDBRANCH  25  26
ENDBRANCH  10  25
BRANCH   1  28
HETATM   28  C3  UNL     1      21.652  26.917  19.398  1.00  0.00     0.137 C 
BRANCH  28  29
HETATM   29  C2  UNL     1      20.248  26.401  19.609  1.00  0.00     0.016 C 
HETATM   30  C1  UNL     1      19.982  26.236  21.085  1.00  0.00     0.006 C 
ENDBRANCH  28  29
ENDBRANCH   1  28
TORSDOF 7
ENDMDL
MODEL 2
REMARK VINA RESULT: -7.061320966      1.950      2.879
REMARK  7 active torsions:
REMARK  status: ('A' for Active; 'I' for Inactive)
REMARK    1  A    between atoms: C2_2  and  C3_3 
REMARK    2  A    between atoms: C3_3  and  N1_4 
REMARK    3  A    between atoms: C7_10  and  N2_11 
REMARK       I    between atoms: N2_11  and  C8_13 
REMARK    4  A    between atoms: C8_13  and  C9_15 
REMARK    5  A    between atoms: C9_15  and  N3_16 
REMARK    6  A    between atoms: N5_25  and  C16_26 
REMARK    7  A    between atoms: C16_26  and  C17_27 
ROOT
HETATM    1  N1  UNL     1      21.659  28.248  18.669  1.00  0.00    -0.265 N 
HETATM    2  C4  UNL     1      21.680  29.438  19.273  1.00  0.00     0.266 A 
HETATM    3  O1  UNL     1      21.696  29.469  20.526  1.00  0.00    -0.267 OA
HETATM    4  C5  UNL     1      21.685  30.619  18.490  1.00  0.00     0.091 A 
HETATM    5  C6  UNL     1      21.704  31.913  18.916  1.00  0.00     0.086 A 
HETATM    6 CL1  UNL     1      21.727  32.299  20.680  1.00  0.00    -0.080 Cl
HETATM    7  C7  UNL     1      21.703  32.906  17.994  1.00  0.00     0.101 A 
HETATM    8  S1  UNL     1      21.675  31.968  16.502  1.00  0.00    -0.051 SA
HETATM    9  C15 UNL     1      21.666  30.406  17.146  1.00  0.00     0.100 A 
HETATM   10  N5  UNL     1      21.644  29.161  16.563  1.00  0.00    -0.292 N 
HETATM   11  C19 UNL     1      21.640  28.063  17.340  1.00  0.00     0.332 A 
HETATM   12  O3  UNL     1      21.620  26.931  16.848  1.00  0.00    -0.246 OA
ENDROOT
BRANCH   7  13
HETATM   13  N2  UNL     1      21.720  34.324  18.021  1.00  0.00    -0.318 N 
HETATM   14  C8  UNL     1      20.721  35.287  18.020  1.00  0.00     0.251 C 
HETATM   15  O2  UNL     1      19.523  35.045  17.995  1.00  0.00    -0.271 OA
ATOM     16  H2  UNL     1      22.661  34.717  18.048  1.00  0.00     0.169 HD
BRANCH  14  17
HETATM   17  C9  UNL     1      21.185  36.743  18.051  1.00  0.00     0.375 C 
BRANCH  17  18
HETATM   18  N3  UNL     1      20.780  37.431  16.880  1.00  0.00     0.100 N 
HETATM   19  C10 UNL     1      21.016  38.819  16.987  1.00  0.00     0.303 C 
HETATM   20  C11 UNL     1      21.903  39.471  16.008  1.00  0.00     0.302 C 
HETATM   21  N4  UNL     1      22.846  38.670  15.302  1.00  0.00     0.087 N 
HETATM   22  C12 UNL     1      22.974  39.042  13.904  1.00  0.00     0.310 C 
HETATM   23  C13 UNL     1      22.701  37.255  15.481  1.00  0.00     0.302 C 
HETATM   24  C14 UNL     1      21.233  36.921  15.650  1.00  0.00     0.303 C 
ENDBRANCH  17  18
ENDBRANCH  14  17
ENDBRANCH   7  13
BRANCH  10  25
HETATM   25  C16 UNL     1      21.620  29.118  15.132  1.00  0.00     0.134 C 
BRANCH  25  26
HETATM   26  C17 UNL     1      22.967  28.898  14.526  1.00  0.00     0.016 C 
HETATM   27  C18 UNL     1      23.016  27.796  13.514  1.00  0.00     0.006 C 
ENDBRANCH  25  26
ENDBRANCH  10  25
BRANCH   1  28
HETATM   28  C3  UNL     1      21.653  27.046  19.483  1.00  0.00     0.137 C 
BRANCH  28  29
HETATM   29  C2  UNL     1      20.253  26.515  19.685  1.00  0.00     0.016 C 
HETATM   30  C1  UNL     1      19.956  26.411  21.161  1.00  0.00     0.006 C 
ENDBRANCH  28  29
ENDBRANCH   1  28
TORSDOF 7
ENDMDL
MODEL 3
REMARK VINA RESULT: -7.041742684      1.357      1.876
REMARK  7 active torsions:
REMARK  status: ('A' for Active; 'I' for Inactive)
REMARK    1  A    between atoms: C2_2  and  C3_3 
REMARK    2  A    between atoms: C3_3  and  N1_4 
REMARK    3  A    between atoms: C7_10  and  N2_11 
REMARK       I    between atoms: N2_11  and  C8_13 
REMARK    4  A    between atoms: C8_13  and  C9_15 
REMARK    5  A    between atoms: C9_15  and  N3_16 
REMARK    6  A    between atoms: N5_25  and  C16_26 
REMARK    7  A    between atoms: C16_26  and  C17_27 
ROOT
HETATM    1  N1  UNL     1      21.708  28.182  18.646  1.00  0.00    -0.265 N 
HETATM    2  C4  UNL     1      21.758  29.310  19.358  1.00  0.00     0.266 A 
HETATM    3  O1  UNL     1      21.817  29.224  20.607  1.00  0.00    -0.267 OA
HETATM    4  C5  UNL     1      21.746  30.559  18.688  1.00  0.00     0.091 A 
HETATM    5  C6  UNL     1      21.789  31.807  19.232  1.00  0.00     0.086 A 
HETATM    6 CL1  UNL     1      21.875  32.028  21.022  1.00  0.00    -0.080 Cl
HETATM    7  C7  UNL     1      21.766  32.882  18.407  1.00  0.00     0.101 A 
HETATM    8  S1  UNL     1      21.680  32.088  16.836  1.00  0.00    -0.051 SA
HETATM    9  C15 UNL     1      21.681  30.473  17.332  1.00  0.00     0.100 A 
HETATM   10  N5  UNL     1      21.629  29.287  16.636  1.00  0.00    -0.292 N 
HETATM   11  C19 UNL     1      21.643  28.121  17.308  1.00  0.00     0.332 A 
HETATM   12  O3  UNL     1      21.597  27.040  16.713  1.00  0.00    -0.246 OA
ENDROOT
BRANCH   7  13
HETATM   13  N2  UNL     1      21.795  34.291  18.565  1.00  0.00    -0.318 N 
HETATM   14  C8  UNL     1      21.056  35.177  19.337  1.00  0.00     0.251 C 
HETATM   15  O2  UNL     1      20.157  34.852  20.098  1.00  0.00    -0.271 OA
ATOM     16  H2  UNL     1      22.507  34.748  17.994  1.00  0.00     0.169 HD
BRANCH  14  17
HETATM   17  C9  UNL     1      21.418  36.656  19.201  1.00  0.00     0.375 C 
BRANCH  17  18
HETATM   18  N3  UNL     1      20.608  37.291  18.227  1.00  0.00     0.100 N 
HETATM   19  C10 UNL     1      19.742  36.372  17.594  1.00  0.00     0.303 C 
HETATM   20  C11 UNL     1      18.287  36.590  17.676  1.00  0.00     0.302 C 
HETATM   21  N4  UNL     1      17.776  37.394  18.735  1.00  0.00     0.087 N 
HETATM   22  C12 UNL     1      16.697  38.270  18.314  1.00  0.00     0.310 C 
HETATM   23  C13 UNL     1      18.765  38.079  19.515  1.00  0.00     0.302 C 
HETATM   24  C14 UNL     1      19.929  38.457  18.622  1.00  0.00     0.303 C 
ENDBRANCH  17  18
ENDBRANCH  14  17
ENDBRANCH   7  13
BRANCH  10  25
HETATM   25  C16 UNL     1      21.556  29.378  15.210  1.00  0.00     0.134 C 
BRANCH  25  26
HETATM   26  C17 UNL     1      22.855  29.081  14.533  1.00  0.00     0.016 C 
HETATM   27  C18 UNL     1      22.776  28.008  13.491  1.00  0.00     0.006 C 
ENDBRANCH  25  26
ENDBRANCH  10  25
BRANCH   1  28
HETATM   28  C3  UNL     1      21.719  26.909  19.345  1.00  0.00     0.137 C 
BRANCH  28  29
HETATM   29  C2  UNL     1      20.323  26.364  19.537  1.00  0.00     0.016 C 
HETATM   30  C1  UNL     1      19.988  26.331  21.008  1.00  0.00     0.006 C 
ENDBRANCH  28  29
ENDBRANCH   1  28
TORSDOF 7
ENDMDL
MODEL 4
REMARK VINA RESULT: -7.030436157      2.614      4.384
REMARK  7 active torsions:
REMARK  status: ('A' for Active; 'I' for Inactive)
REMARK    1  A    between atoms: C2_2  and  C3_3 
REMARK    2  A    between atoms: C3_3  and  N1_4 
REMARK    3  A    between atoms: C7_10  and  N2_11 
REMARK       I    between atoms: N2_11  and  C8_13 
REMARK    4  A    between atoms: C8_13  and  C9_15 
REMARK    5  A    between atoms: C9_15  and  N3_16 
REMARK    6  A    between atoms: N5_25  and  C16_26 
REMARK    7  A    between atoms: C16_26  and  C17_27 
ROOT
HETATM    1  N1  UNL     1      22.233  30.164  16.404  1.00  0.00    -0.265 N 
HETATM    2  C4  UNL     1      21.982  31.464  16.238  1.00  0.00     0.266 A 
HETATM    3  O1  UNL     1      22.238  31.983  15.126  1.00  0.00    -0.267 OA
HETATM    4  C5  UNL     1      21.438  32.213  17.312  1.00  0.00     0.091 A 
HETATM    5  C6  UNL     1      21.118  33.536  17.339  1.00  0.00     0.086 A 
HETATM    6 CL1  UNL     1      21.372  34.574  15.883  1.00  0.00    -0.080 Cl
HETATM    7  C7  UNL     1      20.606  34.063  18.477  1.00  0.00     0.101 A 
HETATM    8  S1  UNL     1      20.587  32.640  19.517  1.00  0.00    -0.051 SA
HETATM    9  C15 UNL     1      21.220  31.496  18.447  1.00  0.00     0.100 A 
HETATM   10  N5  UNL     1      21.494  30.154  18.577  1.00  0.00    -0.292 N 
HETATM   11  C19 UNL     1      22.010  29.477  17.534  1.00  0.00     0.332 A 
HETATM   12  O3  UNL     1      22.267  28.273  17.618  1.00  0.00    -0.246 OA
ENDROOT
BRANCH   7  13
HETATM   13  N2  UNL     1      20.159  35.341  18.901  1.00  0.00    -0.318 N 
HETATM   14  C8  UNL     1      19.185  35.759  19.797  1.00  0.00     0.251 C 
HETATM   15  O2  UNL     1      18.471  35.008  20.446  1.00  0.00    -0.271 OA
ATOM     16  H2  UNL     1      20.657  36.112  18.455  1.00  0.00     0.169 HD
BRANCH  14  17
HETATM   17  C9  UNL     1      19.019  37.269  19.958  1.00  0.00     0.375 C 
BRANCH  17  18
HETATM   18  N3  UNL     1      18.582  37.865  18.749  1.00  0.00     0.100 N 
HETATM   19  C10 UNL     1      17.291  37.421  18.388  1.00  0.00     0.303 C 
HETATM   20  C11 UNL     1      16.209  38.411  18.244  1.00  0.00     0.302 C 
HETATM   21  N4  UNL     1      16.341  39.666  18.905  1.00  0.00     0.087 N 
HETATM   22  C12 UNL     1      15.874  40.783  18.102  1.00  0.00     0.310 C 
HETATM   23  C13 UNL     1      17.623  39.915  19.496  1.00  0.00     0.302 C 
HETATM   24  C14 UNL     1      18.697  39.264  18.649  1.00  0.00     0.303 C 
ENDBRANCH  17  18
ENDBRANCH  14  17
ENDBRANCH   7  13
BRANCH  10  25
HETATM   25  C16 UNL     1      21.210  29.557  19.846  1.00  0.00     0.134 C 
BRANCH  25  26
HETATM   26  C17 UNL     1      19.842  28.959  19.923  1.00  0.00     0.016 C 
HETATM   27  C18 UNL     1      19.465  28.456  21.282  1.00  0.00     0.006 C 
ENDBRANCH  25  26
ENDBRANCH  10  25
BRANCH   1  28
HETATM   28  C3  UNL     1      22.791  29.409  15.296  1.00  0.00     0.137 C 
BRANCH  28  29
HETATM   29  C2  UNL     1      21.715  28.917  14.357  1.00  0.00     0.016 C 
HETATM   30  C1  UNL     1      22.294  27.896  13.408  1.00  0.00     0.006 C 
ENDBRANCH  28  29
ENDBRANCH   1  28
TORSDOF 7
ENDMDL
MODEL 5
REMARK VINA RESULT: -7.003996613      2.962      3.884
REMARK  7 active torsions:
REMARK  status: ('A' for Active; 'I' for Inactive)
REMARK    1  A    between atoms: C2_2  and  C3_3 
REMARK    2  A    between atoms: C3_3  and  N1_4 
REMARK    3  A    between atoms: C7_10  and  N2_11 
REMARK       I    between atoms: N2_11  and  C8_13 
REMARK    4  A    between atoms: C8_13  and  C9_15 
REMARK    5  A    between atoms: C9_15  and  N3_16 
REMARK    6  A    between atoms: N5_25  and  C16_26 
REMARK    7  A    between atoms: C16_26  and  C17_27 
ROOT
HETATM    1  N1  UNL     1      21.073  29.368  19.200  1.00  0.00    -0.265 N 
HETATM    2  C4  UNL     1      20.796  30.654  19.420  1.00  0.00     0.266 A 
HETATM    3  O1  UNL     1      20.230  30.965  20.495  1.00  0.00    -0.267 OA
HETATM    4  C5  UNL     1      21.146  31.622  18.445  1.00  0.00     0.091 A 
HETATM    5  C6  UNL     1      20.947  32.969  18.486  1.00  0.00     0.086 A 
HETATM    6 CL1  UNL     1      20.147  33.738  19.910  1.00  0.00    -0.080 Cl
HETATM    7  C7  UNL     1      21.359  33.723  17.438  1.00  0.00     0.101 A 
HETATM    8  S1  UNL     1      22.038  32.481  16.387  1.00  0.00    -0.051 SA
HETATM    9  C15 UNL     1      21.753  31.115  17.339  1.00  0.00     0.100 A 
HETATM   10  N5  UNL     1      22.021  29.778  17.150  1.00  0.00    -0.292 N 
HETATM   11  C19 UNL     1      21.673  28.890  18.099  1.00  0.00     0.332 A 
HETATM   12  O3  UNL     1      21.899  27.685  17.960  1.00  0.00    -0.246 OA
ENDROOT
BRANCH   7  13
HETATM   13  N2  UNL     1      21.343  35.101  17.103  1.00  0.00    -0.318 N 
HETATM   14  C8  UNL     1      20.515  35.875  16.301  1.00  0.00     0.251 C 
HETATM   15  O2  UNL     1      19.551  35.447  15.682  1.00  0.00    -0.271 OA
ATOM     16  H2  UNL     1      22.093  35.634  17.543  1.00  0.00     0.169 HD
BRANCH  14  17
HETATM   17  C9  UNL     1      20.862  37.360  16.206  1.00  0.00     0.375 C 
BRANCH  17  18
HETATM   18  N3  UNL     1      21.076  37.748  14.860  1.00  0.00     0.100 N 
HETATM   19  C10 UNL     1      21.222  39.147  14.741  1.00  0.00     0.303 C 
HETATM   20  C11 UNL     1      22.471  39.691  14.178  1.00  0.00     0.302 C 
HETATM   21  N4  UNL     1      23.643  38.882  14.212  1.00  0.00     0.087 N 
HETATM   22  C12 UNL     1      24.435  38.979  12.999  1.00  0.00     0.310 C 
HETATM   23  C13 UNL     1      23.437  37.524  14.624  1.00  0.00     0.302 C 
HETATM   24  C14 UNL     1      22.076  37.060  14.148  1.00  0.00     0.303 C 
ENDBRANCH  17  18
ENDBRANCH  14  17
ENDBRANCH   7  13
BRANCH  10  25
HETATM   25  C16 UNL     1      22.661  29.416  15.923  1.00  0.00     0.134 C 
BRANCH  25  26
HETATM   26  C17 UNL     1      21.698  29.146  14.813  1.00  0.00     0.016 C 
HETATM   27  C18 UNL     1      22.227  28.241  13.744  1.00  0.00     0.006 C 
ENDBRANCH  25  26
ENDBRANCH  10  25
BRANCH   1  28
HETATM   28  C3  UNL     1      20.708  28.387  20.206  1.00  0.00     0.137 C 
BRANCH  28  29
HETATM   29  C2  UNL     1      19.268  27.952  20.065  1.00  0.00     0.016 C 
HETATM   30  C1  UNL     1      19.204  26.455  19.881  1.00  0.00     0.006 C 
ENDBRANCH  28  29
ENDBRANCH   1  28
TORSDOF 7
ENDMDL
