MODEL 1
REMARK VINA RESULT: -7.299489332      0.000      0.000
REMARK  7 active torsions:
REMARK  status: ('A' for Active; 'I' for Inactive)
REMARK    1  A    between atoms: N2_5  and  C4_6 
REMARK    2  A    between atoms: C4_6  and  C5_7 
REMARK    3  A    between atoms: C6_12  and  S1_13 
REMARK    4  A    between atoms: S1_13  and  C7_14 
REMARK    5  A    between atoms: C7_14  and  C8_15 
REMARK       I    between atoms: C8_15  and  N5_17 
REMARK    6  A    between atoms: N5_17  and  C9_19 
REMARK    7  A    between atoms: N7_25  and  C12_26 
ROOT
HETATM    1  C5  UNL     1      23.243  32.659  20.152  1.00  0.00     0.118 A 
HETATM    2  N3  UNL     1      24.359  31.874  20.062  1.00  0.00    -0.285 N 
ATOM      3  H3  UNL     1      25.070  31.782  20.789  1.00  0.00     0.188 HD
HETATM    4  N4  UNL     1      24.381  31.254  18.899  1.00  0.00    -0.278 N 
ATOM      5  H4  UNL     1      25.101  30.608  18.572  1.00  0.00     0.189 HD
HETATM    6  C6  UNL     1      23.283  31.628  18.223  1.00  0.00     0.163 A 
HETATM    7  N7  UNL     1      22.577  32.503  19.009  1.00  0.00    -0.309 N 
ENDROOT
BRANCH   6   8
HETATM    8  S1  UNL     1      22.900  31.028  16.588  1.00  0.00    -0.083 SA
BRANCH   8   9
HETATM    9  C7  UNL     1      21.386  30.039  16.546  1.00  0.00     0.185 C 
BRANCH   9  10
HETATM   10  C8  UNL     1      21.762  28.665  16.942  1.00  0.00     0.233 C 
HETATM   11  O1  UNL     1      21.729  27.741  16.105  1.00  0.00    -0.272 OA
HETATM   12  N5  UNL     1      22.155  28.399  18.264  1.00  0.00    -0.306 N 
ATOM     13  H5  UNL     1      23.007  28.801  18.656  1.00  0.00     0.171 HD
BRANCH  12  14
HETATM   14  C9  UNL     1      21.379  27.609  18.975  1.00  0.00     0.150 A 
HETATM   15  N6  UNL     1      21.114  26.316  18.791  1.00  0.00    -0.346 N 
HETATM   16  C10 UNL     1      20.312  25.715  19.619  1.00  0.00     0.097 A 
ATOM     17  H6  UNL     1      21.534  25.807  18.013  1.00  0.00     0.167 HD
HETATM   18  C11 UNL     1      19.777  26.446  20.643  1.00  0.00     0.070 A 
HETATM   19  S2  UNL     1      20.457  27.987  20.372  1.00  0.00    -0.064 SA
ENDBRANCH  12  14
ENDBRANCH   9  10
ENDBRANCH   8   9
ENDBRANCH   6   8
BRANCH   7  20
HETATM   20  C12 UNL     1      21.357  33.059  18.537  1.00  0.00     0.093 C 
HETATM   21  C13 UNL     1      20.218  32.205  19.049  1.00  0.00     0.026 C 
HETATM   22  C14 UNL     1      19.408  33.033  20.013  1.00  0.00     0.002 C 
HETATM   23  C15 UNL     1      19.851  34.448  19.863  1.00  0.00     0.002 C 
HETATM   24  C16 UNL     1      20.959  34.408  18.842  1.00  0.00     0.026 C 
ENDBRANCH   7  20
BRANCH   1  25
HETATM   25  C4  UNL     1      22.858  33.499  21.286  1.00  0.00     0.203 C 
BRANCH  25  26
HETATM   26  N2  UNL     1      23.994  34.355  21.624  1.00  0.00    -0.348 N 
HETATM   27  C3  UNL     1      24.133  35.505  20.827  1.00  0.00     0.092 C 
HETATM   28  C2  UNL     1      24.070  36.817  21.559  1.00  0.00     0.316 C 
HETATM   29  N1  UNL     1      23.354  36.718  22.813  1.00  0.00     0.093 N 
HETATM   30  C1  UNL     1      23.442  38.014  23.462  1.00  0.00     0.310 C 
HETATM   31  C19 UNL     1      24.054  35.766  23.655  1.00  0.00     0.338 C 
HETATM   32  C17 UNL     1      24.279  34.436  23.000  1.00  0.00     0.200 C 
HETATM   33  C18 UNL     1      25.773  34.118  23.174  1.00  0.00     0.078 C 
HETATM   34  F1  UNL     1      23.620  33.498  23.774  1.00  0.00    -0.218 F 
ENDBRANCH  25  26
ENDBRANCH   1  25
TORSDOF 7
ENDMDL
MODEL 2
REMARK VINA RESULT: -7.234810408      2.758      4.911
REMARK  7 active torsions:
REMARK  status: ('A' for Active; 'I' for Inactive)
REMARK    1  A    between atoms: N2_5  and  C4_6 
REMARK    2  A    between atoms: C4_6  and  C5_7 
REMARK    3  A    between atoms: C6_12  and  S1_13 
REMARK    4  A    between atoms: S1_13  and  C7_14 
REMARK    5  A    between atoms: C7_14  and  C8_15 
REMARK       I    between atoms: C8_15  and  N5_17 
REMARK    6  A    between atoms: N5_17  and  C9_19 
REMARK    7  A    between atoms: N7_25  and  C12_26 
ROOT
HETATM    1  C5  UNL     1      20.745  32.393  19.609  1.00  0.00     0.118 A 
HETATM    2  N3  UNL     1      19.642  31.912  18.957  1.00  0.00    -0.285 N 
ATOM      3  H3  UNL     1      19.054  32.455  18.324  1.00  0.00     0.188 HD
HETATM    4  N4  UNL     1      19.453  30.645  19.268  1.00  0.00    -0.278 N 
ATOM      5  H4  UNL     1      18.704  30.044  18.923  1.00  0.00     0.189 HD
HETATM    6  C6  UNL     1      20.426  30.290  20.121  1.00  0.00     0.163 A 
HETATM    7  N7  UNL     1      21.230  31.384  20.329  1.00  0.00    -0.309 N 
ENDROOT
BRANCH   6   8
HETATM    8  S1  UNL     1      20.564  28.650  20.807  1.00  0.00    -0.083 SA
BRANCH   8   9
HETATM    9  C7  UNL     1      20.407  27.355  19.553  1.00  0.00     0.185 C 
BRANCH   9  10
HETATM   10  C8  UNL     1      21.642  27.394  18.742  1.00  0.00     0.233 C 
HETATM   11  O1  UNL     1      22.758  27.344  19.297  1.00  0.00    -0.272 OA
HETATM   12  N5  UNL     1      21.560  27.488  17.343  1.00  0.00    -0.306 N 
ATOM     13  H5  UNL     1      21.153  26.738  16.783  1.00  0.00     0.171 HD
BRANCH  12  14
HETATM   14  C9  UNL     1      22.030  28.584  16.786  1.00  0.00     0.150 A 
HETATM   15  N6  UNL     1      22.615  29.629  17.370  1.00  0.00    -0.346 N 
HETATM   16  C10 UNL     1      23.014  30.620  16.628  1.00  0.00     0.097 A 
ATOM     17  H6  UNL     1      22.748  29.651  18.381  1.00  0.00     0.167 HD
HETATM   18  C11 UNL     1      22.810  30.539  15.278  1.00  0.00     0.070 A 
HETATM   19  S2  UNL     1      22.044  29.021  15.127  1.00  0.00    -0.064 SA
ENDBRANCH  12  14
ENDBRANCH   9  10
ENDBRANCH   8   9
ENDBRANCH   6   8
BRANCH   7  20
HETATM   20  C12 UNL     1      22.352  31.288  21.196  1.00  0.00     0.093 C 
HETATM   21  C13 UNL     1      23.572  30.976  20.358  1.00  0.00     0.026 C 
HETATM   22  C14 UNL     1      24.504  32.159  20.429  1.00  0.00     0.002 C 
HETATM   23  C15 UNL     1      24.015  33.044  21.523  1.00  0.00     0.002 C 
HETATM   24  C16 UNL     1      22.765  32.378  22.040  1.00  0.00     0.026 C 
ENDBRANCH   7  20
BRANCH   1  25
HETATM   25  C4  UNL     1      21.283  33.750  19.522  1.00  0.00     0.203 C 
BRANCH  25  26
HETATM   26  N2  UNL     1      20.815  34.346  18.272  1.00  0.00    -0.348 N 
HETATM   27  C3  UNL     1      19.789  35.299  18.412  1.00  0.00     0.092 C 
HETATM   28  C2  UNL     1      20.111  36.680  17.911  1.00  0.00     0.316 C 
HETATM   29  N1  UNL     1      21.534  36.942  17.882  1.00  0.00     0.093 N 
HETATM   30  C1  UNL     1      21.717  38.259  17.299  1.00  0.00     0.310 C 
HETATM   31  C19 UNL     1      22.148  35.983  16.983  1.00  0.00     0.338 C 
HETATM   32  C17 UNL     1      21.820  34.557  17.309  1.00  0.00     0.200 C 
HETATM   33  C18 UNL     1      21.335  33.917  15.998  1.00  0.00     0.078 C 
HETATM   34  F1  UNL     1      23.020  33.931  17.593  1.00  0.00    -0.218 F 
ENDBRANCH  25  26
ENDBRANCH   1  25
TORSDOF 7
ENDMDL
MODEL 3
REMARK VINA RESULT: -7.154468827      1.189      1.347
REMARK  7 active torsions:
REMARK  status: ('A' for Active; 'I' for Inactive)
REMARK    1  A    between atoms: N2_5  and  C4_6 
REMARK    2  A    between atoms: C4_6  and  C5_7 
REMARK    3  A    between atoms: C6_12  and  S1_13 
REMARK    4  A    between atoms: S1_13  and  C7_14 
REMARK    5  A    between atoms: C7_14  and  C8_15 
REMARK       I    between atoms: C8_15  and  N5_17 
REMARK    6  A    between atoms: N5_17  and  C9_19 
REMARK    7  A    between atoms: N7_25  and  C12_26 
ROOT
HETATM    1  C5  UNL     1      23.688  32.367  20.130  1.00  0.00     0.118 A 
HETATM    2  N3  UNL     1      24.738  31.512  19.937  1.00  0.00    -0.285 N 
ATOM      3  H3  UNL     1      25.350  31.161  20.674  1.00  0.00     0.188 HD
HETATM    4  N4  UNL     1      24.840  31.207  18.658  1.00  0.00    -0.278 N 
ATOM      5  H4  UNL     1      25.535  30.590  18.238  1.00  0.00     0.189 HD
HETATM    6  C6  UNL     1      23.862  31.859  18.010  1.00  0.00     0.163 A 
HETATM    7  N7  UNL     1      23.146  32.580  18.933  1.00  0.00    -0.309 N 
ENDROOT
BRANCH   6   8
HETATM    8  S1  UNL     1      23.620  31.738  16.247  1.00  0.00    -0.083 SA
BRANCH   8   9
HETATM    9  C7  UNL     1      23.419  30.030  15.687  1.00  0.00     0.185 C 
BRANCH   9  10
HETATM   10  C8  UNL     1      22.130  29.550  16.229  1.00  0.00     0.233 C 
HETATM   11  O1  UNL     1      21.121  30.281  16.182  1.00  0.00    -0.272 OA
HETATM   12  N5  UNL     1      22.042  28.270  16.801  1.00  0.00    -0.306 N 
ATOM     13  H5  UNL     1      22.179  27.428  16.242  1.00  0.00     0.171 HD
BRANCH  12  14
HETATM   14  C9  UNL     1      21.774  28.204  18.088  1.00  0.00     0.150 A 
HETATM   15  N6  UNL     1      22.021  29.106  19.037  1.00  0.00    -0.346 N 
HETATM   16  C10 UNL     1      21.669  28.842  20.261  1.00  0.00     0.097 A 
ATOM     17  H6  UNL     1      22.477  29.990  18.807  1.00  0.00     0.167 HD
HETATM   18  C11 UNL     1      21.062  27.643  20.513  1.00  0.00     0.070 A 
HETATM   19  S2  UNL     1      21.019  26.935  18.961  1.00  0.00    -0.064 SA
ENDBRANCH  12  14
ENDBRANCH   9  10
ENDBRANCH   8   9
ENDBRANCH   6   8
BRANCH   7  20
HETATM   20  C12 UNL     1      22.039  33.369  18.517  1.00  0.00     0.093 C 
HETATM   21  C13 UNL     1      20.777  32.562  18.729  1.00  0.00     0.026 C 
HETATM   22  C14 UNL     1      19.961  33.241  19.799  1.00  0.00     0.002 C 
HETATM   23  C15 UNL     1      20.554  34.590  20.020  1.00  0.00     0.002 C 
HETATM   24  C16 UNL     1      21.748  34.651  19.101  1.00  0.00     0.026 C 
ENDBRANCH   7  20
BRANCH   1  25
HETATM   25  C4  UNL     1      23.248  32.930  21.407  1.00  0.00     0.203 C 
BRANCH  25  26
HETATM   26  N2  UNL     1      24.337  33.743  21.944  1.00  0.00    -0.348 N 
HETATM   27  C3  UNL     1      24.781  34.779  21.103  1.00  0.00     0.092 C 
HETATM   28  C2  UNL     1      24.659  36.170  21.662  1.00  0.00     0.316 C 
HETATM   29  N1  UNL     1      23.643  36.268  22.688  1.00  0.00     0.093 N 
HETATM   30  C1  UNL     1      23.686  37.623  23.208  1.00  0.00     0.310 C 
HETATM   31  C19 UNL     1      24.014  35.379  23.772  1.00  0.00     0.338 C 
HETATM   32  C17 UNL     1      24.271  33.969  23.333  1.00  0.00     0.200 C 
HETATM   33  C18 UNL     1      25.635  33.576  23.923  1.00  0.00     0.078 C 
HETATM   34  F1  UNL     1      23.352  33.175  23.995  1.00  0.00    -0.218 F 
ENDBRANCH  25  26
ENDBRANCH   1  25
TORSDOF 7
ENDMDL
MODEL 4
REMARK VINA RESULT: -7.116725457      2.953      4.510
REMARK  7 active torsions:
REMARK  status: ('A' for Active; 'I' for Inactive)
REMARK    1  A    between atoms: N2_5  and  C4_6 
REMARK    2  A    between atoms: C4_6  and  C5_7 
REMARK    3  A    between atoms: C6_12  and  S1_13 
REMARK    4  A    between atoms: S1_13  and  C7_14 
REMARK    5  A    between atoms: C7_14  and  C8_15 
REMARK       I    between atoms: C8_15  and  N5_17 
REMARK    6  A    between atoms: N5_17  and  C9_19 
REMARK    7  A    between atoms: N7_25  and  C12_26 
ROOT
HETATM    1  C5  UNL     1      24.240  32.453  19.331  1.00  0.00     0.118 A 
HETATM    2  N3  UNL     1      25.104  31.495  19.785  1.00  0.00    -0.285 N 
ATOM      3  H3  UNL     1      26.120  31.586  19.810  1.00  0.00     0.188 HD
HETATM    4  N4  UNL     1      24.429  30.435  20.187  1.00  0.00    -0.278 N 
ATOM      5  H4  UNL     1      24.825  29.577  20.570  1.00  0.00     0.189 HD
HETATM    6  C6  UNL     1      23.126  30.694  19.998  1.00  0.00     0.163 A 
HETATM    7  N7  UNL     1      23.014  31.953  19.465  1.00  0.00    -0.309 N 
ENDROOT
BRANCH   6   8
HETATM    8  S1  UNL     1      21.838  29.529  20.407  1.00  0.00    -0.083 SA
BRANCH   8   9
HETATM    9  C7  UNL     1      22.102  27.906  19.653  1.00  0.00     0.185 C 
BRANCH   9  10
HETATM   10  C8  UNL     1      21.579  27.985  18.273  1.00  0.00     0.233 C 
HETATM   11  O1  UNL     1      21.431  26.946  17.599  1.00  0.00    -0.272 OA
HETATM   12  N5  UNL     1      21.249  29.232  17.718  1.00  0.00    -0.306 N 
ATOM     13  H5  UNL     1      20.487  29.796  18.095  1.00  0.00     0.171 HD
BRANCH  12  14
HETATM   14  C9  UNL     1      21.964  29.642  16.692  1.00  0.00     0.150 A 
HETATM   15  N6  UNL     1      23.268  29.909  16.640  1.00  0.00    -0.346 N 
HETATM   16  C10 UNL     1      23.784  30.303  15.513  1.00  0.00     0.097 A 
ATOM     17  H6  UNL     1      23.852  29.806  17.470  1.00  0.00     0.167 HD
HETATM   18  C11 UNL     1      22.955  30.425  14.432  1.00  0.00     0.070 A 
HETATM   19  S2  UNL     1      21.449  29.961  15.087  1.00  0.00    -0.064 SA
ENDBRANCH  12  14
ENDBRANCH   9  10
ENDBRANCH   8   9
ENDBRANCH   6   8
BRANCH   7  20
HETATM   20  C12 UNL     1      21.731  32.489  19.166  1.00  0.00     0.093 C 
HETATM   21  C13 UNL     1      21.338  33.429  20.283  1.00  0.00     0.026 C 
HETATM   22  C14 UNL     1      21.278  34.826  19.721  1.00  0.00     0.002 C 
HETATM   23  C15 UNL     1      21.329  34.709  18.236  1.00  0.00     0.002 C 
HETATM   24  C16 UNL     1      21.472  33.233  17.962  1.00  0.00     0.026 C 
ENDBRANCH   7  20
BRANCH   1  25
HETATM   25  C4  UNL     1      24.601  33.770  18.806  1.00  0.00     0.203 C 
BRANCH  25  26
HETATM   26  N2  UNL     1      25.664  33.592  17.820  1.00  0.00    -0.348 N 
HETATM   27  C3  UNL     1      25.258  33.691  16.477  1.00  0.00     0.092 C 
HETATM   28  C2  UNL     1      25.917  34.779  15.675  1.00  0.00     0.316 C 
HETATM   29  N1  UNL     1      26.422  35.852  16.506  1.00  0.00     0.093 N 
HETATM   30  C1  UNL     1      27.111  36.784  15.632  1.00  0.00     0.310 C 
HETATM   31  C19 UNL     1      27.411  35.294  17.407  1.00  0.00     0.338 C 
HETATM   32  C17 UNL     1      26.912  34.123  18.199  1.00  0.00     0.200 C 
HETATM   33  C18 UNL     1      27.954  33.007  18.021  1.00  0.00     0.078 C 
HETATM   34  F1  UNL     1      26.995  34.483  19.532  1.00  0.00    -0.218 F 
ENDBRANCH  25  26
ENDBRANCH   1  25
TORSDOF 7
ENDMDL
MODEL 5
REMARK VINA RESULT: -7.090216814      2.993      3.781
REMARK  7 active torsions:
REMARK  status: ('A' for Active; 'I' for Inactive)
REMARK    1  A    between atoms: N2_5  and  C4_6 
REMARK    2  A    between atoms: C4_6  and  C5_7 
REMARK    3  A    between atoms: C6_12  and  S1_13 
REMARK    4  A    between atoms: S1_13  and  C7_14 
REMARK    5  A    between atoms: C7_14  and  C8_15 
REMARK       I    between atoms: C8_15  and  N5_17 
REMARK    6  A    between atoms: N5_17  and  C9_19 
REMARK    7  A    between atoms: N7_25  and  C12_26 
ROOT
HETATM    1  C5  UNL     1      25.278  32.523  19.125  1.00  0.00     0.118 A 
HETATM    2  N3  UNL     1      25.524  31.606  18.141  1.00  0.00    -0.285 N 
ATOM      3  H3  UNL     1      26.441  31.411  17.739  1.00  0.00     0.188 HD
HETATM    4  N4  UNL     1      24.401  31.011  17.789  1.00  0.00    -0.278 N 
ATOM      5  H4  UNL     1      24.299  30.286  17.078  1.00  0.00     0.189 HD
HETATM    6  C6  UNL     1      23.418  31.533  18.538  1.00  0.00     0.163 A 
HETATM    7  N7  UNL     1      23.970  32.476  19.369  1.00  0.00    -0.309 N 
ENDROOT
BRANCH   6   8
HETATM    8  S1  UNL     1      21.715  31.019  18.399  1.00  0.00    -0.083 SA
BRANCH   8   9
HETATM    9  C7  UNL     1      21.395  30.072  16.891  1.00  0.00     0.185 C 
BRANCH   9  10
HETATM   10  C8  UNL     1      21.727  28.664  17.192  1.00  0.00     0.233 C 
HETATM   11  O1  UNL     1      21.696  27.805  16.287  1.00  0.00    -0.272 OA
HETATM   12  N5  UNL     1      22.075  28.289  18.500  1.00  0.00    -0.306 N 
ATOM     13  H5  UNL     1      22.924  28.638  18.945  1.00  0.00     0.171 HD
BRANCH  12  14
HETATM   14  C9  UNL     1      21.259  27.469  19.128  1.00  0.00     0.150 A 
HETATM   15  N6  UNL     1      21.044  26.173  18.901  1.00  0.00    -0.346 N 
HETATM   16  C10 UNL     1      20.188  25.538  19.646  1.00  0.00     0.097 A 
ATOM     17  H6  UNL     1      21.542  25.688  18.154  1.00  0.00     0.167 HD
HETATM   18  C11 UNL     1      19.548  26.238  20.632  1.00  0.00     0.070 A 
HETATM   19  S2  UNL     1      20.211  27.800  20.446  1.00  0.00    -0.064 SA
ENDBRANCH  12  14
ENDBRANCH   9  10
ENDBRANCH   8   9
ENDBRANCH   6   8
BRANCH   7  20
HETATM   20  C12 UNL     1      23.147  33.190  20.282  1.00  0.00     0.093 C 
HETATM   21  C13 UNL     1      23.155  32.454  21.603  1.00  0.00     0.026 C 
HETATM   22  C14 UNL     1      23.838  33.328  22.623  1.00  0.00     0.002 C 
HETATM   23  C15 UNL     1      23.970  34.687  22.025  1.00  0.00     0.002 C 
HETATM   24  C16 UNL     1      23.403  34.562  20.634  1.00  0.00     0.026 C 
ENDBRANCH   7  20
BRANCH   1  25
HETATM   25  C4  UNL     1      26.264  33.382  19.780  1.00  0.00     0.203 C 
BRANCH  25  26
HETATM   26  N2  UNL     1      26.905  34.202  18.754  1.00  0.00    -0.348 N 
HETATM   27  C3  UNL     1      26.479  35.542  18.706  1.00  0.00     0.092 C 
HETATM   28  C2  UNL     1      27.548  36.575  18.934  1.00  0.00     0.316 C 
HETATM   29  N1  UNL     1      28.672  36.054  19.683  1.00  0.00     0.093 N 
HETATM   30  C1  UNL     1      29.666  37.109  19.756  1.00  0.00     0.310 C 
HETATM   31  C19 UNL     1      29.253  34.965  18.920  1.00  0.00     0.338 C 
HETATM   32  C17 UNL     1      28.264  33.907  18.531  1.00  0.00     0.200 C 
HETATM   33  C18 UNL     1      28.441  33.688  17.020  1.00  0.00     0.078 C 
HETATM   34  F1  UNL     1      28.694  32.731  19.118  1.00  0.00    -0.218 F 
ENDBRANCH  25  26
ENDBRANCH   1  25
TORSDOF 7
ENDMDL
