MODEL 1
REMARK VINA RESULT: -8.877707055      0.000      0.000
REMARK  7 active torsions:
REMARK  status: ('A' for Active; 'I' for Inactive)
REMARK    1  A    between atoms: C2_2  and  O1_3 
REMARK    2  A    between atoms: O1_3  and  C3_4 
REMARK    3  A    between atoms: C3_4  and  C4_5 
REMARK    4  A    between atoms: C4_5  and  C5_7 
REMARK    5  A    between atoms: C5_7  and  O2_8 
REMARK    6  A    between atoms: O2_8  and  N1_9 
REMARK    7  A    between atoms: N1_9  and  O3_11 
ROOT
HETATM    1  C1  UNL     1      19.834  29.980  21.787  1.00  0.00     0.046 C 
HETATM    2  C2  UNL     1      20.340  29.769  20.355  1.00  0.00     0.062 C 
HETATM    3  C6  UNL     1      21.811  30.005  20.359  1.00  0.00     0.043 C 
HETATM    4  C7  UNL     1      22.050  31.096  19.318  1.00  0.00     0.077 C 
HETATM    5  C8  UNL     1      20.774  31.869  19.333  1.00  0.00     0.232 C 
HETATM    6  C9  UNL     1      19.716  30.818  19.431  1.00  0.00     0.112 C 
HETATM    7  O4  UNL     1      20.577  32.613  18.170  1.00  0.00    -0.194 OA
HETATM    8  O5  UNL     1      21.379  33.649  18.089  1.00  0.00    -0.192 OA
HETATM    9  C10 UNL     1      21.111  34.533  19.149  1.00  0.00     0.254 C 
HETATM   10  O6  UNL     1      21.328  33.817  20.319  1.00  0.00    -0.192 OA
HETATM   11  O7  UNL     1      20.643  32.727  20.412  1.00  0.00    -0.194 OA
HETATM   12  C11 UNL     1      19.655  34.871  19.078  1.00  0.00     0.060 C 
HETATM   13  C12 UNL     1      19.250  35.429  17.733  1.00  0.00     0.015 C 
HETATM   14  C13 UNL     1      19.145  36.906  18.032  1.00  0.00    -0.013 C 
HETATM   15  C14 UNL     1      18.340  36.855  19.340  1.00  0.00     0.010 C 
HETATM   16  C15 UNL     1      19.206  35.855  20.119  1.00  0.00    -0.004 C 
HETATM   17  C16 UNL     1      20.401  36.684  20.608  1.00  0.00     0.011 C 
HETATM   18  C17 UNL     1      21.250  36.961  19.410  1.00  0.00     0.014 C 
HETATM   19  C18 UNL     1      20.493  37.533  18.274  1.00  0.00     0.011 C 
HETATM   20  C19 UNL     1      22.025  35.710  19.085  1.00  0.00     0.111 C 
HETATM   21  C20 UNL     1      22.806  35.811  17.804  1.00  0.00     0.038 C 
HETATM   22  C21 UNL     1      23.047  35.582  20.158  1.00  0.00     0.075 C 
HETATM   23  N2  UNL     1      23.827  35.472  21.005  1.00  0.00    -0.196 NA
ENDROOT
BRANCH   2  24
HETATM   24  O1  UNL     1      19.926  28.542  19.908  1.00  0.00    -0.378 OA
BRANCH  24  25
HETATM   25  C3  UNL     1      19.627  27.622  20.880  1.00  0.00     0.208 C 
BRANCH  25  26
HETATM   26  C4  UNL     1      19.043  26.345  20.304  1.00  0.00     0.220 C 
HETATM   27  F1  UNL     1      18.197  26.640  19.253  1.00  0.00    -0.245 F 
BRANCH  26  28
HETATM   28  C5  UNL     1      20.154  25.405  19.849  1.00  0.00     0.242 C 
BRANCH  28  29
HETATM   29  O2  UNL     1      20.568  25.706  18.538  1.00  0.00    -0.257 OA
BRANCH  29  30
HETATM   30  N1  UNL     1      21.664  26.449  18.248  1.00  0.00    -0.174 N 
ATOM     31  H1  UNL     1      21.782  26.799  17.298  1.00  0.00     0.223 HD
BRANCH  30  32
HETATM   32  O3  UNL     1      22.543  26.724  19.110  1.00  0.00    -0.269 OA
ATOM     33  H3  UNL     1      22.679  26.193  19.887  1.00  0.00     0.246 HD
ENDBRANCH  30  32
ENDBRANCH  29  30
ENDBRANCH  28  29
ENDBRANCH  26  28
ENDBRANCH  25  26
ENDBRANCH  24  25
ENDBRANCH   2  24
TORSDOF 7
ENDMDL
MODEL 2
REMARK VINA RESULT: -8.816704206      1.582      2.360
REMARK  7 active torsions:
REMARK  status: ('A' for Active; 'I' for Inactive)
REMARK    1  A    between atoms: C2_2  and  O1_3 
REMARK    2  A    between atoms: O1_3  and  C3_4 
REMARK    3  A    between atoms: C3_4  and  C4_5 
REMARK    4  A    between atoms: C4_5  and  C5_7 
REMARK    5  A    between atoms: C5_7  and  O2_8 
REMARK    6  A    between atoms: O2_8  and  N1_9 
REMARK    7  A    between atoms: N1_9  and  O3_11 
ROOT
HETATM    1  C1  UNL     1      22.018  29.780  20.686  1.00  0.00     0.046 C 
HETATM    2  C2  UNL     1      20.501  29.896  20.495  1.00  0.00     0.062 C 
HETATM    3  C6  UNL     1      20.227  29.867  19.031  1.00  0.00     0.043 C 
HETATM    4  C7  UNL     1      19.451  31.148  18.738  1.00  0.00     0.077 C 
HETATM    5  C8  UNL     1      19.940  32.091  19.786  1.00  0.00     0.232 C 
HETATM    6  C9  UNL     1      20.021  31.251  21.019  1.00  0.00     0.112 C 
HETATM    7  O4  UNL     1      19.065  33.154  20.009  1.00  0.00    -0.194 OA
HETATM    8  O5  UNL     1      19.054  34.019  19.023  1.00  0.00    -0.192 OA
HETATM    9  C10 UNL     1      20.327  34.603  18.898  1.00  0.00     0.254 C 
HETATM   10  O6  UNL     1      21.211  33.562  18.646  1.00  0.00    -0.192 OA
HETATM   11  O7  UNL     1      21.193  32.623  19.532  1.00  0.00    -0.194 OA
HETATM   12  C11 UNL     1      20.671  35.190  20.230  1.00  0.00     0.060 C 
HETATM   13  C12 UNL     1      19.626  36.163  20.727  1.00  0.00     0.015 C 
HETATM   14  C13 UNL     1      20.286  37.492  20.444  1.00  0.00    -0.013 C 
HETATM   15  C14 UNL     1      21.691  37.215  21.001  1.00  0.00     0.010 C 
HETATM   16  C15 UNL     1      21.991  35.904  20.260  1.00  0.00    -0.004 C 
HETATM   17  C16 UNL     1      22.380  36.347  18.843  1.00  0.00     0.011 C 
HETATM   18  C17 UNL     1      21.122  36.800  18.174  1.00  0.00     0.014 C 
HETATM   19  C18 UNL     1      20.358  37.787  18.969  1.00  0.00     0.011 C 
HETATM   20  C19 UNL     1      20.341  35.577  17.768  1.00  0.00     0.111 C 
HETATM   21  C20 UNL     1      18.978  35.899  17.218  1.00  0.00     0.038 C 
HETATM   22  C21 UNL     1      21.092  34.982  16.631  1.00  0.00     0.075 C 
HETATM   23  N2  UNL     1      21.688  34.508  15.760  1.00  0.00    -0.196 NA
ENDROOT
BRANCH   2  24
HETATM   24  O1  UNL     1      19.879  28.932  21.246  1.00  0.00    -0.378 OA
BRANCH  24  25
HETATM   25  C3  UNL     1      19.423  27.839  20.554  1.00  0.00     0.208 C 
BRANCH  25  26
HETATM   26  C4  UNL     1      20.140  26.563  20.958  1.00  0.00     0.220 C 
HETATM   27  F1  UNL     1      19.578  26.044  22.108  1.00  0.00    -0.245 F 
BRANCH  26  28
HETATM   28  C5  UNL     1      20.088  25.540  19.828  1.00  0.00     0.242 C 
BRANCH  28  29
HETATM   29  O2  UNL     1      20.457  26.121  18.601  1.00  0.00    -0.257 OA
BRANCH  29  30
HETATM   30  N1  UNL     1      21.743  26.332  18.227  1.00  0.00    -0.174 N 
ATOM     31  H1  UNL     1      21.992  26.224  17.243  1.00  0.00     0.223 HD
BRANCH  30  32
HETATM   32  O3  UNL     1      22.643  26.656  19.049  1.00  0.00    -0.269 OA
ATOM     33  H3  UNL     1      22.638  27.488  19.509  1.00  0.00     0.246 HD
ENDBRANCH  30  32
ENDBRANCH  29  30
ENDBRANCH  28  29
ENDBRANCH  26  28
ENDBRANCH  25  26
ENDBRANCH  24  25
ENDBRANCH   2  24
TORSDOF 7
ENDMDL
MODEL 3
REMARK VINA RESULT: -8.748509134      1.630      2.175
REMARK  7 active torsions:
REMARK  status: ('A' for Active; 'I' for Inactive)
REMARK    1  A    between atoms: C2_2  and  O1_3 
REMARK    2  A    between atoms: O1_3  and  C3_4 
REMARK    3  A    between atoms: C3_4  and  C4_5 
REMARK    4  A    between atoms: C4_5  and  C5_7 
REMARK    5  A    between atoms: C5_7  and  O2_8 
REMARK    6  A    between atoms: O2_8  and  N1_9 
REMARK    7  A    between atoms: N1_9  and  O3_11 
ROOT
HETATM    1  C1  UNL     1      21.987  29.449  20.266  1.00  0.00     0.046 C 
HETATM    2  C2  UNL     1      20.693  29.667  19.473  1.00  0.00     0.062 C 
HETATM    3  C6  UNL     1      21.062  29.793  18.035  1.00  0.00     0.043 C 
HETATM    4  C7  UNL     1      20.495  31.139  17.588  1.00  0.00     0.077 C 
HETATM    5  C8  UNL     1      20.507  31.949  18.841  1.00  0.00     0.232 C 
HETATM    6  C9  UNL     1      20.052  30.992  19.894  1.00  0.00     0.112 C 
HETATM    7  O4  UNL     1      19.631  33.033  18.794  1.00  0.00    -0.194 OA
HETATM    8  O5  UNL     1      20.047  33.987  17.995  1.00  0.00    -0.192 OA
HETATM    9  C10 UNL     1      21.261  34.507  18.479  1.00  0.00     0.254 C 
HETATM   10  O6  UNL     1      22.157  33.447  18.507  1.00  0.00    -0.192 OA
HETATM   11  O7  UNL     1      21.757  32.430  19.194  1.00  0.00    -0.194 OA
HETATM   12  C11 UNL     1      21.018  34.945  19.888  1.00  0.00     0.060 C 
HETATM   13  C12 UNL     1      19.871  35.923  20.007  1.00  0.00     0.015 C 
HETATM   14  C13 UNL     1      20.603  37.234  20.175  1.00  0.00    -0.013 C 
HETATM   15  C14 UNL     1      21.640  36.826  21.233  1.00  0.00     0.010 C 
HETATM   16  C15 UNL     1      22.210  35.577  20.545  1.00  0.00    -0.004 C 
HETATM   17  C16 UNL     1      23.165  36.130  19.479  1.00  0.00     0.011 C 
HETATM   18  C17 UNL     1      22.311  36.715  18.400  1.00  0.00     0.014 C 
HETATM   19  C18 UNL     1      21.294  37.664  18.907  1.00  0.00     0.011 C 
HETATM   20  C19 UNL     1      21.760  35.582  17.573  1.00  0.00     0.111 C 
HETATM   21  C20 UNL     1      20.760  36.032  16.543  1.00  0.00     0.038 C 
HETATM   22  C21 UNL     1      22.914  35.057  16.795  1.00  0.00     0.075 C 
HETATM   23  N2  UNL     1      23.816  34.635  16.207  1.00  0.00    -0.196 NA
ENDROOT
BRANCH   2  24
HETATM   24  O1  UNL     1      19.802  28.673  19.784  1.00  0.00    -0.378 OA
BRANCH  24  25
HETATM   25  C3  UNL     1      19.892  28.168  21.056  1.00  0.00     0.208 C 
BRANCH  25  26
HETATM   26  C4  UNL     1      20.140  26.670  21.064  1.00  0.00     0.220 C 
HETATM   27  F1  UNL     1      19.801  26.138  22.292  1.00  0.00    -0.245 F 
BRANCH  26  28
HETATM   28  C5  UNL     1      19.352  25.991  19.949  1.00  0.00     0.242 C 
BRANCH  28  29
HETATM   29  O2  UNL     1      20.213  25.461  18.970  1.00  0.00    -0.257 OA
BRANCH  29  30
HETATM   30  N1  UNL     1      21.305  26.112  18.498  1.00  0.00    -0.174 N 
ATOM     31  H1  UNL     1      22.027  26.401  19.158  1.00  0.00     0.223 HD
BRANCH  30  32
HETATM   32  O3  UNL     1      21.461  26.373  17.275  1.00  0.00    -0.269 OA
ATOM     33  H3  UNL     1      21.329  25.724  16.593  1.00  0.00     0.246 HD
ENDBRANCH  30  32
ENDBRANCH  29  30
ENDBRANCH  28  29
ENDBRANCH  26  28
ENDBRANCH  25  26
ENDBRANCH  24  25
ENDBRANCH   2  24
TORSDOF 7
ENDMDL
MODEL 4
REMARK VINA RESULT: -8.293053122      2.839      4.005
REMARK  7 active torsions:
REMARK  status: ('A' for Active; 'I' for Inactive)
REMARK    1  A    between atoms: C2_2  and  O1_3 
REMARK    2  A    between atoms: O1_3  and  C3_4 
REMARK    3  A    between atoms: C3_4  and  C4_5 
REMARK    4  A    between atoms: C4_5  and  C5_7 
REMARK    5  A    between atoms: C5_7  and  O2_8 
REMARK    6  A    between atoms: O2_8  and  N1_9 
REMARK    7  A    between atoms: N1_9  and  O3_11 
ROOT
HETATM    1  C1  UNL     1      19.470  30.838  18.780  1.00  0.00     0.046 C 
HETATM    2  C2  UNL     1      20.481  30.021  19.594  1.00  0.00     0.062 C 
HETATM    3  C6  UNL     1      20.627  30.681  20.922  1.00  0.00     0.043 C 
HETATM    4  C7  UNL     1      22.118  30.977  21.065  1.00  0.00     0.077 C 
HETATM    5  C8  UNL     1      22.570  31.148  19.653  1.00  0.00     0.232 C 
HETATM    6  C9  UNL     1      21.849  30.071  18.910  1.00  0.00     0.112 C 
HETATM    7  O4  UNL     1      23.945  30.973  19.499  1.00  0.00    -0.194 OA
HETATM    8  O5  UNL     1      24.642  31.964  20.001  1.00  0.00    -0.192 OA
HETATM    9  C10 UNL     1      24.337  33.149  19.309  1.00  0.00     0.254 C 
HETATM   10  O6  UNL     1      22.974  33.358  19.473  1.00  0.00    -0.192 OA
HETATM   11  O7  UNL     1      22.235  32.370  19.094  1.00  0.00    -0.194 OA
HETATM   12  C11 UNL     1      24.592  32.886  17.858  1.00  0.00     0.060 C 
HETATM   13  C12 UNL     1      25.998  32.398  17.592  1.00  0.00     0.015 C 
HETATM   14  C13 UNL     1      26.657  33.643  17.047  1.00  0.00    -0.013 C 
HETATM   15  C14 UNL     1      25.585  34.094  16.044  1.00  0.00     0.010 C 
HETATM   16  C15 UNL     1      24.362  34.075  16.972  1.00  0.00    -0.004 C 
HETATM   17  C16 UNL     1      24.482  35.370  17.789  1.00  0.00     0.011 C 
HETATM   18  C17 UNL     1      25.606  35.165  18.753  1.00  0.00     0.014 C 
HETATM   19  C18 UNL     1      26.852  34.693  18.109  1.00  0.00     0.011 C 
HETATM   20  C19 UNL     1      25.107  34.294  19.876  1.00  0.00     0.111 C 
HETATM   21  C20 UNL     1      26.190  33.888  20.838  1.00  0.00     0.038 C 
HETATM   22  C21 UNL     1      24.182  35.150  20.666  1.00  0.00     0.075 C 
HETATM   23  N2  UNL     1      23.446  35.810  21.267  1.00  0.00    -0.196 NA
ENDROOT
BRANCH   2  24
HETATM   24  O1  UNL     1      20.088  28.708  19.611  1.00  0.00    -0.378 OA
BRANCH  24  25
HETATM   25  C3  UNL     1      19.816  28.183  20.849  1.00  0.00     0.208 C 
BRANCH  25  26
HETATM   26  C4  UNL     1      20.171  26.709  20.939  1.00  0.00     0.220 C 
HETATM   27  F1  UNL     1      19.815  26.209  22.175  1.00  0.00    -0.245 F 
BRANCH  26  28
HETATM   28  C5  UNL     1      19.485  25.925  19.825  1.00  0.00     0.242 C 
BRANCH  28  29
HETATM   29  O2  UNL     1      20.422  25.448  18.890  1.00  0.00    -0.257 OA
BRANCH  29  30
HETATM   30  N1  UNL     1      21.431  26.200  18.387  1.00  0.00    -0.174 N 
ATOM     31  H1  UNL     1      22.286  26.303  18.935  1.00  0.00     0.223 HD
BRANCH  30  32
HETATM   32  O3  UNL     1      21.353  26.778  17.269  1.00  0.00    -0.269 OA
ATOM     33  H3  UNL     1      21.428  27.721  17.175  1.00  0.00     0.246 HD
ENDBRANCH  30  32
ENDBRANCH  29  30
ENDBRANCH  28  29
ENDBRANCH  26  28
ENDBRANCH  25  26
ENDBRANCH  24  25
ENDBRANCH   2  24
TORSDOF 7
ENDMDL
MODEL 5
REMARK VINA RESULT: -8.251390664      1.672      2.129
REMARK  7 active torsions:
REMARK  status: ('A' for Active; 'I' for Inactive)
REMARK    1  A    between atoms: C2_2  and  O1_3 
REMARK    2  A    between atoms: O1_3  and  C3_4 
REMARK    3  A    between atoms: C3_4  and  C4_5 
REMARK    4  A    between atoms: C4_5  and  C5_7 
REMARK    5  A    between atoms: C5_7  and  O2_8 
REMARK    6  A    between atoms: O2_8  and  N1_9 
REMARK    7  A    between atoms: N1_9  and  O3_11 
ROOT
HETATM    1  C1  UNL     1      19.882  30.584  21.257  1.00  0.00     0.046 C 
HETATM    2  C2  UNL     1      20.472  29.832  20.058  1.00  0.00     0.062 C 
HETATM    3  C6  UNL     1      21.943  29.733  20.267  1.00  0.00     0.043 C 
HETATM    4  C7  UNL     1      22.573  30.366  19.028  1.00  0.00     0.077 C 
HETATM    5  C8  UNL     1      21.550  31.361  18.595  1.00  0.00     0.232 C 
HETATM    6  C9  UNL     1      20.250  30.648  18.782  1.00  0.00     0.112 C 
HETATM    7  O4  UNL     1      21.685  31.730  17.256  1.00  0.00    -0.194 OA
HETATM    8  O5  UNL     1      22.733  32.489  17.042  1.00  0.00    -0.192 OA
HETATM    9  C10 UNL     1      22.589  33.696  17.749  1.00  0.00     0.254 C 
HETATM   10  O6  UNL     1      22.482  33.352  19.091  1.00  0.00    -0.192 OA
HETATM   11  O7  UNL     1      21.529  32.521  19.352  1.00  0.00    -0.194 OA
HETATM   12  C11 UNL     1      21.290  34.301  17.321  1.00  0.00     0.060 C 
HETATM   13  C12 UNL     1      21.197  34.485  15.824  1.00  0.00     0.015 C 
HETATM   14  C13 UNL     1      21.449  35.967  15.680  1.00  0.00    -0.013 C 
HETATM   15  C14 UNL     1      20.519  36.503  16.779  1.00  0.00     0.010 C 
HETATM   16  C15 UNL     1      21.001  35.633  17.949  1.00  0.00    -0.004 C 
HETATM   17  C16 UNL     1      22.310  36.295  18.403  1.00  0.00     0.011 C 
HETATM   18  C17 UNL     1      23.329  35.993  17.352  1.00  0.00     0.014 C 
HETATM   19  C18 UNL     1      22.879  36.331  15.984  1.00  0.00     0.011 C 
HETATM   20  C19 UNL     1      23.781  34.567  17.533  1.00  0.00     0.111 C 
HETATM   21  C20 UNL     1      24.699  34.092  16.440  1.00  0.00     0.038 C 
HETATM   22  C21 UNL     1      24.609  34.563  18.769  1.00  0.00     0.075 C 
HETATM   23  N2  UNL     1      25.234  34.557  19.742  1.00  0.00    -0.196 NA
ENDROOT
BRANCH   2  24
HETATM   24  O1  UNL     1      19.803  28.647  19.897  1.00  0.00    -0.378 OA
BRANCH  24  25
HETATM   25  C3  UNL     1      19.526  27.957  21.050  1.00  0.00     0.208 C 
BRANCH  25  26
HETATM   26  C4  UNL     1      20.057  26.535  21.010  1.00  0.00     0.220 C 
HETATM   27  F1  UNL     1      19.810  25.901  22.212  1.00  0.00    -0.245 F 
BRANCH  26  28
HETATM   28  C5  UNL     1      19.426  25.761  19.857  1.00  0.00     0.242 C 
BRANCH  28  29
HETATM   29  O2  UNL     1      20.376  25.475  18.859  1.00  0.00    -0.257 OA
BRANCH  29  30
HETATM   30  N1  UNL     1      21.408  26.298  18.547  1.00  0.00    -0.174 N 
ATOM     31  H1  UNL     1      22.279  26.213  19.071  1.00  0.00     0.223 HD
BRANCH  30  32
HETATM   32  O3  UNL     1      21.331  27.164  17.633  1.00  0.00    -0.269 OA
ATOM     33  H3  UNL     1      21.730  27.041  16.779  1.00  0.00     0.246 HD
ENDBRANCH  30  32
ENDBRANCH  29  30
ENDBRANCH  28  29
ENDBRANCH  26  28
ENDBRANCH  25  26
ENDBRANCH  24  25
ENDBRANCH   2  24
TORSDOF 7
ENDMDL
