MODEL 1
REMARK VINA RESULT: -9.617498547      0.000      0.000
REMARK  15 active torsions:
REMARK  status: ('A' for Active; 'I' for Inactive)
REMARK    1  A    between atoms: N1_2  and  C3_4 
REMARK    2  A    between atoms: C3_4  and  C4_5 
REMARK    3  A    between atoms: C6_7  and  C7_8 
REMARK    4  A    between atoms: C7_8  and  C8_9 
REMARK    5  A    between atoms: C8_9  and  N2_10 
REMARK    6  A    between atoms: C8_9  and  C9_14 
REMARK       I    between atoms: C9_14  and  N3_16 
REMARK    7  A    between atoms: N3_16  and  C10_18 
REMARK    8  A    between atoms: C13_25  and  S2_26 
REMARK    9  A    between atoms: S2_26  and  C14_27 
REMARK   10  A    between atoms: C15_32  and  S3_33 
REMARK   11  A    between atoms: S3_33  and  C16_34 
REMARK   12  A    between atoms: C20_43  and  C21_44 
REMARK   13  A    between atoms: C23_50  and  N11_51 
REMARK   14  A    between atoms: N11_51  and  N12_53 
REMARK   15  A    between atoms: C25_57  and  O5_58 
ROOT
HETATM    1  C10 UNL     1      12.113  30.706  21.126  1.00  0.00     0.383 C 
HETATM    2  N4  UNL     1      10.688  30.815  20.872  1.00  0.00    -0.015 N 
ATOM      3  H41 UNL     1      10.161  30.012  21.216  1.00  0.00     0.283 HD
ATOM      4  H42 UNL     1      10.453  30.717  19.884  1.00  0.00     0.283 HD
HETATM    5  C11 UNL     1      10.245  32.042  21.423  1.00  0.00     0.360 C 
HETATM    6  S1  UNL     1       9.320  33.036  20.181  1.00  0.00    -0.110 SA
HETATM    7  C12 UNL     1       9.219  34.688  20.880  1.00  0.00     0.126 C 
HETATM    8  C13 UNL     1      10.241  34.968  21.923  1.00  0.00     0.029 C 
HETATM    9  C20 UNL     1      11.202  34.151  22.285  1.00  0.00     0.131 C 
HETATM   10  N10 UNL     1      11.409  32.842  21.732  1.00  0.00    -0.269 N 
HETATM   11  C22 UNL     1      12.537  32.081  21.385  1.00  0.00     0.277 C 
HETATM   12  O4  UNL     1      13.704  32.573  21.325  1.00  0.00    -0.269 OA
ENDROOT
BRANCH   1  13
HETATM   13  N3  UNL     1      12.355  29.922  22.342  1.00  0.00    -0.324 N 
HETATM   14  C9  UNL     1      12.969  28.655  22.292  1.00  0.00     0.250 C 
HETATM   15  O1  UNL     1      13.312  28.186  21.182  1.00  0.00    -0.271 OA
ATOM     16  H3  UNL     1      12.071  30.303  23.244  1.00  0.00     0.165 HD
BRANCH  14  17
HETATM   17  C8  UNL     1      13.209  27.882  23.509  1.00  0.00     0.279 C 
BRANCH  17  18
HETATM   18  C7  UNL     1      13.709  28.726  24.658  1.00  0.00     0.083 C 
BRANCH  18  19
HETATM   19  C6  UNL     1      15.076  29.174  24.369  1.00  0.00    -0.027 A 
HETATM   20  C5  UNL     1      15.289  30.533  24.112  1.00  0.00     0.021 A 
HETATM   21  C4  UNL     1      16.563  30.962  23.841  1.00  0.00     0.004 A 
HETATM   22  C25 UNL     1      17.615  30.038  23.831  1.00  0.00     0.075 A 
HETATM   23  C24 UNL     1      17.423  28.713  24.079  1.00  0.00     0.068 A 
HETATM   24  C23 UNL     1      16.122  28.306  24.348  1.00  0.00     0.056 A 
BRANCH  21  25
HETATM   25  C3  UNL     1      16.827  32.389  23.583  1.00  0.00     0.312 C 
BRANCH  25  26
HETATM   26  N1  UNL     1      16.365  33.280  24.608  1.00  0.00     0.084 N 
HETATM   27  C1  UNL     1      17.435  33.260  25.641  1.00  0.00     0.309 C 
HETATM   28  C2  UNL     1      16.318  34.666  24.139  1.00  0.00     0.309 C 
ENDBRANCH  25  26
ENDBRANCH  21  25
BRANCH  22  29
HETATM   29  O5  UNL     1      18.899  30.535  23.546  1.00  0.00    -0.360 OA
ATOM     30  H5  UNL     1      19.629  29.940  23.670  1.00  0.00     0.217 HD
ENDBRANCH  22  29
BRANCH  24  31
HETATM   31  N11 UNL     1      15.929  26.929  24.586  1.00  0.00    -0.307 N 
ATOM     32  H11 UNL     1      15.760  26.587  25.532  1.00  0.00     0.186 HD
BRANCH  31  33
HETATM   33  N12 UNL     1      15.974  26.041  23.512  1.00  0.00    -0.345 N 
ATOM     34 2H12 UNL     1      16.647  26.195  22.761  1.00  0.00     0.176 HD
ATOM     35 1H12 UNL     1      15.330  25.249  23.495  1.00  0.00     0.176 HD
ENDBRANCH  31  33
ENDBRANCH  24  31
ENDBRANCH  18  19
ENDBRANCH  17  18
BRANCH  17  36
HETATM   36  N2  UNL     1      12.072  27.074  23.935  1.00  0.00    -0.066 N 
ATOM     37  H23 UNL     1      11.498  27.558  24.626  1.00  0.00     0.275 HD
ATOM     38  H22 UNL     1      11.373  26.981  23.198  1.00  0.00     0.275 HD
ATOM     39  H21 UNL     1      12.391  26.166  24.274  1.00  0.00     0.275 HD
ENDBRANCH  17  36
ENDBRANCH  14  17
ENDBRANCH   1  13
BRANCH   9  40
HETATM   40  C21 UNL     1      12.132  34.583  23.329  1.00  0.00     0.228 C 
HETATM   41  O2  UNL     1      13.068  35.364  23.066  1.00  0.00    -0.643 OA
HETATM   42  O3  UNL     1      11.996  34.133  24.650  1.00  0.00    -0.643 OA
ENDBRANCH   9  40
BRANCH   8  43
HETATM   43  S2  UNL     1      10.143  36.565  22.801  1.00  0.00    -0.054 SA
BRANCH  43  44
HETATM   44  C14 UNL     1       9.190  36.352  24.291  1.00  0.00     0.167 A 
HETATM   45  N5  UNL     1       9.665  35.788  25.417  1.00  0.00    -0.277 N 
HETATM   46  N6  UNL     1       8.710  35.752  26.338  1.00  0.00    -0.277 N 
ATOM     47  H5  UNL     1      10.615  35.442  25.544  1.00  0.00     0.189 HD
HETATM   48  C15 UNL     1       7.602  36.304  25.789  1.00  0.00     0.170 A 
ATOM     49  H6  UNL     1       8.794  35.378  27.283  1.00  0.00     0.189 HD
HETATM   50  N9  UNL     1       7.910  36.665  24.541  1.00  0.00    -0.310 N 
HETATM   51  C19 UNL     1       7.004  37.310  23.610  1.00  0.00     0.160 C 
BRANCH  48  52
HETATM   52  S3  UNL     1       6.056  36.433  26.666  1.00  0.00    -0.017 SA
BRANCH  52  53
HETATM   53  C16 UNL     1       6.268  36.782  28.397  1.00  0.00     0.143 A 
HETATM   54  N7  UNL     1       6.085  37.904  29.000  1.00  0.00    -0.369 N 
HETATM   55  C17 UNL     1       6.369  37.770  30.426  1.00  0.00     0.141 A 
ATOM     56  H7  UNL     1       5.784  38.767  28.546  1.00  0.00     0.161 HD
HETATM   57  C18 UNL     1       6.659  36.323  30.656  1.00  0.00     0.141 A 
HETATM   58  N8  UNL     1       6.680  35.784  29.325  1.00  0.00    -0.369 N 
ATOM     59  H8  UNL     1       6.950  34.831  29.082  1.00  0.00     0.161 HD
ENDBRANCH  52  53
ENDBRANCH  48  52
ENDBRANCH  43  44
ENDBRANCH   8  43
TORSDOF 15
ENDMDL
MODEL 2
REMARK VINA RESULT: -9.478494741      7.647     11.905
REMARK  15 active torsions:
REMARK  status: ('A' for Active; 'I' for Inactive)
REMARK    1  A    between atoms: N1_2  and  C3_4 
REMARK    2  A    between atoms: C3_4  and  C4_5 
REMARK    3  A    between atoms: C6_7  and  C7_8 
REMARK    4  A    between atoms: C7_8  and  C8_9 
REMARK    5  A    between atoms: C8_9  and  N2_10 
REMARK    6  A    between atoms: C8_9  and  C9_14 
REMARK       I    between atoms: C9_14  and  N3_16 
REMARK    7  A    between atoms: N3_16  and  C10_18 
REMARK    8  A    between atoms: C13_25  and  S2_26 
REMARK    9  A    between atoms: S2_26  and  C14_27 
REMARK   10  A    between atoms: C15_32  and  S3_33 
REMARK   11  A    between atoms: S3_33  and  C16_34 
REMARK   12  A    between atoms: C20_43  and  C21_44 
REMARK   13  A    between atoms: C23_50  and  N11_51 
REMARK   14  A    between atoms: N11_51  and  N12_53 
REMARK   15  A    between atoms: C25_57  and  O5_58 
ROOT
HETATM    1  C10 UNL     1       6.475  26.842  21.547  1.00  0.00     0.383 C 
HETATM    2  N4  UNL     1       6.894  28.230  21.620  1.00  0.00    -0.015 N 
ATOM      3  H41 UNL     1       6.128  28.864  21.849  1.00  0.00     0.283 HD
ATOM      4  H42 UNL     1       7.127  28.623  20.709  1.00  0.00     0.283 HD
HETATM    5  C11 UNL     1       7.966  28.307  22.543  1.00  0.00     0.360 C 
HETATM    6  S1  UNL     1       9.418  29.163  21.807  1.00  0.00    -0.110 SA
HETATM    7  C12 UNL     1      10.790  28.796  22.908  1.00  0.00     0.126 C 
HETATM    8  C13 UNL     1      10.578  27.595  23.760  1.00  0.00     0.029 C 
HETATM    9  C20 UNL     1       9.540  26.795  23.701  1.00  0.00     0.131 C 
HETATM   10  N10 UNL     1       8.431  26.964  22.804  1.00  0.00    -0.269 N 
HETATM   11  C22 UNL     1       7.623  26.093  22.054  1.00  0.00     0.277 C 
HETATM   12  O4  UNL     1       7.905  24.868  21.887  1.00  0.00    -0.269 OA
ENDROOT
BRANCH   1  13
HETATM   13  N3  UNL     1       5.343  26.603  22.448  1.00  0.00    -0.324 N 
HETATM   14  C9  UNL     1       4.239  25.821  22.054  1.00  0.00     0.250 C 
HETATM   15  O1  UNL     1       4.222  25.324  20.905  1.00  0.00    -0.271 OA
ATOM     16  H3  UNL     1       5.357  27.012  23.382  1.00  0.00     0.165 HD
BRANCH  14  17
HETATM   17  C8  UNL     1       3.117  25.586  22.962  1.00  0.00     0.279 C 
BRANCH  17  18
HETATM   18  C7  UNL     1       3.295  26.250  24.308  1.00  0.00     0.083 C 
BRANCH  18  19
HETATM   19  C6  UNL     1       3.573  25.225  25.319  1.00  0.00    -0.027 A 
HETATM   20  C5  UNL     1       3.044  23.944  25.129  1.00  0.00     0.021 A 
HETATM   21  C4  UNL     1       3.299  22.978  26.068  1.00  0.00     0.004 A 
HETATM   22  C25 UNL     1       4.080  23.292  27.187  1.00  0.00     0.075 A 
HETATM   23  C24 UNL     1       4.601  24.533  27.386  1.00  0.00     0.068 A 
HETATM   24  C23 UNL     1       4.325  25.494  26.419  1.00  0.00     0.056 A 
BRANCH  21  25
HETATM   25  C3  UNL     1       2.772  21.612  25.891  1.00  0.00     0.312 C 
BRANCH  25  26
HETATM   26  N1  UNL     1       1.520  21.538  25.196  1.00  0.00     0.084 N 
HETATM   27  C1  UNL     1       1.833  20.844  23.919  1.00  0.00     0.309 C 
HETATM   28  C2  UNL     1       0.572  20.657  25.883  1.00  0.00     0.309 C 
ENDBRANCH  25  26
ENDBRANCH  21  25
BRANCH  22  29
HETATM   29  O5  UNL     1       4.308  22.262  28.117  1.00  0.00    -0.360 OA
ATOM     30  H5  UNL     1       5.193  21.924  28.178  1.00  0.00     0.217 HD
ENDBRANCH  22  29
BRANCH  24  31
HETATM   31  N11 UNL     1       4.855  26.783  26.642  1.00  0.00    -0.307 N 
ATOM     32  H11 UNL     1       4.290  27.503  27.091  1.00  0.00     0.186 HD
BRANCH  31  33
HETATM   33  N12 UNL     1       6.161  27.058  26.241  1.00  0.00    -0.345 N 
ATOM     34 2H12 UNL     1       6.881  27.215  26.946  1.00  0.00     0.176 HD
ATOM     35 1H12 UNL     1       6.377  27.097  25.244  1.00  0.00     0.176 HD
ENDBRANCH  31  33
ENDBRANCH  24  31
ENDBRANCH  18  19
ENDBRANCH  17  18
BRANCH  17  36
HETATM   36  N2  UNL     1       1.815  25.926  22.400  1.00  0.00    -0.066 N 
ATOM     37  H23 UNL     1       1.078  25.900  23.104  1.00  0.00     0.275 HD
ATOM     38  H22 UNL     1       1.753  26.913  22.152  1.00  0.00     0.275 HD
ATOM     39  H21 UNL     1       1.605  25.320  21.606  1.00  0.00     0.275 HD
ENDBRANCH  17  36
ENDBRANCH  14  17
ENDBRANCH   1  13
BRANCH   9  40
HETATM   40  C21 UNL     1       9.487  25.650  24.611  1.00  0.00     0.228 C 
HETATM   41  O2  UNL     1      10.050  24.577  24.318  1.00  0.00    -0.643 OA
HETATM   42  O3  UNL     1       8.804  25.729  25.833  1.00  0.00    -0.643 OA
ENDBRANCH   9  40
BRANCH   8  43
HETATM   43  S2  UNL     1      11.845  27.211  25.016  1.00  0.00    -0.054 SA
BRANCH  43  44
HETATM   44  C14 UNL     1      13.457  27.552  24.340  1.00  0.00     0.167 A 
HETATM   45  N5  UNL     1      13.883  27.109  23.142  1.00  0.00    -0.277 N 
HETATM   46  N6  UNL     1      15.132  27.506  22.935  1.00  0.00    -0.277 N 
ATOM     47  H5  UNL     1      13.329  26.552  22.492  1.00  0.00     0.189 HD
HETATM   48  C15 UNL     1      15.512  28.217  24.023  1.00  0.00     0.170 A 
ATOM     49  H6  UNL     1      15.700  27.312  22.111  1.00  0.00     0.189 HD
HETATM   50  N9  UNL     1      14.481  28.236  24.870  1.00  0.00    -0.310 N 
HETATM   51  C19 UNL     1      14.468  28.908  26.155  1.00  0.00     0.160 C 
BRANCH  48  52
HETATM   52  S3  UNL     1      17.142  28.919  24.191  1.00  0.00    -0.017 SA
BRANCH  52  53
HETATM   53  C16 UNL     1      17.132  30.698  24.215  1.00  0.00     0.143 A 
HETATM   54  N7  UNL     1      17.386  31.499  23.240  1.00  0.00    -0.369 N 
HETATM   55  C17 UNL     1      17.270  32.887  23.676  1.00  0.00     0.141 A 
ATOM     56  H7  UNL     1      17.634  31.205  22.295  1.00  0.00     0.161 HD
HETATM   57  C18 UNL     1      16.781  32.839  25.086  1.00  0.00     0.141 A 
HETATM   58  N8  UNL     1      16.817  31.436  25.391  1.00  0.00    -0.369 N 
ATOM     59  H8  UNL     1      16.643  31.031  26.310  1.00  0.00     0.161 HD
ENDBRANCH  52  53
ENDBRANCH  48  52
ENDBRANCH  43  44
ENDBRANCH   8  43
TORSDOF 15
ENDMDL
MODEL 3
REMARK VINA RESULT: -9.474520463      2.026      2.660
REMARK  15 active torsions:
REMARK  status: ('A' for Active; 'I' for Inactive)
REMARK    1  A    between atoms: N1_2  and  C3_4 
REMARK    2  A    between atoms: C3_4  and  C4_5 
REMARK    3  A    between atoms: C6_7  and  C7_8 
REMARK    4  A    between atoms: C7_8  and  C8_9 
REMARK    5  A    between atoms: C8_9  and  N2_10 
REMARK    6  A    between atoms: C8_9  and  C9_14 
REMARK       I    between atoms: C9_14  and  N3_16 
REMARK    7  A    between atoms: N3_16  and  C10_18 
REMARK    8  A    between atoms: C13_25  and  S2_26 
REMARK    9  A    between atoms: S2_26  and  C14_27 
REMARK   10  A    between atoms: C15_32  and  S3_33 
REMARK   11  A    between atoms: S3_33  and  C16_34 
REMARK   12  A    between atoms: C20_43  and  C21_44 
REMARK   13  A    between atoms: C23_50  and  N11_51 
REMARK   14  A    between atoms: N11_51  and  N12_53 
REMARK   15  A    between atoms: C25_57  and  O5_58 
ROOT
HETATM    1  C10 UNL     1      11.582  31.619  19.873  1.00  0.00     0.383 C 
HETATM    2  N4  UNL     1      10.249  32.072  19.515  1.00  0.00    -0.015 N 
ATOM      3  H41 UNL     1       9.609  31.303  19.320  1.00  0.00     0.283 HD
ATOM      4  H42 UNL     1      10.214  32.512  18.596  1.00  0.00     0.283 HD
HETATM    5  C11 UNL     1       9.791  32.922  20.551  1.00  0.00     0.360 C 
HETATM    6  S1  UNL     1       9.210  34.534  19.882  1.00  0.00    -0.110 SA
HETATM    7  C12 UNL     1       9.085  35.619  21.309  1.00  0.00     0.126 C 
HETATM    8  C13 UNL     1       9.891  35.177  22.478  1.00  0.00     0.029 C 
HETATM    9  C20 UNL     1      10.698  34.143  22.498  1.00  0.00     0.131 C 
HETATM   10  N10 UNL     1      10.921  33.262  21.385  1.00  0.00    -0.269 N 
HETATM   11  C22 UNL     1      12.040  32.598  20.858  1.00  0.00     0.277 C 
HETATM   12  O4  UNL     1      13.226  32.856  21.223  1.00  0.00    -0.269 OA
ENDROOT
BRANCH   1  13
HETATM   13  N3  UNL     1      11.515  30.311  20.532  1.00  0.00    -0.324 N 
HETATM   14  C9  UNL     1      12.260  29.211  20.063  1.00  0.00     0.250 C 
HETATM   15  O1  UNL     1      12.992  29.354  19.056  1.00  0.00    -0.271 OA
ATOM     16  H3  UNL     1      10.915  30.195  21.348  1.00  0.00     0.165 HD
BRANCH  14  17
HETATM   17  C8  UNL     1      12.189  27.911  20.728  1.00  0.00     0.279 C 
BRANCH  17  18
HETATM   18  C7  UNL     1      11.947  28.020  22.216  1.00  0.00     0.083 C 
BRANCH  18  19
HETATM   19  C6  UNL     1      13.218  27.843  22.927  1.00  0.00    -0.027 A 
HETATM   20  C5  UNL     1      13.881  28.982  23.395  1.00  0.00     0.021 A 
HETATM   21  C4  UNL     1      15.070  28.827  24.061  1.00  0.00     0.004 A 
HETATM   22  C25 UNL     1      15.587  27.542  24.260  1.00  0.00     0.075 A 
HETATM   23  C24 UNL     1      14.953  26.424  23.811  1.00  0.00     0.068 A 
HETATM   24  C23 UNL     1      13.752  26.610  23.137  1.00  0.00     0.056 A 
BRANCH  21  25
HETATM   25  C3  UNL     1      15.787  30.005  24.583  1.00  0.00     0.312 C 
BRANCH  25  26
HETATM   26  N1  UNL     1      16.453  30.792  23.586  1.00  0.00     0.084 N 
HETATM   27  C1  UNL     1      16.324  32.196  24.060  1.00  0.00     0.309 C 
HETATM   28  C2  UNL     1      17.894  30.530  23.565  1.00  0.00     0.309 C 
ENDBRANCH  25  26
ENDBRANCH  21  25
BRANCH  22  29
HETATM   29  O5  UNL     1      16.809  27.444  24.949  1.00  0.00    -0.360 OA
ATOM     30  H5  UNL     1      17.574  27.206  24.440  1.00  0.00     0.217 HD
ENDBRANCH  22  29
BRANCH  24  31
HETATM   31  N11 UNL     1      13.110  25.448  22.659  1.00  0.00    -0.307 N 
ATOM     32  H11 UNL     1      12.131  25.271  22.879  1.00  0.00     0.186 HD
BRANCH  31  33
HETATM   33  N12 UNL     1      13.834  24.543  21.883  1.00  0.00    -0.345 N 
ATOM     34 2H12 UNL     1      14.494  24.893  21.189  1.00  0.00     0.176 HD
ATOM     35 1H12 UNL     1      13.691  23.543  22.023  1.00  0.00     0.176 HD
ENDBRANCH  31  33
ENDBRANCH  24  31
ENDBRANCH  18  19
ENDBRANCH  17  18
BRANCH  17  36
HETATM   36  N2  UNL     1      11.236  26.985  20.128  1.00  0.00    -0.066 N 
ATOM     37  H23 UNL     1      11.417  26.020  20.403  1.00  0.00     0.275 HD
ATOM     38  H22 UNL     1      10.304  27.084  20.531  1.00  0.00     0.275 HD
ATOM     39  H21 UNL     1      11.226  27.097  19.114  1.00  0.00     0.275 HD
ENDBRANCH  17  36
ENDBRANCH  14  17
ENDBRANCH   1  13
BRANCH   9  40
HETATM   40  C21 UNL     1      11.424  33.845  23.733  1.00  0.00     0.228 C 
HETATM   41  O2  UNL     1      12.476  34.452  24.016  1.00  0.00    -0.643 OA
HETATM   42  O3  UNL     1      10.957  32.874  24.630  1.00  0.00    -0.643 OA
ENDBRANCH   9  40
BRANCH   8  43
HETATM   43  S2  UNL     1       9.728  36.125  24.028  1.00  0.00    -0.054 SA
BRANCH  43  44
HETATM   44  C14 UNL     1       8.137  35.786  24.755  1.00  0.00     0.167 A 
HETATM   45  N5  UNL     1       7.916  34.828  25.674  1.00  0.00    -0.277 N 
HETATM   46  N6  UNL     1       6.629  34.807  25.998  1.00  0.00    -0.277 N 
ATOM     47  H5  UNL     1       8.629  34.212  26.063  1.00  0.00     0.189 HD
HETATM   48  C15 UNL     1       6.016  35.771  25.271  1.00  0.00     0.170 A 
ATOM     49  H6  UNL     1       6.184  34.181  26.670  1.00  0.00     0.189 HD
HETATM   50  N9  UNL     1       6.949  36.359  24.518  1.00  0.00    -0.310 N 
HETATM   51  C19 UNL     1       6.711  37.457  23.601  1.00  0.00     0.160 C 
BRANCH  48  52
HETATM   52  S3  UNL     1       4.263  36.077  25.364  1.00  0.00    -0.017 SA
BRANCH  52  53
HETATM   53  C16 UNL     1       3.851  37.436  26.434  1.00  0.00     0.143 A 
HETATM   54  N7  UNL     1       4.479  37.825  27.489  1.00  0.00    -0.369 N 
HETATM   55  C17 UNL     1       3.813  38.979  28.083  1.00  0.00     0.141 A 
ATOM     56  H7  UNL     1       5.323  37.387  27.857  1.00  0.00     0.161 HD
HETATM   57  C18 UNL     1       2.700  39.340  27.154  1.00  0.00     0.141 A 
HETATM   58  N8  UNL     1       2.719  38.268  26.199  1.00  0.00    -0.369 N 
ATOM     59  H8  UNL     1       2.028  38.124  25.464  1.00  0.00     0.161 HD
ENDBRANCH  52  53
ENDBRANCH  48  52
ENDBRANCH  43  44
ENDBRANCH   8  43
TORSDOF 15
ENDMDL
MODEL 4
REMARK VINA RESULT: -9.360491407      1.729      3.097
REMARK  15 active torsions:
REMARK  status: ('A' for Active; 'I' for Inactive)
REMARK    1  A    between atoms: N1_2  and  C3_4 
REMARK    2  A    between atoms: C3_4  and  C4_5 
REMARK    3  A    between atoms: C6_7  and  C7_8 
REMARK    4  A    between atoms: C7_8  and  C8_9 
REMARK    5  A    between atoms: C8_9  and  N2_10 
REMARK    6  A    between atoms: C8_9  and  C9_14 
REMARK       I    between atoms: C9_14  and  N3_16 
REMARK    7  A    between atoms: N3_16  and  C10_18 
REMARK    8  A    between atoms: C13_25  and  S2_26 
REMARK    9  A    between atoms: S2_26  and  C14_27 
REMARK   10  A    between atoms: C15_32  and  S3_33 
REMARK   11  A    between atoms: S3_33  and  C16_34 
REMARK   12  A    between atoms: C20_43  and  C21_44 
REMARK   13  A    between atoms: C23_50  and  N11_51 
REMARK   14  A    between atoms: N11_51  and  N12_53 
REMARK   15  A    between atoms: C25_57  and  O5_58 
ROOT
HETATM    1  C10 UNL     1      12.060  30.660  20.738  1.00  0.00     0.383 C 
HETATM    2  N4  UNL     1      10.639  30.886  20.544  1.00  0.00    -0.015 N 
ATOM      3  H41 UNL     1      10.070  30.080  20.805  1.00  0.00     0.283 HD
ATOM      4  H42 UNL     1      10.374  30.925  19.560  1.00  0.00     0.283 HD
HETATM    5  C11 UNL     1      10.288  32.060  21.255  1.00  0.00     0.360 C 
HETATM    6  S1  UNL     1       9.399  33.253  20.174  1.00  0.00    -0.110 SA
HETATM    7  C12 UNL     1       9.420  34.810  21.072  1.00  0.00     0.126 C 
HETATM    8  C13 UNL     1      10.484  34.896  22.108  1.00  0.00     0.029 C 
HETATM    9  C20 UNL     1      11.399  33.984  22.337  1.00  0.00     0.131 C 
HETATM   10  N10 UNL     1      11.508  32.743  21.622  1.00  0.00    -0.269 N 
HETATM   11  C22 UNL     1      12.577  31.965  21.148  1.00  0.00     0.277 C 
HETATM   12  O4  UNL     1      13.771  32.389  21.111  1.00  0.00    -0.269 OA
ENDROOT
BRANCH   1  13
HETATM   13  N3  UNL     1      12.281  29.719  21.840  1.00  0.00    -0.324 N 
HETATM   14  C9  UNL     1      12.375  28.331  21.616  1.00  0.00     0.250 C 
HETATM   15  O1  UNL     1      12.263  27.892  20.448  1.00  0.00    -0.271 OA
ATOM     16  H3  UNL     1      12.367  30.077  22.791  1.00  0.00     0.165 HD
BRANCH  14  17
HETATM   17  C8  UNL     1      12.598  27.400  22.722  1.00  0.00     0.279 C 
BRANCH  17  18
HETATM   18  C7  UNL     1      11.491  27.426  23.750  1.00  0.00     0.083 C 
BRANCH  18  19
HETATM   19  C6  UNL     1      12.017  27.958  25.012  1.00  0.00    -0.027 A 
HETATM   20  C5  UNL     1      13.376  28.285  25.080  1.00  0.00     0.021 A 
HETATM   21  C4  UNL     1      13.877  28.784  26.255  1.00  0.00     0.004 A 
HETATM   22  C25 UNL     1      13.023  28.957  27.351  1.00  0.00     0.075 A 
HETATM   23  C24 UNL     1      11.700  28.643  27.301  1.00  0.00     0.068 A 
HETATM   24  C23 UNL     1      11.219  28.137  26.098  1.00  0.00     0.056 A 
BRANCH  21  25
HETATM   25  C3  UNL     1      15.300  29.156  26.357  1.00  0.00     0.312 C 
BRANCH  25  26
HETATM   26  N1  UNL     1      16.103  28.769  25.234  1.00  0.00     0.084 N 
HETATM   27  C1  UNL     1      16.851  29.998  24.858  1.00  0.00     0.309 C 
HETATM   28  C2  UNL     1      17.134  27.800  25.615  1.00  0.00     0.309 C 
ENDBRANCH  25  26
ENDBRANCH  21  25
BRANCH  22  29
HETATM   29  O5  UNL     1      13.593  29.471  28.529  1.00  0.00    -0.360 OA
ATOM     30  H5  UNL     1      13.075  30.097  29.022  1.00  0.00     0.217 HD
ENDBRANCH  22  29
BRANCH  24  31
HETATM   31  N11 UNL     1       9.850  27.798  26.060  1.00  0.00    -0.307 N 
ATOM     32  H11 UNL     1       9.344  27.795  25.175  1.00  0.00     0.186 HD
BRANCH  31  33
HETATM   33  N12 UNL     1       9.199  27.468  27.247  1.00  0.00    -0.345 N 
ATOM     34 2H12 UNL     1       9.081  28.178  27.970  1.00  0.00     0.176 HD
ATOM     35 1H12 UNL     1       8.849  26.518  27.374  1.00  0.00     0.176 HD
ENDBRANCH  31  33
ENDBRANCH  24  31
ENDBRANCH  18  19
ENDBRANCH  17  18
BRANCH  17  36
HETATM   36  N2  UNL     1      12.864  26.029  22.301  1.00  0.00    -0.066 N 
ATOM     37  H23 UNL     1      13.862  25.855  22.181  1.00  0.00     0.275 HD
ATOM     38  H22 UNL     1      12.683  25.360  23.049  1.00  0.00     0.275 HD
ATOM     39  H21 UNL     1      12.335  25.810  21.457  1.00  0.00     0.275 HD
ENDBRANCH  17  36
ENDBRANCH  14  17
ENDBRANCH   1  13
BRANCH   9  40
HETATM   40  C21 UNL     1      12.380  34.227  23.395  1.00  0.00     0.228 C 
HETATM   41  O2  UNL     1      12.256  33.692  24.514  1.00  0.00    -0.643 OA
HETATM   42  O3  UNL     1      13.484  35.064  23.179  1.00  0.00    -0.643 OA
ENDBRANCH   9  40
BRANCH   8  43
HETATM   43  S2  UNL     1      10.508  36.375  23.177  1.00  0.00    -0.054 SA
BRANCH  43  44
HETATM   44  C14 UNL     1       9.438  36.102  24.575  1.00  0.00     0.167 A 
HETATM   45  N5  UNL     1       9.787  35.394  25.666  1.00  0.00    -0.277 N 
HETATM   46  N6  UNL     1       8.768  35.350  26.516  1.00  0.00    -0.277 N 
ATOM     47  H5  UNL     1      10.696  34.959  25.817  1.00  0.00     0.189 HD
HETATM   48  C15 UNL     1       7.749  36.044  25.956  1.00  0.00     0.170 A 
ATOM     49  H6  UNL     1       8.756  34.882  27.422  1.00  0.00     0.189 HD
HETATM   50  N9  UNL     1       8.172  36.496  24.774  1.00  0.00    -0.310 N 
HETATM   51  C19 UNL     1       7.388  37.300  23.858  1.00  0.00     0.160 C 
BRANCH  48  52
HETATM   52  S3  UNL     1       6.159  36.217  26.743  1.00  0.00    -0.017 SA
BRANCH  52  53
HETATM   53  C16 UNL     1       6.278  36.710  28.447  1.00  0.00     0.143 A 
HETATM   54  N7  UNL     1       6.084  37.882  28.943  1.00  0.00    -0.369 N 
HETATM   55  C17 UNL     1       6.283  37.865  30.389  1.00  0.00     0.141 A 
ATOM     56  H7  UNL     1       5.828  38.707  28.401  1.00  0.00     0.161 HD
HETATM   57  C18 UNL     1       6.530  36.439  30.756  1.00  0.00     0.141 A 
HETATM   58  N8  UNL     1       6.616  35.788  29.479  1.00  0.00    -0.369 N 
ATOM     59  H8  UNL     1       6.879  34.814  29.333  1.00  0.00     0.161 HD
ENDBRANCH  52  53
ENDBRANCH  48  52
ENDBRANCH  43  44
ENDBRANCH   8  43
TORSDOF 15
ENDMDL
MODEL 5
REMARK VINA RESULT: -9.352404331      6.078      8.098
REMARK  15 active torsions:
REMARK  status: ('A' for Active; 'I' for Inactive)
REMARK    1  A    between atoms: N1_2  and  C3_4 
REMARK    2  A    between atoms: C3_4  and  C4_5 
REMARK    3  A    between atoms: C6_7  and  C7_8 
REMARK    4  A    between atoms: C7_8  and  C8_9 
REMARK    5  A    between atoms: C8_9  and  N2_10 
REMARK    6  A    between atoms: C8_9  and  C9_14 
REMARK       I    between atoms: C9_14  and  N3_16 
REMARK    7  A    between atoms: N3_16  and  C10_18 
REMARK    8  A    between atoms: C13_25  and  S2_26 
REMARK    9  A    between atoms: S2_26  and  C14_27 
REMARK   10  A    between atoms: C15_32  and  S3_33 
REMARK   11  A    between atoms: S3_33  and  C16_34 
REMARK   12  A    between atoms: C20_43  and  C21_44 
REMARK   13  A    between atoms: C23_50  and  N11_51 
REMARK   14  A    between atoms: N11_51  and  N12_53 
REMARK   15  A    between atoms: C25_57  and  O5_58 
ROOT
HETATM    1  C10 UNL     1      10.469  27.180  20.555  1.00  0.00     0.383 C 
HETATM    2  N4  UNL     1       9.706  25.970  20.308  1.00  0.00    -0.015 N 
ATOM      3  H41 UNL     1      10.228  25.121  20.523  1.00  0.00     0.283 HD
ATOM      4  H42 UNL     1       9.559  25.789  19.315  1.00  0.00     0.283 HD
HETATM    5  C11 UNL     1       8.494  26.070  21.035  1.00  0.00     0.360 C 
HETATM    6  S1  UNL     1       7.040  25.769  19.949  1.00  0.00    -0.110 SA
HETATM    7  C12 UNL     1       5.622  26.350  20.888  1.00  0.00     0.126 C 
HETATM    8  C13 UNL     1       5.966  27.311  21.970  1.00  0.00     0.029 C 
HETATM    9  C20 UNL     1       7.164  27.788  22.212  1.00  0.00     0.131 C 
HETATM   10  N10 UNL     1       8.343  27.440  21.470  1.00  0.00    -0.269 N 
HETATM   11  C22 UNL     1       9.473  28.143  21.021  1.00  0.00     0.277 C 
HETATM   12  O4  UNL     1       9.548  29.409  21.045  1.00  0.00    -0.269 OA
ENDROOT
BRANCH   1  13
HETATM   13  N3  UNL     1      11.431  26.963  21.640  1.00  0.00    -0.324 N 
HETATM   14  C9  UNL     1      12.692  27.592  21.644  1.00  0.00     0.250 C 
HETATM   15  O1  UNL     1      12.999  28.351  20.696  1.00  0.00    -0.271 OA
ATOM     16  H3  UNL     1      11.182  26.341  22.409  1.00  0.00     0.165 HD
BRANCH  14  17
HETATM   17  C8  UNL     1      13.644  27.372  22.732  1.00  0.00     0.279 C 
BRANCH  17  18
HETATM   18  C7  UNL     1      13.067  26.556  23.867  1.00  0.00     0.083 C 
BRANCH  18  19
HETATM   19  C6  UNL     1      12.721  27.450  24.977  1.00  0.00    -0.027 A 
HETATM   20  C5  UNL     1      13.722  28.276  25.501  1.00  0.00     0.021 A 
HETATM   21  C4  UNL     1      13.409  29.116  26.538  1.00  0.00     0.004 A 
HETATM   22  C25 UNL     1      12.103  29.132  27.044  1.00  0.00     0.075 A 
HETATM   23  C24 UNL     1      11.119  28.334  26.546  1.00  0.00     0.068 A 
HETATM   24  C23 UNL     1      11.465  27.490  25.496  1.00  0.00     0.056 A 
BRANCH  21  25
HETATM   25  C3  UNL     1      14.433  30.013  27.103  1.00  0.00     0.312 C 
BRANCH  25  26
HETATM   26  N1  UNL     1      15.109  30.833  26.140  1.00  0.00     0.084 N 
HETATM   27  C1  UNL     1      14.223  32.013  25.953  1.00  0.00     0.309 C 
HETATM   28  C2  UNL     1      16.358  31.380  26.677  1.00  0.00     0.309 C 
ENDBRANCH  25  26
ENDBRANCH  21  25
BRANCH  22  29
HETATM   29  O5  UNL     1      11.841  30.012  28.108  1.00  0.00    -0.360 OA
ATOM     30  H5  UNL     1      11.466  29.637  28.896  1.00  0.00     0.217 HD
ENDBRANCH  22  29
BRANCH  24  31
HETATM   31  N11 UNL     1      10.444  26.655  24.996  1.00  0.00    -0.307 N 
ATOM     32  H11 UNL     1      10.520  26.247  24.065  1.00  0.00     0.186 HD
BRANCH  31  33
HETATM   33  N12 UNL     1       9.330  26.394  25.793  1.00  0.00    -0.345 N 
ATOM     34 2H12 UNL     1       9.169  25.447  26.136  1.00  0.00     0.176 HD
ATOM     35 1H12 UNL     1       8.693  27.158  26.021  1.00  0.00     0.176 HD
ENDBRANCH  31  33
ENDBRANCH  24  31
ENDBRANCH  18  19
ENDBRANCH  17  18
BRANCH  17  36
HETATM   36  N2  UNL     1      14.918  26.809  22.303  1.00  0.00    -0.066 N 
ATOM     37  H23 UNL     1      15.553  26.662  23.089  1.00  0.00     0.275 HD
ATOM     38  H22 UNL     1      14.825  25.839  22.002  1.00  0.00     0.275 HD
ATOM     39  H21 UNL     1      15.337  27.394  21.580  1.00  0.00     0.275 HD
ENDBRANCH  17  36
ENDBRANCH  14  17
ENDBRANCH   1  13
BRANCH   9  40
HETATM   40  C21 UNL     1       7.332  28.733  23.317  1.00  0.00     0.228 C 
HETATM   41  O2  UNL     1       7.832  28.367  24.398  1.00  0.00    -0.643 OA
HETATM   42  O3  UNL     1       6.937  30.072  23.188  1.00  0.00    -0.643 OA
ENDBRANCH   9  40
BRANCH   8  43
HETATM   43  S2  UNL     1       4.622  27.858  23.078  1.00  0.00    -0.054 SA
BRANCH  43  44
HETATM   44  C14 UNL     1       4.690  26.912  24.586  1.00  0.00     0.167 A 
HETATM   45  N5  UNL     1       5.623  27.082  25.542  1.00  0.00    -0.277 N 
HETATM   46  N6  UNL     1       5.420  26.214  26.525  1.00  0.00    -0.277 N 
ATOM     47  H5  UNL     1       6.372  27.773  25.515  1.00  0.00     0.189 HD
HETATM   48  C15 UNL     1       4.336  25.475  26.191  1.00  0.00     0.170 A 
ATOM     49  H6  UNL     1       5.977  26.120  27.375  1.00  0.00     0.189 HD
HETATM   50  N9  UNL     1       3.902  25.913  25.006  1.00  0.00    -0.310 N 
HETATM   51  C19 UNL     1       2.749  25.395  24.296  1.00  0.00     0.160 C 
BRANCH  48  52
HETATM   52  S3  UNL     1       3.719  24.154  27.216  1.00  0.00    -0.017 SA
BRANCH  52  53
HETATM   53  C16 UNL     1       4.896  23.615  28.435  1.00  0.00     0.143 A 
HETATM   54  N7  UNL     1       4.670  23.304  29.664  1.00  0.00    -0.369 N 
HETATM   55  C17 UNL     1       5.909  22.913  30.328  1.00  0.00     0.141 A 
ATOM     56  H7  UNL     1       3.753  23.328  30.110  1.00  0.00     0.161 HD
HETATM   57  C18 UNL     1       6.965  22.916  29.273  1.00  0.00     0.141 A 
HETATM   58  N8  UNL     1       6.281  23.466  28.136  1.00  0.00    -0.369 N 
ATOM     59  H8  UNL     1       6.720  23.713  27.249  1.00  0.00     0.161 HD
ENDBRANCH  52  53
ENDBRANCH  48  52
ENDBRANCH  43  44
ENDBRANCH   8  43
TORSDOF 15
ENDMDL
