MODEL 1
REMARK VINA RESULT: -8.349759636      0.000      0.000
REMARK  17 active torsions:
REMARK  status: ('A' for Active; 'I' for Inactive)
REMARK    1  A    between atoms: C2_2  and  O1_3 
REMARK    2  A    between atoms: O1_3  and  C3_4 
REMARK    3  A    between atoms: C3_4  and  O2_5 
REMARK    4  A    between atoms: C3_4  and  C4_7 
REMARK    5  A    between atoms: C6_9  and  O3_10 
REMARK       I    between atoms: N1_12  and  C7_13 
REMARK    6  A    between atoms: C7_13  and  O5_15 
REMARK    7  A    between atoms: O5_15  and  C8_16 
REMARK    8  A    between atoms: C8_16  and  C9_17 
REMARK    9  A    between atoms: C10_18  and  C11_19 
REMARK   10  A    between atoms: C13_25  and  N3_26 
REMARK       I    between atoms: N3_26  and  C14_28 
REMARK   11  A    between atoms: C14_28  and  C15_30 
REMARK   12  A    between atoms: C15_30  and  C16_31 
REMARK   13  A    between atoms: C15_30  and  N4_35 
REMARK   14  A    between atoms: C16_31  and  O10_33 
REMARK   15  A    between atoms: C19_41  and  N6_42 
REMARK       I    between atoms: N6_42  and  C20_44 
REMARK   16  A    between atoms: C20_44  and  O14_46 
REMARK   17  A    between atoms: C24_51  and  O15_52 
ROOT
HETATM    1  C9  UNL     1      13.325  32.658  24.510  1.00  0.00     0.008 C 
HETATM    2  C10 UNL     1      12.235  32.334  25.150  1.00  0.00     0.124 C 
HETATM    3  N2  UNL     1      11.926  30.933  25.406  1.00  0.00    -0.293 N 
HETATM    4  C12 UNL     1      10.914  29.917  25.259  1.00  0.00     0.251 C 
HETATM    5  O8  UNL     1       9.689  29.802  25.055  1.00  0.00    -0.271 OA
HETATM    6  C13 UNL     1      12.009  28.932  25.465  1.00  0.00     0.210 C 
HETATM    7  C22 UNL     1      12.864  30.049  26.050  1.00  0.00     0.187 C 
HETATM    8  S1  UNL     1      14.466  30.258  25.250  1.00  0.00    -0.136 SA
HETATM    9  C23 UNL     1      14.197  31.483  23.975  1.00  0.00     0.119 C 
ENDROOT
BRANCH   6  10
HETATM   10  N3  UNL     1      12.464  28.374  24.231  1.00  0.00    -0.343 N 
HETATM   11  C14 UNL     1      12.149  27.021  23.926  1.00  0.00     0.247 C 
HETATM   12  O9  UNL     1      11.478  26.318  24.738  1.00  0.00    -0.271 OA
ATOM     13  H3  UNL     1      13.007  28.939  23.578  1.00  0.00     0.163 HD
BRANCH  11  14
HETATM   14  C15 UNL     1      12.632  26.468  22.631  1.00  0.00     0.254 C 
BRANCH  14  15
HETATM   15  C16 UNL     1      14.075  26.059  22.820  1.00  0.00     0.149 C 
HETATM   16  C17 UNL     1      14.360  24.715  22.214  1.00  0.00     0.042 C 
BRANCH  15  17
HETATM   17  O10 UNL     1      14.290  25.949  24.198  1.00  0.00    -0.393 OA
ATOM     18  H10 UNL     1      14.277  25.022  24.408  1.00  0.00     0.210 HD
ENDBRANCH  15  17
ENDBRANCH  14  15
BRANCH  14  19
HETATM   19  N4  UNL     1      12.437  27.380  21.536  1.00  0.00    -0.061 N 
HETATM   20  O11 UNL     1      13.088  28.434  21.182  1.00  0.00    -0.162 OA
HETATM   21  C18 UNL     1      12.561  28.974  20.107  1.00  0.00     0.401 A 
HETATM   22  O12 UNL     1      12.932  30.014  19.476  1.00  0.00    -0.236 OA
HETATM   23  N5  UNL     1      11.503  28.236  19.729  1.00  0.00    -0.131 N 
HETATM   24  C19 UNL     1      11.429  27.240  20.627  1.00  0.00     0.714 A 
ATOM     25  H5  UNL     1      10.888  28.398  18.931  1.00  0.00     0.190 HD
BRANCH  24  26
HETATM   26  N6  UNL     1      10.543  26.309  20.617  1.00  0.00    -0.133 N 
HETATM   27  C20 UNL     1       9.235  26.550  21.101  1.00  0.00     0.378 C 
HETATM   28  O13 UNL     1       8.905  26.157  22.271  1.00  0.00    -0.238 OA
ATOM     29  H6  UNL     1      10.785  25.385  20.257  1.00  0.00     0.190 HD
BRANCH  27  30
HETATM   30  O14 UNL     1       8.248  27.202  20.378  1.00  0.00    -0.308 OA
HETATM   31  C21 UNL     1       7.676  28.426  20.806  1.00  0.00     0.215 C 
ENDBRANCH  27  30
ENDBRANCH  24  26
ENDBRANCH  14  19
ENDBRANCH  11  14
ENDBRANCH   6  10
BRANCH   2  32
HETATM   32  C11 UNL     1      11.264  33.255  25.664  1.00  0.00     0.227 C 
HETATM   33  O6  UNL     1      10.050  33.277  25.230  1.00  0.00    -0.643 OA
HETATM   34  O7  UNL     1      11.492  34.176  26.628  1.00  0.00    -0.643 OA
ENDBRANCH   2  32
BRANCH   1  35
HETATM   35  C8  UNL     1      13.848  33.905  24.154  1.00  0.00     0.158 C 
BRANCH  35  36
HETATM   36  O5  UNL     1      13.602  34.726  23.086  1.00  0.00    -0.272 OA
BRANCH  36  37
HETATM   37  C7  UNL     1      12.248  34.853  22.756  1.00  0.00     0.379 C 
HETATM   38  N1  UNL     1      11.559  34.124  21.773  1.00  0.00    -0.216 N 
HETATM   39  C6  UNL     1      12.007  33.177  20.937  1.00  0.00     0.153 A 
HETATM   40  C24 UNL     1      10.219  34.283  21.508  1.00  0.00     0.164 A 
HETATM   41  C5  UNL     1      10.975  32.732  20.146  1.00  0.00     0.073 A 
HETATM   42  C4  UNL     1       9.819  33.449  20.516  1.00  0.00     0.052 A 
HETATM   43  O4  UNL     1      11.601  35.728  23.433  1.00  0.00    -0.237 OA
BRANCH  39  44
HETATM   44  O3  UNL     1      13.283  32.657  20.811  1.00  0.00    -0.346 OA
ATOM     45  H3  UNL     1      14.049  33.168  21.047  1.00  0.00     0.219 HD
ENDBRANCH  39  44
BRANCH  42  46
HETATM   46  C3  UNL     1       8.497  33.258  19.877  1.00  0.00     0.295 C 
BRANCH  46  47
HETATM   47  O1  UNL     1       7.468  33.284  20.781  1.00  0.00    -0.357 OA
BRANCH  47  48
HETATM   48  C2  UNL     1       7.168  32.103  21.403  1.00  0.00     0.167 C 
HETATM   49  C1  UNL     1       7.312  32.066  22.886  1.00  0.00     0.033 C 
ENDBRANCH  47  48
ENDBRANCH  46  47
BRANCH  46  50
HETATM   50  O2  UNL     1       8.511  31.913  19.309  1.00  0.00    -0.367 OA
ATOM     51  H2  UNL     1       7.606  31.695  19.117  1.00  0.00     0.213 HD
ENDBRANCH  46  50
ENDBRANCH  42  46
BRANCH  40  52
HETATM   52  O15 UNL     1       9.407  35.186  22.181  1.00  0.00    -0.345 OA
ATOM     53  H15 UNL     1       8.852  35.840  21.775  1.00  0.00     0.219 HD
ENDBRANCH  40  52
ENDBRANCH  36  37
ENDBRANCH  35  36
ENDBRANCH   1  35
TORSDOF 17
ENDMDL
MODEL 2
REMARK VINA RESULT: -8.089053169      2.963      6.190
REMARK  17 active torsions:
REMARK  status: ('A' for Active; 'I' for Inactive)
REMARK    1  A    between atoms: C2_2  and  O1_3 
REMARK    2  A    between atoms: O1_3  and  C3_4 
REMARK    3  A    between atoms: C3_4  and  O2_5 
REMARK    4  A    between atoms: C3_4  and  C4_7 
REMARK    5  A    between atoms: C6_9  and  O3_10 
REMARK       I    between atoms: N1_12  and  C7_13 
REMARK    6  A    between atoms: C7_13  and  O5_15 
REMARK    7  A    between atoms: O5_15  and  C8_16 
REMARK    8  A    between atoms: C8_16  and  C9_17 
REMARK    9  A    between atoms: C10_18  and  C11_19 
REMARK   10  A    between atoms: C13_25  and  N3_26 
REMARK       I    between atoms: N3_26  and  C14_28 
REMARK   11  A    between atoms: C14_28  and  C15_30 
REMARK   12  A    between atoms: C15_30  and  C16_31 
REMARK   13  A    between atoms: C15_30  and  N4_35 
REMARK   14  A    between atoms: C16_31  and  O10_33 
REMARK   15  A    between atoms: C19_41  and  N6_42 
REMARK       I    between atoms: N6_42  and  C20_44 
REMARK   16  A    between atoms: C20_44  and  O14_46 
REMARK   17  A    between atoms: C24_51  and  O15_52 
ROOT
HETATM    1  C9  UNL     1       6.554  28.923  20.548  1.00  0.00     0.008 C 
HETATM    2  C10 UNL     1       6.350  27.639  20.445  1.00  0.00     0.124 C 
HETATM    3  N2  UNL     1       6.818  26.738  21.490  1.00  0.00    -0.293 N 
HETATM    4  C12 UNL     1       7.599  25.553  21.744  1.00  0.00     0.251 C 
HETATM    5  O8  UNL     1       8.064  24.561  21.148  1.00  0.00    -0.271 OA
HETATM    6  C13 UNL     1       7.655  26.008  23.160  1.00  0.00     0.210 C 
HETATM    7  C22 UNL     1       6.477  26.933  22.877  1.00  0.00     0.187 C 
HETATM    8  S1  UNL     1       6.773  28.663  23.286  1.00  0.00    -0.136 SA
HETATM    9  C23 UNL     1       7.383  29.404  21.776  1.00  0.00     0.119 C 
ENDROOT
BRANCH   6  10
HETATM   10  N3  UNL     1       8.895  26.648  23.466  1.00  0.00    -0.343 N 
HETATM   11  C14 UNL     1       9.891  25.921  24.174  1.00  0.00     0.247 C 
HETATM   12  O9  UNL     1       9.681  24.724  24.532  1.00  0.00    -0.271 OA
ATOM     13  H3  UNL     1       9.063  27.613  23.180  1.00  0.00     0.163 HD
BRANCH  11  14
HETATM   14  C15 UNL     1      11.176  26.611  24.476  1.00  0.00     0.254 C 
BRANCH  14  15
HETATM   15  C16 UNL     1      10.865  27.768  25.397  1.00  0.00     0.149 C 
HETATM   16  C17 UNL     1      12.011  28.071  26.320  1.00  0.00     0.042 C 
BRANCH  15  17
HETATM   17  O10 UNL     1       9.782  27.377  26.192  1.00  0.00    -0.393 OA
ATOM     18  H10 UNL     1      10.070  26.629  26.704  1.00  0.00     0.210 HD
ENDBRANCH  15  17
ENDBRANCH  14  15
BRANCH  14  19
HETATM   19  N4  UNL     1      11.882  27.004  23.285  1.00  0.00    -0.061 N 
HETATM   20  O11 UNL     1      11.461  27.505  22.175  1.00  0.00    -0.162 OA
HETATM   21  C18 UNL     1      12.458  27.715  21.346  1.00  0.00     0.401 A 
HETATM   22  O12 UNL     1      12.426  28.195  20.169  1.00  0.00    -0.236 OA
HETATM   23  N5  UNL     1      13.601  27.331  21.941  1.00  0.00    -0.131 N 
HETATM   24  C19 UNL     1      13.234  26.887  23.155  1.00  0.00     0.714 A 
ATOM     25  H5  UNL     1      14.544  27.369  21.554  1.00  0.00     0.190 HD
BRANCH  24  26
HETATM   26  N6  UNL     1      14.043  26.426  24.042  1.00  0.00    -0.133 N 
HETATM   27  C20 UNL     1      15.269  25.829  23.662  1.00  0.00     0.378 C 
HETATM   28  O13 UNL     1      15.376  24.556  23.632  1.00  0.00    -0.238 OA
ATOM     29  H6  UNL     1      13.799  26.491  25.029  1.00  0.00     0.190 HD
BRANCH  27  30
HETATM   30  O14 UNL     1      16.404  26.542  23.308  1.00  0.00    -0.308 OA
HETATM   31  C21 UNL     1      16.726  27.794  23.887  1.00  0.00     0.215 C 
ENDBRANCH  27  30
ENDBRANCH  24  26
ENDBRANCH  14  19
ENDBRANCH  11  14
ENDBRANCH   6  10
BRANCH   2  32
HETATM   32  C11 UNL     1       5.673  26.985  19.364  1.00  0.00     0.227 C 
HETATM   33  O6  UNL     1       6.161  25.940  18.787  1.00  0.00    -0.643 OA
HETATM   34  O7  UNL     1       4.487  27.367  18.838  1.00  0.00    -0.643 OA
ENDBRANCH   2  32
BRANCH   1  35
HETATM   35  C8  UNL     1       6.201  29.983  19.705  1.00  0.00     0.158 C 
BRANCH  35  36
HETATM   36  O5  UNL     1       6.943  30.989  19.146  1.00  0.00    -0.272 OA
BRANCH  36  37
HETATM   37  C7  UNL     1       6.846  32.215  19.812  1.00  0.00     0.379 C 
HETATM   38  N1  UNL     1       7.907  33.087  20.110  1.00  0.00    -0.216 N 
HETATM   39  C6  UNL     1       9.216  32.962  19.853  1.00  0.00     0.153 A 
HETATM   40  C24 UNL     1       7.744  34.291  20.753  1.00  0.00     0.164 A 
HETATM   41  C5  UNL     1       9.887  34.066  20.321  1.00  0.00     0.073 A 
HETATM   42  C4  UNL     1       8.934  34.925  20.904  1.00  0.00     0.052 A 
HETATM   43  O4  UNL     1       5.663  32.549  20.173  1.00  0.00    -0.237 OA
BRANCH  39  44
HETATM   44  O3  UNL     1       9.887  31.929  19.222  1.00  0.00    -0.346 OA
ATOM     45  H3  UNL     1      10.560  31.432  19.672  1.00  0.00     0.219 HD
ENDBRANCH  39  44
BRANCH  42  46
HETATM   46  C3  UNL     1       9.275  36.220  21.533  1.00  0.00     0.295 C 
BRANCH  46  47
HETATM   47  O1  UNL     1       8.956  36.257  22.866  1.00  0.00    -0.357 OA
BRANCH  47  48
HETATM   48  C2  UNL     1       9.885  35.750  23.733  1.00  0.00     0.167 C 
HETATM   49  C1  UNL     1       9.562  35.823  25.186  1.00  0.00     0.033 C 
ENDBRANCH  47  48
ENDBRANCH  46  47
BRANCH  46  50
HETATM   50  O2  UNL     1       8.433  37.222  20.883  1.00  0.00    -0.367 OA
ATOM     51  H2  UNL     1       7.573  36.830  20.793  1.00  0.00     0.213 HD
ENDBRANCH  46  50
ENDBRANCH  42  46
BRANCH  40  52
HETATM   52  O15 UNL     1       6.513  34.771  21.180  1.00  0.00    -0.345 OA
ATOM     53  H15 UNL     1       5.998  34.413  21.894  1.00  0.00     0.219 HD
ENDBRANCH  40  52
ENDBRANCH  36  37
ENDBRANCH  35  36
ENDBRANCH   1  35
TORSDOF 17
ENDMDL
MODEL 3
REMARK VINA RESULT: -8.065773902      3.171      8.170
REMARK  17 active torsions:
REMARK  status: ('A' for Active; 'I' for Inactive)
REMARK    1  A    between atoms: C2_2  and  O1_3 
REMARK    2  A    between atoms: O1_3  and  C3_4 
REMARK    3  A    between atoms: C3_4  and  O2_5 
REMARK    4  A    between atoms: C3_4  and  C4_7 
REMARK    5  A    between atoms: C6_9  and  O3_10 
REMARK       I    between atoms: N1_12  and  C7_13 
REMARK    6  A    between atoms: C7_13  and  O5_15 
REMARK    7  A    between atoms: O5_15  and  C8_16 
REMARK    8  A    between atoms: C8_16  and  C9_17 
REMARK    9  A    between atoms: C10_18  and  C11_19 
REMARK   10  A    between atoms: C13_25  and  N3_26 
REMARK       I    between atoms: N3_26  and  C14_28 
REMARK   11  A    between atoms: C14_28  and  C15_30 
REMARK   12  A    between atoms: C15_30  and  C16_31 
REMARK   13  A    between atoms: C15_30  and  N4_35 
REMARK   14  A    between atoms: C16_31  and  O10_33 
REMARK   15  A    between atoms: C19_41  and  N6_42 
REMARK       I    between atoms: N6_42  and  C20_44 
REMARK   16  A    between atoms: C20_44  and  O14_46 
REMARK   17  A    between atoms: C24_51  and  O15_52 
ROOT
HETATM    1  C9  UNL     1      10.858  30.955  22.242  1.00  0.00     0.008 C 
HETATM    2  C10 UNL     1      10.326  32.022  22.772  1.00  0.00     0.124 C 
HETATM    3  N2  UNL     1      11.170  33.141  23.170  1.00  0.00    -0.293 N 
HETATM    4  C12 UNL     1      11.505  34.017  24.264  1.00  0.00     0.251 C 
HETATM    5  O8  UNL     1      11.049  34.410  25.356  1.00  0.00    -0.271 OA
HETATM    6  C13 UNL     1      12.755  34.318  23.515  1.00  0.00     0.210 C 
HETATM    7  C22 UNL     1      12.102  33.755  22.258  1.00  0.00     0.187 C 
HETATM    8  S1  UNL     1      13.042  32.445  21.453  1.00  0.00    -0.136 SA
HETATM    9  C23 UNL     1      12.413  30.922  22.149  1.00  0.00     0.119 C 
ENDROOT
BRANCH   6  10
HETATM   10  N3  UNL     1      13.871  33.585  24.024  1.00  0.00    -0.343 N 
HETATM   11  C14 UNL     1      15.095  34.268  24.265  1.00  0.00     0.247 C 
HETATM   12  O9  UNL     1      15.197  35.508  24.028  1.00  0.00    -0.271 OA
ATOM     13  H3  UNL     1      13.790  32.585  24.212  1.00  0.00     0.163 HD
BRANCH  11  14
HETATM   14  C15 UNL     1      16.240  33.480  24.799  1.00  0.00     0.254 C 
BRANCH  14  15
HETATM   15  C16 UNL     1      17.127  33.117  23.631  1.00  0.00     0.149 C 
HETATM   16  C17 UNL     1      18.190  34.152  23.393  1.00  0.00     0.042 C 
BRANCH  15  17
HETATM   17  O10 UNL     1      16.313  33.086  22.494  1.00  0.00    -0.393 OA
ATOM     18  H10 UNL     1      16.863  33.309  21.752  1.00  0.00     0.210 HD
ENDBRANCH  15  17
ENDBRANCH  14  15
BRANCH  14  19
HETATM   19  N4  UNL     1      15.812  32.340  25.566  1.00  0.00    -0.061 N 
HETATM   20  O11 UNL     1      15.128  31.301  25.233  1.00  0.00    -0.162 OA
HETATM   21  C18 UNL     1      14.964  30.496  26.258  1.00  0.00     0.401 A 
HETATM   22  O12 UNL     1      14.348  29.385  26.307  1.00  0.00    -0.236 OA
HETATM   23  N5  UNL     1      15.574  31.034  27.329  1.00  0.00    -0.131 N 
HETATM   24  C19 UNL     1      16.103  32.189  26.890  1.00  0.00     0.714 A 
ATOM     25  H5  UNL     1      15.623  30.649  28.272  1.00  0.00     0.190 HD
BRANCH  24  26
HETATM   26  N6  UNL     1      16.774  33.010  27.617  1.00  0.00    -0.133 N 
HETATM   27  C20 UNL     1      16.432  33.222  28.973  1.00  0.00     0.378 C 
HETATM   28  O13 UNL     1      15.764  34.258  29.308  1.00  0.00    -0.238 OA
ATOM     29  H6  UNL     1      17.562  33.515  27.211  1.00  0.00     0.190 HD
BRANCH  27  30
HETATM   30  O14 UNL     1      16.776  32.362  30.005  1.00  0.00    -0.308 OA
HETATM   31  C21 UNL     1      15.969  32.196  31.158  1.00  0.00     0.215 C 
ENDBRANCH  27  30
ENDBRANCH  24  26
ENDBRANCH  14  19
ENDBRANCH  11  14
ENDBRANCH   6  10
BRANCH   2  32
HETATM   32  C11 UNL     1       8.927  32.226  23.011  1.00  0.00     0.227 C 
HETATM   33  O6  UNL     1       8.267  33.167  22.425  1.00  0.00    -0.643 OA
HETATM   34  O7  UNL     1       8.158  31.488  23.844  1.00  0.00    -0.643 OA
ENDBRANCH   2  32
BRANCH   1  35
HETATM   35  C8  UNL     1      10.278  29.771  21.774  1.00  0.00     0.158 C 
BRANCH  35  36
HETATM   36  O5  UNL     1       9.924  28.614  22.414  1.00  0.00    -0.272 OA
BRANCH  36  37
HETATM   37  C7  UNL     1      10.851  28.174  23.365  1.00  0.00     0.379 C 
HETATM   38  N1  UNL     1      12.041  27.474  23.106  1.00  0.00    -0.216 N 
HETATM   39  C6  UNL     1      12.555  27.060  21.940  1.00  0.00     0.153 A 
HETATM   40  C24 UNL     1      12.922  27.084  24.088  1.00  0.00     0.164 A 
HETATM   41  C5  UNL     1      13.748  26.415  22.163  1.00  0.00     0.073 A 
HETATM   42  C4  UNL     1      13.984  26.430  23.553  1.00  0.00     0.052 A 
HETATM   43  O4  UNL     1      10.559  28.453  24.581  1.00  0.00    -0.237 OA
BRANCH  39  44
HETATM   44  O3  UNL     1      12.049  27.209  20.661  1.00  0.00    -0.346 OA
ATOM     45  H3  UNL     1      11.257  26.759  20.390  1.00  0.00     0.219 HD
ENDBRANCH  39  44
BRANCH  42  46
HETATM   46  C3  UNL     1      15.172  25.818  24.189  1.00  0.00     0.295 C 
BRANCH  46  47
HETATM   47  O1  UNL     1      16.333  26.479  23.881  1.00  0.00    -0.357 OA
BRANCH  47  48
HETATM   48  C2  UNL     1      16.724  27.466  24.744  1.00  0.00     0.167 C 
HETATM   49  C1  UNL     1      17.507  28.595  24.166  1.00  0.00     0.033 C 
ENDBRANCH  47  48
ENDBRANCH  46  47
BRANCH  46  50
HETATM   50  O2  UNL     1      15.297  24.481  23.615  1.00  0.00    -0.367 OA
ATOM     51  H2  UNL     1      14.594  23.963  23.989  1.00  0.00     0.213 HD
ENDBRANCH  46  50
ENDBRANCH  42  46
BRANCH  40  52
HETATM   52  O15 UNL     1      12.726  27.339  25.438  1.00  0.00    -0.345 OA
ATOM     53  H15 UNL     1      13.041  28.101  25.908  1.00  0.00     0.219 HD
ENDBRANCH  40  52
ENDBRANCH  36  37
ENDBRANCH  35  36
ENDBRANCH   1  35
TORSDOF 17
ENDMDL
MODEL 4
REMARK VINA RESULT: -8.062325220      3.808      6.711
REMARK  17 active torsions:
REMARK  status: ('A' for Active; 'I' for Inactive)
REMARK    1  A    between atoms: C2_2  and  O1_3 
REMARK    2  A    between atoms: O1_3  and  C3_4 
REMARK    3  A    between atoms: C3_4  and  O2_5 
REMARK    4  A    between atoms: C3_4  and  C4_7 
REMARK    5  A    between atoms: C6_9  and  O3_10 
REMARK       I    between atoms: N1_12  and  C7_13 
REMARK    6  A    between atoms: C7_13  and  O5_15 
REMARK    7  A    between atoms: O5_15  and  C8_16 
REMARK    8  A    between atoms: C8_16  and  C9_17 
REMARK    9  A    between atoms: C10_18  and  C11_19 
REMARK   10  A    between atoms: C13_25  and  N3_26 
REMARK       I    between atoms: N3_26  and  C14_28 
REMARK   11  A    between atoms: C14_28  and  C15_30 
REMARK   12  A    between atoms: C15_30  and  C16_31 
REMARK   13  A    between atoms: C15_30  and  N4_35 
REMARK   14  A    between atoms: C16_31  and  O10_33 
REMARK   15  A    between atoms: C19_41  and  N6_42 
REMARK       I    between atoms: N6_42  and  C20_44 
REMARK   16  A    between atoms: C20_44  and  O14_46 
REMARK   17  A    between atoms: C24_51  and  O15_52 
ROOT
HETATM    1  C9  UNL     1       6.515  28.851  20.670  1.00  0.00     0.008 C 
HETATM    2  C10 UNL     1       6.346  27.569  20.497  1.00  0.00     0.124 C 
HETATM    3  N2  UNL     1       6.895  26.622  21.459  1.00  0.00    -0.293 N 
HETATM    4  C12 UNL     1       7.724  25.451  21.599  1.00  0.00     0.251 C 
HETATM    5  O8  UNL     1       8.188  24.514  20.920  1.00  0.00    -0.271 OA
HETATM    6  C13 UNL     1       7.837  25.820  23.036  1.00  0.00     0.210 C 
HETATM    7  C22 UNL     1       6.617  26.720  22.870  1.00  0.00     0.187 C 
HETATM    8  S1  UNL     1       6.880  28.430  23.372  1.00  0.00    -0.136 SA
HETATM    9  C23 UNL     1       7.389  29.283  21.885  1.00  0.00     0.119 C 
ENDROOT
BRANCH   6  10
HETATM   10  N3  UNL     1       9.070  26.482  23.321  1.00  0.00    -0.343 N 
HETATM   11  C14 UNL     1       9.921  25.953  24.331  1.00  0.00     0.247 C 
HETATM   12  O9  UNL     1       9.589  24.912  24.971  1.00  0.00    -0.271 OA
ATOM     13  H3  UNL     1       9.337  27.323  22.808  1.00  0.00     0.163 HD
BRANCH  11  14
HETATM   14  C15 UNL     1      11.202  26.661  24.604  1.00  0.00     0.254 C 
BRANCH  14  15
HETATM   15  C16 UNL     1      10.887  27.852  25.480  1.00  0.00     0.149 C 
HETATM   16  C17 UNL     1      12.001  28.149  26.443  1.00  0.00     0.042 C 
BRANCH  15  17
HETATM   17  O10 UNL     1       9.760  27.514  26.237  1.00  0.00    -0.393 OA
ATOM     18  H10 UNL     1       9.716  26.565  26.260  1.00  0.00     0.210 HD
ENDBRANCH  15  17
ENDBRANCH  14  15
BRANCH  14  19
HETATM   19  N4  UNL     1      11.905  27.010  23.398  1.00  0.00    -0.061 N 
HETATM   20  O11 UNL     1      11.487  27.502  22.284  1.00  0.00    -0.162 OA
HETATM   21  C18 UNL     1      12.480  27.667  21.439  1.00  0.00     0.401 A 
HETATM   22  O12 UNL     1      12.448  28.124  20.254  1.00  0.00    -0.236 OA
HETATM   23  N5  UNL     1      13.618  27.262  22.030  1.00  0.00    -0.131 N 
HETATM   24  C19 UNL     1      13.253  26.852  23.256  1.00  0.00     0.714 A 
ATOM     25  H5  UNL     1      14.557  27.265  21.632  1.00  0.00     0.190 HD
BRANCH  24  26
HETATM   26  N6  UNL     1      14.058  26.385  24.142  1.00  0.00    -0.133 N 
HETATM   27  C20 UNL     1      15.295  25.811  23.765  1.00  0.00     0.378 C 
HETATM   28  O13 UNL     1      15.419  24.540  23.714  1.00  0.00    -0.238 OA
ATOM     29  H6  UNL     1      13.803  26.429  25.129  1.00  0.00     0.190 HD
BRANCH  27  30
HETATM   30  O14 UNL     1      16.424  26.544  23.435  1.00  0.00    -0.308 OA
HETATM   31  C21 UNL     1      16.771  27.746  24.101  1.00  0.00     0.215 C 
ENDBRANCH  27  30
ENDBRANCH  24  26
ENDBRANCH  14  19
ENDBRANCH  11  14
ENDBRANCH   6  10
BRANCH   2  32
HETATM   32  C11 UNL     1       5.635  26.960  19.411  1.00  0.00     0.227 C 
HETATM   33  O6  UNL     1       4.491  27.402  19.013  1.00  0.00    -0.643 OA
HETATM   34  O7  UNL     1       6.060  25.891  18.699  1.00  0.00    -0.643 OA
ENDBRANCH   2  32
BRANCH   1  35
HETATM   35  C8  UNL     1       6.086  29.947  19.914  1.00  0.00     0.158 C 
BRANCH  35  36
HETATM   36  O5  UNL     1       5.519  31.139  20.278  1.00  0.00    -0.272 OA
BRANCH  36  37
HETATM   37  C7  UNL     1       6.240  32.268  19.876  1.00  0.00     0.379 C 
HETATM   38  N1  UNL     1       5.927  33.605  20.171  1.00  0.00    -0.216 N 
HETATM   39  C6  UNL     1       4.901  34.110  20.869  1.00  0.00     0.153 A 
HETATM   40  C24 UNL     1       6.689  34.673  19.761  1.00  0.00     0.164 A 
HETATM   41  C5  UNL     1       4.998  35.480  20.910  1.00  0.00     0.073 A 
HETATM   42  C4  UNL     1       6.155  35.844  20.191  1.00  0.00     0.052 A 
HETATM   43  O4  UNL     1       7.283  32.027  19.171  1.00  0.00    -0.237 OA
BRANCH  39  44
HETATM   44  O3  UNL     1       3.858  33.447  21.492  1.00  0.00    -0.346 OA
ATOM     45  H3  UNL     1       2.956  33.718  21.365  1.00  0.00     0.219 HD
ENDBRANCH  39  44
BRANCH  42  46
HETATM   46  C3  UNL     1       6.594  37.244  19.999  1.00  0.00     0.295 C 
BRANCH  46  47
HETATM   47  O1  UNL     1       6.791  37.557  18.679  1.00  0.00    -0.357 OA
BRANCH  47  48
HETATM   48  C2  UNL     1       5.692  37.967  17.975  1.00  0.00     0.167 C 
HETATM   49  C1  UNL     1       5.207  37.061  16.896  1.00  0.00     0.033 C 
ENDBRANCH  47  48
ENDBRANCH  46  47
BRANCH  46  50
HETATM   50  O2  UNL     1       7.900  37.353  20.646  1.00  0.00    -0.367 OA
ATOM     51  H2  UNL     1       8.411  36.614  20.340  1.00  0.00     0.213 HD
ENDBRANCH  46  50
ENDBRANCH  42  46
BRANCH  40  52
HETATM   52  O15 UNL     1       7.847  34.543  19.006  1.00  0.00    -0.345 OA
ATOM     53  H15 UNL     1       8.309  33.730  18.838  1.00  0.00     0.219 HD
ENDBRANCH  40  52
ENDBRANCH  36  37
ENDBRANCH  35  36
ENDBRANCH   1  35
TORSDOF 17
ENDMDL
MODEL 5
REMARK VINA RESULT: -8.056700988      3.752      7.527
REMARK  17 active torsions:
REMARK  status: ('A' for Active; 'I' for Inactive)
REMARK    1  A    between atoms: C2_2  and  O1_3 
REMARK    2  A    between atoms: O1_3  and  C3_4 
REMARK    3  A    between atoms: C3_4  and  O2_5 
REMARK    4  A    between atoms: C3_4  and  C4_7 
REMARK    5  A    between atoms: C6_9  and  O3_10 
REMARK       I    between atoms: N1_12  and  C7_13 
REMARK    6  A    between atoms: C7_13  and  O5_15 
REMARK    7  A    between atoms: O5_15  and  C8_16 
REMARK    8  A    between atoms: C8_16  and  C9_17 
REMARK    9  A    between atoms: C10_18  and  C11_19 
REMARK   10  A    between atoms: C13_25  and  N3_26 
REMARK       I    between atoms: N3_26  and  C14_28 
REMARK   11  A    between atoms: C14_28  and  C15_30 
REMARK   12  A    between atoms: C15_30  and  C16_31 
REMARK   13  A    between atoms: C15_30  and  N4_35 
REMARK   14  A    between atoms: C16_31  and  O10_33 
REMARK   15  A    between atoms: C19_41  and  N6_42 
REMARK       I    between atoms: N6_42  and  C20_44 
REMARK   16  A    between atoms: C20_44  and  O14_46 
REMARK   17  A    between atoms: C24_51  and  O15_52 
ROOT
HETATM    1  C9  UNL     1      14.294  29.586  23.930  1.00  0.00     0.008 C 
HETATM    2  C10 UNL     1      14.655  28.408  23.500  1.00  0.00     0.124 C 
HETATM    3  N2  UNL     1      13.785  27.657  22.605  1.00  0.00    -0.293 N 
HETATM    4  C12 UNL     1      13.125  26.390  22.413  1.00  0.00     0.251 C 
HETATM    5  O8  UNL     1      13.177  25.209  22.808  1.00  0.00    -0.271 OA
HETATM    6  C13 UNL     1      12.246  27.103  21.446  1.00  0.00     0.210 C 
HETATM    7  C22 UNL     1      13.278  28.223  21.381  1.00  0.00     0.187 C 
HETATM    8  S1  UNL     1      12.624  29.861  21.752  1.00  0.00    -0.136 SA
HETATM    9  C23 UNL     1      12.878  30.080  23.509  1.00  0.00     0.119 C 
ENDROOT
BRANCH   6  10
HETATM   10  N3  UNL     1      10.985  27.445  22.024  1.00  0.00    -0.343 N 
HETATM   11  C14 UNL     1       9.794  26.950  21.425  1.00  0.00     0.247 C 
HETATM   12  O9  UNL     1       9.849  26.219  20.392  1.00  0.00    -0.271 OA
ATOM     13  H3  UNL     1      10.940  28.036  22.854  1.00  0.00     0.163 HD
BRANCH  11  14
HETATM   14  C15 UNL     1       8.494  27.319  22.051  1.00  0.00     0.254 C 
BRANCH  14  15
HETATM   15  C16 UNL     1       8.304  26.434  23.262  1.00  0.00     0.149 C 
HETATM   16  C17 UNL     1       8.627  27.157  24.539  1.00  0.00     0.042 C 
BRANCH  15  17
HETATM   17  O10 UNL     1       9.212  25.377  23.141  1.00  0.00    -0.393 OA
ATOM     18  H10 UNL     1       8.834  24.633  23.595  1.00  0.00     0.210 HD
ENDBRANCH  15  17
ENDBRANCH  14  15
BRANCH  14  19
HETATM   19  N4  UNL     1       7.399  27.255  21.120  1.00  0.00    -0.061 N 
HETATM   20  O11 UNL     1       6.626  26.281  20.785  1.00  0.00    -0.162 OA
HETATM   21  C18 UNL     1       5.746  26.665  19.887  1.00  0.00     0.401 A 
HETATM   22  O12 UNL     1       4.831  25.983  19.327  1.00  0.00    -0.236 OA
HETATM   23  N5  UNL     1       5.950  27.966  19.615  1.00  0.00    -0.131 N 
HETATM   24  C19 UNL     1       6.985  28.330  20.390  1.00  0.00     0.714 A 
ATOM     25  H5  UNL     1       5.429  28.550  18.961  1.00  0.00     0.190 HD
BRANCH  24  26
HETATM   26  N6  UNL     1       7.495  29.510  20.425  1.00  0.00    -0.133 N 
HETATM   27  C20 UNL     1       6.818  30.607  19.840  1.00  0.00     0.378 C 
HETATM   28  O13 UNL     1       7.173  31.036  18.690  1.00  0.00    -0.238 OA
ATOM     29  H6  UNL     1       8.396  29.657  20.878  1.00  0.00     0.190 HD
BRANCH  27  30
HETATM   30  O14 UNL     1       5.763  31.278  20.439  1.00  0.00    -0.308 OA
HETATM   31  C21 UNL     1       5.716  32.691  20.534  1.00  0.00     0.215 C 
ENDBRANCH  27  30
ENDBRANCH  24  26
ENDBRANCH  14  19
ENDBRANCH  11  14
ENDBRANCH   6  10
BRANCH   2  32
HETATM   32  C11 UNL     1      15.883  27.742  23.824  1.00  0.00     0.227 C 
HETATM   33  O6  UNL     1      15.934  26.795  24.698  1.00  0.00    -0.643 OA
HETATM   34  O7  UNL     1      17.089  28.013  23.275  1.00  0.00    -0.643 OA
ENDBRANCH   2  32
BRANCH   1  35
HETATM   35  C8  UNL     1      14.941  30.499  24.770  1.00  0.00     0.158 C 
BRANCH  35  36
HETATM   36  O5  UNL     1      15.997  30.356  25.630  1.00  0.00    -0.272 OA
BRANCH  36  37
HETATM   37  C7  UNL     1      16.203  31.450  26.478  1.00  0.00     0.379 C 
HETATM   38  N1  UNL     1      15.709  31.595  27.785  1.00  0.00    -0.216 N 
HETATM   39  C6  UNL     1      14.943  30.768  28.507  1.00  0.00     0.153 A 
HETATM   40  C24 UNL     1      15.963  32.691  28.576  1.00  0.00     0.164 A 
HETATM   41  C5  UNL     1      14.706  31.318  29.745  1.00  0.00     0.073 A 
HETATM   42  C4  UNL     1      15.366  32.563  29.788  1.00  0.00     0.052 A 
HETATM   43  O4  UNL     1      16.916  32.395  25.986  1.00  0.00    -0.237 OA
BRANCH  39  44
HETATM   44  O3  UNL     1      14.422  29.534  28.160  1.00  0.00    -0.346 OA
ATOM     45  H3  UNL     1      14.896  28.943  27.587  1.00  0.00     0.219 HD
ENDBRANCH  39  44
BRANCH  42  46
HETATM   46  C3  UNL     1      15.336  33.466  30.959  1.00  0.00     0.295 C 
BRANCH  46  47
HETATM   47  O1  UNL     1      15.139  32.794  32.137  1.00  0.00    -0.357 OA
BRANCH  47  48
HETATM   48  C2  UNL     1      16.261  32.382  32.803  1.00  0.00     0.167 C 
HETATM   49  C1  UNL     1      16.375  30.925  33.095  1.00  0.00     0.033 C 
ENDBRANCH  47  48
ENDBRANCH  46  47
BRANCH  46  50
HETATM   50  O2  UNL     1      14.169  34.327  30.779  1.00  0.00    -0.367 OA
ATOM     51  H2  UNL     1      13.930  34.264  29.861  1.00  0.00     0.213 HD
ENDBRANCH  46  50
ENDBRANCH  42  46
BRANCH  40  52
HETATM   52  O15 UNL     1      16.732  33.771  28.164  1.00  0.00    -0.345 OA
ATOM     53  H15 UNL     1      17.496  33.724  27.602  1.00  0.00     0.219 HD
ENDBRANCH  40  52
ENDBRANCH  36  37
ENDBRANCH  35  36
ENDBRANCH   1  35
TORSDOF 17
ENDMDL
