MODEL 1
REMARK VINA RESULT: -8.848746018      0.000      0.000
REMARK  17 active torsions:
REMARK  status: ('A' for Active; 'I' for Inactive)
REMARK    1  A    between atoms: C2_2  and  C3_3 
REMARK    2  A    between atoms: C2_2  and  N6_43 
REMARK    3  A    between atoms: C3_3  and  N1_4 
REMARK    4  A    between atoms: C3_3  and  C20_40 
REMARK    5  A    between atoms: N1_4  and  C4_7 
REMARK    6  A    between atoms: C6_11  and  C7_12 
REMARK    7  A    between atoms: C8_15  and  C9_16 
REMARK    8  A    between atoms: C9_16  and  O4_17 
REMARK    9  A    between atoms: O4_17  and  C10_18 
REMARK   10  A    between atoms: C10_18  and  C11_20 
REMARK   11  A    between atoms: C11_20  and  S1_22 
REMARK   12  A    between atoms: S1_22  and  C12_23 
REMARK   13  A    between atoms: C12_23  and  C13_24 
REMARK   14  A    between atoms: C15_27  and  O7_28 
REMARK   15  A    between atoms: C16_30  and  O8_31 
REMARK   16  A    between atoms: O8_31  and  N4_32 
REMARK   17  A    between atoms: C21_46  and  N8_47 
ROOT
HETATM    1  C4  UNL     1      15.806  29.882  26.351  1.00  0.00     0.311 C 
HETATM    2  C5  UNL     1      16.243  28.502  26.095  1.00  0.00     0.259 C 
HETATM    3  O1  UNL     1      17.221  27.819  26.481  1.00  0.00    -0.271 OA
HETATM    4  N2  UNL     1      15.126  28.267  25.248  1.00  0.00    -0.293 N 
HETATM    5  C6  UNL     1      14.277  27.297  24.566  1.00  0.00     0.124 C 
HETATM    6  C8  UNL     1      12.970  27.344  24.737  1.00  0.00     0.008 C 
HETATM    7  C18 UNL     1      12.400  28.387  25.725  1.00  0.00     0.119 C 
HETATM    8  S2  UNL     1      13.150  30.003  25.427  1.00  0.00    -0.136 SA
HETATM    9  C19 UNL     1      14.901  29.691  25.135  1.00  0.00     0.195 C 
ENDROOT
BRANCH   6  10
HETATM   10  C9  UNL     1      11.960  26.508  24.168  1.00  0.00     0.156 C 
BRANCH  10  11
HETATM   11  O4  UNL     1      10.898  25.973  24.825  1.00  0.00    -0.284 OA
BRANCH  11  12
HETATM   12  C10 UNL     1       9.647  25.974  24.193  1.00  0.00     0.345 C 
HETATM   13  O5  UNL     1       9.288  24.948  23.586  1.00  0.00    -0.255 OA
BRANCH  12  14
HETATM   14  C11 UNL     1       8.827  27.172  24.275  1.00  0.00     0.284 C 
HETATM   15  O6  UNL     1       8.918  27.997  25.217  1.00  0.00    -0.274 OA
BRANCH  14  16
HETATM   16  S1  UNL     1       7.631  27.497  22.977  1.00  0.00    -0.076 SA
BRANCH  16  17
HETATM   17  C12 UNL     1       8.379  27.913  21.444  1.00  0.00     0.142 C 
BRANCH  17  18
HETATM   18  C13 UNL     1       9.698  28.564  21.542  1.00  0.00     0.050 A 
HETATM   19  C14 UNL     1      10.832  27.803  21.123  1.00  0.00     0.107 A 
HETATM   20  N3  UNL     1      10.835  26.465  20.648  1.00  0.00    -0.097 NA
HETATM   21  C15 UNL     1      11.925  28.608  21.268  1.00  0.00     0.146 A 
HETATM   22  C16 UNL     1      11.481  29.799  21.750  1.00  0.00     0.207 A 
HETATM   23  N5  UNL     1      10.126  29.761  21.912  1.00  0.00    -0.329 N 
HETATM   24  C17 UNL     1       9.375  30.908  22.386  1.00  0.00     0.158 C 
BRANCH  21  25
HETATM   25  O7  UNL     1      13.248  28.272  20.977  1.00  0.00    -0.355 OA
ATOM     26  H7  UNL     1      13.862  28.785  20.465  1.00  0.00     0.218 HD
ENDBRANCH  21  25
BRANCH  22  27
HETATM   27  O8  UNL     1      12.301  30.908  22.040  1.00  0.00    -0.224 OA
BRANCH  27  28
HETATM   28  N4  UNL     1      12.912  31.552  20.993  1.00  0.00    -0.303 N 
ATOM     29  H42 UNL     1      12.756  31.232  20.038  1.00  0.00     0.184 HD
ATOM     30  H41 UNL     1      13.515  32.347  21.204  1.00  0.00     0.184 HD
ENDBRANCH  27  28
ENDBRANCH  22  27
ENDBRANCH  17  18
ENDBRANCH  16  17
ENDBRANCH  14  16
ENDBRANCH  12  14
ENDBRANCH  11  12
ENDBRANCH  10  11
ENDBRANCH   6  10
BRANCH   5  31
HETATM   31  C7  UNL     1      14.988  26.308  23.776  1.00  0.00     0.227 C 
HETATM   32  O2  UNL     1      15.247  25.131  24.014  1.00  0.00    -0.643 OA
HETATM   33  O3  UNL     1      15.502  26.700  22.501  1.00  0.00    -0.643 OA
ENDBRANCH   5  31
BRANCH   1  34
HETATM   34  N1  UNL     1      15.086  30.151  27.569  1.00  0.00    -0.043 N 
ATOM     35  H12 UNL     1      15.013  29.330  28.170  1.00  0.00     0.279 HD
ATOM     36  H11 UNL     1      14.089  30.297  27.410  1.00  0.00     0.279 HD
BRANCH  34  37
HETATM   37  C3  UNL     1      15.724  31.294  28.248  1.00  0.00     0.311 C 
BRANCH  37  38
HETATM   38  C2  UNL     1      14.813  31.795  29.327  1.00  0.00     0.149 C 
HETATM   39  C1  UNL     1      13.560  31.008  29.534  1.00  0.00     0.037 C 
BRANCH  38  40
HETATM   40  N6  UNL     1      15.501  31.986  30.631  1.00  0.00    -0.242 N 
HETATM   41  N7  UNL     1      15.500  31.081  31.552  1.00  0.00    -0.274 N 
HETATM   42  C21 UNL     1      16.141  31.321  32.694  1.00  0.00     0.162 A 
ATOM     43  H7  UNL     1      15.016  30.196  31.406  1.00  0.00     0.189 HD
HETATM   44  S3  UNL     1      16.764  32.888  32.441  1.00  0.00     0.010 SA
HETATM   45  C22 UNL     1      16.149  33.126  30.866  1.00  0.00     0.308 A 
HETATM   46  O11 UNL     1      16.276  34.149  30.096  1.00  0.00    -0.258 OA
BRANCH  42  47
HETATM   47  N8  UNL     1      16.257  30.535  33.746  1.00  0.00    -0.378 N 
ATOM     48  H82 UNL     1      15.622  29.814  34.087  1.00  0.00     0.158 HD
ATOM     49  H81 UNL     1      17.014  30.500  34.428  1.00  0.00     0.158 HD
ENDBRANCH  42  47
ENDBRANCH  38  40
ENDBRANCH  37  38
BRANCH  37  50
HETATM   50  C20 UNL     1      16.113  32.266  27.231  1.00  0.00     0.207 C 
HETATM   51  O9  UNL     1      17.333  32.559  26.975  1.00  0.00    -0.646 OA
HETATM   52  O10 UNL     1      15.189  32.950  26.469  1.00  0.00    -0.646 OA
ENDBRANCH  37  50
ENDBRANCH  34  37
ENDBRANCH   1  34
TORSDOF 17
ENDMDL
MODEL 2
REMARK VINA RESULT: -8.811945238      2.110      3.261
REMARK  17 active torsions:
REMARK  status: ('A' for Active; 'I' for Inactive)
REMARK    1  A    between atoms: C2_2  and  C3_3 
REMARK    2  A    between atoms: C2_2  and  N6_43 
REMARK    3  A    between atoms: C3_3  and  N1_4 
REMARK    4  A    between atoms: C3_3  and  C20_40 
REMARK    5  A    between atoms: N1_4  and  C4_7 
REMARK    6  A    between atoms: C6_11  and  C7_12 
REMARK    7  A    between atoms: C8_15  and  C9_16 
REMARK    8  A    between atoms: C9_16  and  O4_17 
REMARK    9  A    between atoms: O4_17  and  C10_18 
REMARK   10  A    between atoms: C10_18  and  C11_20 
REMARK   11  A    between atoms: C11_20  and  S1_22 
REMARK   12  A    between atoms: S1_22  and  C12_23 
REMARK   13  A    between atoms: C12_23  and  C13_24 
REMARK   14  A    between atoms: C15_27  and  O7_28 
REMARK   15  A    between atoms: C16_30  and  O8_31 
REMARK   16  A    between atoms: O8_31  and  N4_32 
REMARK   17  A    between atoms: C21_46  and  N8_47 
ROOT
HETATM    1  C4  UNL     1      15.926  29.639  26.088  1.00  0.00     0.311 C 
HETATM    2  C5  UNL     1      16.350  28.268  25.767  1.00  0.00     0.259 C 
HETATM    3  O1  UNL     1      17.260  27.522  26.199  1.00  0.00    -0.271 OA
HETATM    4  N2  UNL     1      15.327  28.142  24.789  1.00  0.00    -0.293 N 
HETATM    5  C6  UNL     1      14.531  27.261  23.942  1.00  0.00     0.124 C 
HETATM    6  C8  UNL     1      13.215  27.342  23.975  1.00  0.00     0.008 C 
HETATM    7  C18 UNL     1      12.569  28.325  24.980  1.00  0.00     0.119 C 
HETATM    8  S2  UNL     1      13.393  29.930  24.898  1.00  0.00    -0.136 SA
HETATM    9  C19 UNL     1      15.155  29.578  24.770  1.00  0.00     0.195 C 
ENDROOT
BRANCH   6  10
HETATM   10  C9  UNL     1      12.251  26.592  23.234  1.00  0.00     0.156 C 
BRANCH  10  11
HETATM   11  O4  UNL     1      12.140  26.543  21.880  1.00  0.00    -0.284 OA
BRANCH  11  12
HETATM   12  C10 UNL     1      11.309  27.472  21.240  1.00  0.00     0.345 C 
HETATM   13  O5  UNL     1      10.348  27.047  20.572  1.00  0.00    -0.255 OA
BRANCH  12  14
HETATM   14  C11 UNL     1      11.606  28.888  21.386  1.00  0.00     0.284 C 
HETATM   15  O6  UNL     1      12.678  29.404  20.985  1.00  0.00    -0.274 OA
BRANCH  14  16
HETATM   16  S1  UNL     1      10.395  29.954  22.173  1.00  0.00    -0.076 SA
BRANCH  16  17
HETATM   17  C12 UNL     1      10.687  31.659  21.875  1.00  0.00     0.142 C 
BRANCH  17  18
HETATM   18  C13 UNL     1      11.246  32.411  23.014  1.00  0.00     0.050 A 
HETATM   19  C14 UNL     1      12.549  32.971  22.847  1.00  0.00     0.107 A 
HETATM   20  N3  UNL     1      13.390  32.855  21.709  1.00  0.00    -0.097 NA
HETATM   21  C15 UNL     1      12.843  33.642  23.999  1.00  0.00     0.146 A 
HETATM   22  C16 UNL     1      11.774  33.500  24.826  1.00  0.00     0.207 A 
HETATM   23  N5  UNL     1      10.809  32.751  24.216  1.00  0.00    -0.329 N 
HETATM   24  C17 UNL     1       9.538  32.463  24.856  1.00  0.00     0.158 C 
BRANCH  21  25
HETATM   25  O7  UNL     1      14.019  34.341  24.276  1.00  0.00    -0.355 OA
ATOM     26  H7  UNL     1      14.086  35.243  24.565  1.00  0.00     0.218 HD
ENDBRANCH  21  25
BRANCH  22  27
HETATM   27  O8  UNL     1      11.677  34.046  26.122  1.00  0.00    -0.224 OA
BRANCH  27  28
HETATM   28  N4  UNL     1      11.997  33.244  27.188  1.00  0.00    -0.303 N 
ATOM     29  H42 UNL     1      11.645  32.288  27.229  1.00  0.00     0.184 HD
ATOM     30  H41 UNL     1      12.588  33.633  27.922  1.00  0.00     0.184 HD
ENDBRANCH  27  28
ENDBRANCH  22  27
ENDBRANCH  17  18
ENDBRANCH  16  17
ENDBRANCH  14  16
ENDBRANCH  12  14
ENDBRANCH  11  12
ENDBRANCH  10  11
ENDBRANCH   6  10
BRANCH   5  31
HETATM   31  C7  UNL     1      15.296  26.312  23.154  1.00  0.00     0.227 C 
HETATM   32  O2  UNL     1      15.719  26.385  22.003  1.00  0.00    -0.643 OA
HETATM   33  O3  UNL     1      15.650  25.063  23.754  1.00  0.00    -0.643 OA
ENDBRANCH   5  31
BRANCH   1  34
HETATM   34  N1  UNL     1      15.085  29.838  27.240  1.00  0.00    -0.043 N 
ATOM     35  H12 UNL     1      14.934  28.978  27.767  1.00  0.00     0.279 HD
ATOM     36  H11 UNL     1      14.113  30.019  26.988  1.00  0.00     0.279 HD
BRANCH  34  37
HETATM   37  C3  UNL     1      15.664  30.913  28.065  1.00  0.00     0.311 C 
BRANCH  37  38
HETATM   38  C2  UNL     1      14.749  31.195  29.218  1.00  0.00     0.149 C 
HETATM   39  C1  UNL     1      14.268  29.998  29.971  1.00  0.00     0.037 C 
BRANCH  38  40
HETATM   40  N6  UNL     1      15.301  32.194  30.171  1.00  0.00    -0.242 N 
HETATM   41  N7  UNL     1      16.295  31.929  30.950  1.00  0.00    -0.274 N 
HETATM   42  C21 UNL     1      16.739  32.874  31.776  1.00  0.00     0.162 A 
ATOM     43  H7  UNL     1      16.734  31.009  30.934  1.00  0.00     0.189 HD
HETATM   44  S3  UNL     1      15.703  34.182  31.425  1.00  0.00     0.010 SA
HETATM   45  C22 UNL     1      14.762  33.411  30.227  1.00  0.00     0.308 A 
HETATM   46  O11 UNL     1      13.777  33.883  29.546  1.00  0.00    -0.258 OA
BRANCH  42  47
HETATM   47  N8  UNL     1      17.731  32.803  32.642  1.00  0.00    -0.378 N 
ATOM     48  H82 UNL     1      18.059  32.004  33.184  1.00  0.00     0.158 HD
ATOM     49  H81 UNL     1      18.366  33.544  32.938  1.00  0.00     0.158 HD
ENDBRANCH  42  47
ENDBRANCH  38  40
ENDBRANCH  37  38
BRANCH  37  50
HETATM   50  C20 UNL     1      15.967  32.042  27.191  1.00  0.00     0.207 C 
HETATM   51  O9  UNL     1      17.160  32.430  26.938  1.00  0.00    -0.646 OA
HETATM   52  O10 UNL     1      14.981  32.783  26.573  1.00  0.00    -0.646 OA
ENDBRANCH  37  50
ENDBRANCH  34  37
ENDBRANCH   1  34
TORSDOF 17
ENDMDL
MODEL 3
REMARK VINA RESULT: -8.691150795      4.030      8.014
REMARK  17 active torsions:
REMARK  status: ('A' for Active; 'I' for Inactive)
REMARK    1  A    between atoms: C2_2  and  C3_3 
REMARK    2  A    between atoms: C2_2  and  N6_43 
REMARK    3  A    between atoms: C3_3  and  N1_4 
REMARK    4  A    between atoms: C3_3  and  C20_40 
REMARK    5  A    between atoms: N1_4  and  C4_7 
REMARK    6  A    between atoms: C6_11  and  C7_12 
REMARK    7  A    between atoms: C8_15  and  C9_16 
REMARK    8  A    between atoms: C9_16  and  O4_17 
REMARK    9  A    between atoms: O4_17  and  C10_18 
REMARK   10  A    between atoms: C10_18  and  C11_20 
REMARK   11  A    between atoms: C11_20  and  S1_22 
REMARK   12  A    between atoms: S1_22  and  C12_23 
REMARK   13  A    between atoms: C12_23  and  C13_24 
REMARK   14  A    between atoms: C15_27  and  O7_28 
REMARK   15  A    between atoms: C16_30  and  O8_31 
REMARK   16  A    between atoms: O8_31  and  N4_32 
REMARK   17  A    between atoms: C21_46  and  N8_47 
ROOT
HETATM    1  C4  UNL     1      10.910  33.093  23.146  1.00  0.00     0.311 C 
HETATM    2  C5  UNL     1       9.760  32.214  22.890  1.00  0.00     0.259 C 
HETATM    3  O1  UNL     1       8.519  32.394  22.885  1.00  0.00    -0.271 OA
HETATM    4  N2  UNL     1      10.614  31.102  22.658  1.00  0.00    -0.293 N 
HETATM    5  C6  UNL     1      10.770  29.757  22.118  1.00  0.00     0.124 C 
HETATM    6  C8  UNL     1      11.740  29.509  21.260  1.00  0.00     0.008 C 
HETATM    7  C18 UNL     1      12.629  30.689  20.802  1.00  0.00     0.119 C 
HETATM    8  S2  UNL     1      13.155  31.663  22.230  1.00  0.00    -0.136 SA
HETATM    9  C19 UNL     1      11.709  31.799  23.297  1.00  0.00     0.195 C 
ENDROOT
BRANCH   6  10
HETATM   10  C9  UNL     1      12.078  28.278  20.618  1.00  0.00     0.156 C 
BRANCH  10  11
HETATM   11  O4  UNL     1      12.508  27.144  21.232  1.00  0.00    -0.284 OA
BRANCH  11  12
HETATM   12  C10 UNL     1      13.477  27.252  22.239  1.00  0.00     0.345 C 
HETATM   13  O5  UNL     1      14.664  27.421  21.904  1.00  0.00    -0.255 OA
BRANCH  12  14
HETATM   14  C11 UNL     1      13.051  27.162  23.626  1.00  0.00     0.284 C 
HETATM   15  O6  UNL     1      12.506  26.138  24.107  1.00  0.00    -0.274 OA
BRANCH  14  16
HETATM   16  S1  UNL     1      13.311  28.570  24.708  1.00  0.00    -0.076 SA
BRANCH  16  17
HETATM   17  C12 UNL     1      14.947  28.654  25.341  1.00  0.00     0.142 C 
BRANCH  17  18
HETATM   18  C13 UNL     1      15.739  29.813  24.891  1.00  0.00     0.050 A 
HETATM   19  C14 UNL     1      16.882  29.545  24.078  1.00  0.00     0.107 A 
HETATM   20  N3  UNL     1      17.366  28.271  23.678  1.00  0.00    -0.097 NA
HETATM   21  C15 UNL     1      17.433  30.751  23.757  1.00  0.00     0.146 A 
HETATM   22  C16 UNL     1      16.664  31.708  24.342  1.00  0.00     0.207 A 
HETATM   23  N5  UNL     1      15.637  31.127  25.028  1.00  0.00    -0.329 N 
HETATM   24  C17 UNL     1      14.637  31.911  25.729  1.00  0.00     0.158 C 
BRANCH  21  25
HETATM   25  O7  UNL     1      18.569  30.964  22.975  1.00  0.00    -0.355 OA
ATOM     26  H7  UNL     1      18.601  31.394  22.129  1.00  0.00     0.218 HD
ENDBRANCH  21  25
BRANCH  22  27
HETATM   27  O8  UNL     1      16.896  33.096  24.253  1.00  0.00    -0.224 OA
BRANCH  27  28
HETATM   28  N4  UNL     1      17.384  33.596  23.072  1.00  0.00    -0.303 N 
ATOM     29  H42 UNL     1      17.717  32.959  22.349  1.00  0.00     0.184 HD
ATOM     30  H41 UNL     1      17.399  34.608  22.948  1.00  0.00     0.184 HD
ENDBRANCH  27  28
ENDBRANCH  22  27
ENDBRANCH  17  18
ENDBRANCH  16  17
ENDBRANCH  14  16
ENDBRANCH  12  14
ENDBRANCH  11  12
ENDBRANCH  10  11
ENDBRANCH   6  10
BRANCH   5  31
HETATM   31  C7  UNL     1       9.770  28.800  22.557  1.00  0.00     0.227 C 
HETATM   32  O2  UNL     1       8.878  28.233  21.932  1.00  0.00    -0.643 OA
HETATM   33  O3  UNL     1       9.762  28.411  23.933  1.00  0.00    -0.643 OA
ENDBRANCH   5  31
BRANCH   1  34
HETATM   34  N1  UNL     1      11.373  33.934  22.074  1.00  0.00    -0.043 N 
ATOM     35  H12 UNL     1      11.019  33.640  21.164  1.00  0.00     0.279 HD
ATOM     36  H11 UNL     1      12.368  33.812  21.882  1.00  0.00     0.279 HD
BRANCH  34  37
HETATM   37  C3  UNL     1      11.026  35.332  22.389  1.00  0.00     0.311 C 
BRANCH  37  38
HETATM   38  C2  UNL     1       9.937  35.788  21.467  1.00  0.00     0.149 C 
HETATM   39  C1  UNL     1       9.646  34.885  20.312  1.00  0.00     0.037 C 
BRANCH  38  40
HETATM   40  N6  UNL     1       8.671  36.115  22.174  1.00  0.00    -0.242 N 
HETATM   41  N7  UNL     1       7.709  35.263  22.297  1.00  0.00    -0.274 N 
HETATM   42  C21 UNL     1       6.604  35.625  22.947  1.00  0.00     0.162 A 
ATOM     43  H7  UNL     1       7.793  34.327  21.903  1.00  0.00     0.189 HD
HETATM   44  S3  UNL     1       6.954  37.233  23.395  1.00  0.00     0.010 SA
HETATM   45  C22 UNL     1       8.514  37.326  22.707  1.00  0.00     0.308 A 
HETATM   46  O11 UNL     1       9.337  38.316  22.702  1.00  0.00    -0.258 OA
BRANCH  42  47
HETATM   47  N8  UNL     1       5.521  34.910  23.178  1.00  0.00    -0.378 N 
ATOM     48  H82 UNL     1       4.540  35.182  23.110  1.00  0.00     0.158 HD
ATOM     49  H81 UNL     1       5.457  33.936  23.472  1.00  0.00     0.158 HD
ENDBRANCH  42  47
ENDBRANCH  38  40
ENDBRANCH  37  38
BRANCH  37  50
HETATM   50  C20 UNL     1      12.255  36.119  22.374  1.00  0.00     0.207 C 
HETATM   51  O9  UNL     1      12.423  37.137  21.617  1.00  0.00    -0.646 OA
HETATM   52  O10 UNL     1      13.337  35.817  23.175  1.00  0.00    -0.646 OA
ENDBRANCH  37  50
ENDBRANCH  34  37
ENDBRANCH   1  34
TORSDOF 17
ENDMDL
MODEL 4
REMARK VINA RESULT: -8.633669389      4.141      5.702
REMARK  17 active torsions:
REMARK  status: ('A' for Active; 'I' for Inactive)
REMARK    1  A    between atoms: C2_2  and  C3_3 
REMARK    2  A    between atoms: C2_2  and  N6_43 
REMARK    3  A    between atoms: C3_3  and  N1_4 
REMARK    4  A    between atoms: C3_3  and  C20_40 
REMARK    5  A    between atoms: N1_4  and  C4_7 
REMARK    6  A    between atoms: C6_11  and  C7_12 
REMARK    7  A    between atoms: C8_15  and  C9_16 
REMARK    8  A    between atoms: C9_16  and  O4_17 
REMARK    9  A    between atoms: O4_17  and  C10_18 
REMARK   10  A    between atoms: C10_18  and  C11_20 
REMARK   11  A    between atoms: C11_20  and  S1_22 
REMARK   12  A    between atoms: S1_22  and  C12_23 
REMARK   13  A    between atoms: C12_23  and  C13_24 
REMARK   14  A    between atoms: C15_27  and  O7_28 
REMARK   15  A    between atoms: C16_30  and  O8_31 
REMARK   16  A    between atoms: O8_31  and  N4_32 
REMARK   17  A    between atoms: C21_46  and  N8_47 
ROOT
HETATM    1  C4  UNL     1      10.960  32.130  22.399  1.00  0.00     0.311 C 
HETATM    2  C5  UNL     1      11.883  31.402  21.516  1.00  0.00     0.259 C 
HETATM    3  O1  UNL     1      12.711  31.761  20.646  1.00  0.00    -0.271 OA
HETATM    4  N2  UNL     1      11.458  30.152  22.042  1.00  0.00    -0.293 N 
HETATM    5  C6  UNL     1      11.718  28.725  22.196  1.00  0.00     0.124 C 
HETATM    6  C8  UNL     1      11.715  28.191  23.402  1.00  0.00     0.008 C 
HETATM    7  C18 UNL     1      11.511  29.128  24.616  1.00  0.00     0.119 C 
HETATM    8  S2  UNL     1      10.123  30.244  24.314  1.00  0.00    -0.136 SA
HETATM    9  C19 UNL     1      10.279  30.777  22.599  1.00  0.00     0.195 C 
ENDROOT
BRANCH   6  10
HETATM   10  C9  UNL     1      11.935  26.831  23.781  1.00  0.00     0.156 C 
BRANCH  10  11
HETATM   11  O4  UNL     1      11.418  26.209  24.874  1.00  0.00    -0.284 OA
BRANCH  11  12
HETATM   12  C10 UNL     1      10.126  25.671  24.791  1.00  0.00     0.345 C 
HETATM   13  O5  UNL     1      10.000  24.479  24.455  1.00  0.00    -0.255 OA
BRANCH  12  14
HETATM   14  C11 UNL     1       8.994  26.529  25.103  1.00  0.00     0.284 C 
HETATM   15  O6  UNL     1       8.796  27.007  26.247  1.00  0.00    -0.274 OA
BRANCH  14  16
HETATM   16  S1  UNL     1       7.824  26.930  23.803  1.00  0.00    -0.076 SA
BRANCH  16  17
HETATM   17  C12 UNL     1       8.558  26.965  22.208  1.00  0.00     0.142 C 
BRANCH  17  18
HETATM   18  C13 UNL     1       7.615  27.109  21.084  1.00  0.00     0.050 A 
HETATM   19  C14 UNL     1       7.377  25.952  20.282  1.00  0.00     0.107 A 
HETATM   20  N3  UNL     1       7.977  24.673  20.426  1.00  0.00    -0.097 NA
HETATM   21  C15 UNL     1       6.458  26.307  19.336  1.00  0.00     0.146 A 
HETATM   22  C16 UNL     1       6.150  27.614  19.551  1.00  0.00     0.207 A 
HETATM   23  N5  UNL     1       6.858  28.090  20.616  1.00  0.00    -0.329 N 
HETATM   24  C17 UNL     1       6.707  29.452  21.094  1.00  0.00     0.158 C 
BRANCH  21  25
HETATM   25  O7  UNL     1       5.934  25.485  18.338  1.00  0.00    -0.355 OA
ATOM     26  H7  UNL     1       5.838  25.702  17.418  1.00  0.00     0.218 HD
ENDBRANCH  21  25
BRANCH  22  27
HETATM   27  O8  UNL     1       5.235  28.363  18.786  1.00  0.00    -0.224 OA
BRANCH  27  28
HETATM   28  N4  UNL     1       3.942  27.912  18.698  1.00  0.00    -0.303 N 
ATOM     29  H42 UNL     1       3.755  26.960  18.383  1.00  0.00     0.184 HD
ATOM     30  H41 UNL     1       3.190  28.551  18.957  1.00  0.00     0.184 HD
ENDBRANCH  27  28
ENDBRANCH  22  27
ENDBRANCH  17  18
ENDBRANCH  16  17
ENDBRANCH  14  16
ENDBRANCH  12  14
ENDBRANCH  11  12
ENDBRANCH  10  11
ENDBRANCH   6  10
BRANCH   5  31
HETATM   31  C7  UNL     1      12.016  28.019  20.963  1.00  0.00     0.227 C 
HETATM   32  O2  UNL     1      11.518  27.004  20.483  1.00  0.00    -0.643 OA
HETATM   33  O3  UNL     1      13.052  28.532  20.122  1.00  0.00    -0.643 OA
ENDBRANCH   5  31
BRANCH   1  34
HETATM   34  N1  UNL     1      11.488  32.694  23.614  1.00  0.00    -0.043 N 
ATOM     35  H12 UNL     1      11.709  31.984  24.312  1.00  0.00     0.279 HD
ATOM     36  H11 UNL     1      10.782  33.200  24.149  1.00  0.00     0.279 HD
BRANCH  34  37
HETATM   37  C3  UNL     1      12.650  33.535  23.276  1.00  0.00     0.311 C 
BRANCH  37  38
HETATM   38  C2  UNL     1      13.593  33.563  24.440  1.00  0.00     0.149 C 
HETATM   39  C1  UNL     1      13.308  32.579  25.528  1.00  0.00     0.037 C 
BRANCH  38  40
HETATM   40  N6  UNL     1      15.021  33.459  24.038  1.00  0.00    -0.242 N 
HETATM   41  N7  UNL     1      15.611  32.324  23.872  1.00  0.00    -0.274 N 
HETATM   42  C21 UNL     1      16.892  32.309  23.508  1.00  0.00     0.162 A 
ATOM     43  H7  UNL     1      15.105  31.451  24.017  1.00  0.00     0.189 HD
HETATM   44  S3  UNL     1      17.261  33.969  23.399  1.00  0.00     0.010 SA
HETATM   45  C22 UNL     1      15.724  34.573  23.835  1.00  0.00     0.308 A 
HETATM   46  O11 UNL     1      15.337  35.796  23.942  1.00  0.00    -0.258 OA
BRANCH  42  47
HETATM   47  N8  UNL     1      17.667  31.264  23.290  1.00  0.00    -0.378 N 
ATOM     48  H82 UNL     1      17.430  30.356  22.892  1.00  0.00     0.158 HD
ATOM     49  H81 UNL     1      18.664  31.167  23.480  1.00  0.00     0.158 HD
ENDBRANCH  42  47
ENDBRANCH  38  40
ENDBRANCH  37  38
BRANCH  37  50
HETATM   50  C20 UNL     1      12.155  34.830  22.817  1.00  0.00     0.207 C 
HETATM   51  O9  UNL     1      11.659  35.707  23.607  1.00  0.00    -0.646 OA
HETATM   52  O10 UNL     1      12.179  35.203  21.490  1.00  0.00    -0.646 OA
ENDBRANCH  37  50
ENDBRANCH  34  37
ENDBRANCH   1  34
TORSDOF 17
ENDMDL
MODEL 5
REMARK VINA RESULT: -8.574887881      2.137      3.199
REMARK  17 active torsions:
REMARK  status: ('A' for Active; 'I' for Inactive)
REMARK    1  A    between atoms: C2_2  and  C3_3 
REMARK    2  A    between atoms: C2_2  and  N6_43 
REMARK    3  A    between atoms: C3_3  and  N1_4 
REMARK    4  A    between atoms: C3_3  and  C20_40 
REMARK    5  A    between atoms: N1_4  and  C4_7 
REMARK    6  A    between atoms: C6_11  and  C7_12 
REMARK    7  A    between atoms: C8_15  and  C9_16 
REMARK    8  A    between atoms: C9_16  and  O4_17 
REMARK    9  A    between atoms: O4_17  and  C10_18 
REMARK   10  A    between atoms: C10_18  and  C11_20 
REMARK   11  A    between atoms: C11_20  and  S1_22 
REMARK   12  A    between atoms: S1_22  and  C12_23 
REMARK   13  A    between atoms: C12_23  and  C13_24 
REMARK   14  A    between atoms: C15_27  and  O7_28 
REMARK   15  A    between atoms: C16_30  and  O8_31 
REMARK   16  A    between atoms: O8_31  and  N4_32 
REMARK   17  A    between atoms: C21_46  and  N8_47 
ROOT
HETATM    1  C4  UNL     1      15.995  29.687  26.181  1.00  0.00     0.311 C 
HETATM    2  C5  UNL     1      16.391  28.303  25.881  1.00  0.00     0.259 C 
HETATM    3  O1  UNL     1      17.304  27.555  26.302  1.00  0.00    -0.271 OA
HETATM    4  N2  UNL     1      15.336  28.167  24.939  1.00  0.00    -0.293 N 
HETATM    5  C6  UNL     1      14.503  27.277  24.139  1.00  0.00     0.124 C 
HETATM    6  C8  UNL     1      13.189  27.376  24.212  1.00  0.00     0.008 C 
HETATM    7  C18 UNL     1      12.588  28.391  25.211  1.00  0.00     0.119 C 
HETATM    8  S2  UNL     1      13.429  29.983  25.063  1.00  0.00    -0.136 SA
HETATM    9  C19 UNL     1      15.182  29.604  24.890  1.00  0.00     0.195 C 
ENDROOT
BRANCH   6  10
HETATM   10  C9  UNL     1      12.193  26.621  23.520  1.00  0.00     0.156 C 
BRANCH  10  11
HETATM   11  O4  UNL     1      12.184  26.331  22.192  1.00  0.00    -0.284 OA
BRANCH  11  12
HETATM   12  C10 UNL     1      11.455  27.159  21.328  1.00  0.00     0.345 C 
HETATM   13  O5  UNL     1      10.361  26.749  20.896  1.00  0.00    -0.255 OA
BRANCH  12  14
HETATM   14  C11 UNL     1      12.008  28.457  20.977  1.00  0.00     0.284 C 
HETATM   15  O6  UNL     1      12.992  28.593  20.209  1.00  0.00    -0.274 OA
BRANCH  14  16
HETATM   16  S1  UNL     1      11.258  29.935  21.665  1.00  0.00    -0.076 SA
BRANCH  16  17
HETATM   17  C12 UNL     1      11.695  31.394  20.791  1.00  0.00     0.142 C 
BRANCH  17  18
HETATM   18  C13 UNL     1      11.671  32.636  21.586  1.00  0.00     0.050 A 
HETATM   19  C14 UNL     1      12.893  33.033  22.209  1.00  0.00     0.107 A 
HETATM   20  N3  UNL     1      14.133  32.342  22.177  1.00  0.00    -0.097 NA
HETATM   21  C15 UNL     1      12.646  34.211  22.853  1.00  0.00     0.146 A 
HETATM   22  C16 UNL     1      11.340  34.519  22.632  1.00  0.00     0.207 A 
HETATM   23  N5  UNL     1      10.758  33.555  21.860  1.00  0.00    -0.329 N 
HETATM   24  C17 UNL     1       9.371  33.637  21.440  1.00  0.00     0.158 C 
BRANCH  21  25
HETATM   25  O7  UNL     1      13.560  34.959  23.596  1.00  0.00    -0.355 OA
ATOM     26  H7  UNL     1      13.370  35.733  24.113  1.00  0.00     0.218 HD
ENDBRANCH  21  25
BRANCH  22  27
HETATM   27  O8  UNL     1      10.685  35.664  23.129  1.00  0.00    -0.224 OA
BRANCH  27  28
HETATM   28  N4  UNL     1      11.226  36.893  22.845  1.00  0.00    -0.303 N 
ATOM     29  H42 UNL     1      12.017  37.238  23.388  1.00  0.00     0.184 HD
ATOM     30  H41 UNL     1      10.816  37.435  22.086  1.00  0.00     0.184 HD
ENDBRANCH  27  28
ENDBRANCH  22  27
ENDBRANCH  17  18
ENDBRANCH  16  17
ENDBRANCH  14  16
ENDBRANCH  12  14
ENDBRANCH  11  12
ENDBRANCH  10  11
ENDBRANCH   6  10
BRANCH   5  31
HETATM   31  C7  UNL     1      15.231  26.298  23.352  1.00  0.00     0.227 C 
HETATM   32  O2  UNL     1      15.608  26.333  22.183  1.00  0.00    -0.643 OA
HETATM   33  O3  UNL     1      15.599  25.065  23.975  1.00  0.00    -0.643 OA
ENDBRANCH   5  31
BRANCH   1  34
HETATM   34  N1  UNL     1      15.193  29.925  27.353  1.00  0.00    -0.043 N 
ATOM     35  H12 UNL     1      15.105  29.097  27.942  1.00  0.00     0.279 HD
ATOM     36  H11 UNL     1      14.204  30.045  27.132  1.00  0.00     0.279 HD
BRANCH  34  37
HETATM   37  C3  UNL     1      15.754  31.078  28.080  1.00  0.00     0.311 C 
BRANCH  37  38
HETATM   38  C2  UNL     1      14.795  31.498  29.152  1.00  0.00     0.149 C 
HETATM   39  C1  UNL     1      13.633  30.585  29.374  1.00  0.00     0.037 C 
BRANCH  38  40
HETATM   40  N6  UNL     1      15.459  31.783  30.451  1.00  0.00    -0.242 N 
HETATM   41  N7  UNL     1      15.553  30.900  31.388  1.00  0.00    -0.274 N 
HETATM   42  C21 UNL     1      16.165  31.226  32.524  1.00  0.00     0.162 A 
ATOM     43  H7  UNL     1      15.164  29.966  31.259  1.00  0.00     0.189 HD
HETATM   44  S3  UNL     1      16.621  32.844  32.243  1.00  0.00     0.010 SA
HETATM   45  C22 UNL     1      15.984  32.989  30.665  1.00  0.00     0.308 A 
HETATM   46  O11 UNL     1      16.004  34.006  29.876  1.00  0.00    -0.258 OA
BRANCH  42  47
HETATM   47  N8  UNL     1      16.362  30.475  33.590  1.00  0.00    -0.378 N 
ATOM     48  H82 UNL     1      15.861  30.471  34.479  1.00  0.00     0.158 HD
ATOM     49  H81 UNL     1      17.062  29.747  33.730  1.00  0.00     0.158 HD
ENDBRANCH  42  47
ENDBRANCH  38  40
ENDBRANCH  37  38
BRANCH  37  50
HETATM   50  C20 UNL     1      16.113  32.100  27.100  1.00  0.00     0.207 C 
HETATM   51  O9  UNL     1      17.324  32.381  26.794  1.00  0.00    -0.646 OA
HETATM   52  O10 UNL     1      15.166  32.848  26.432  1.00  0.00    -0.646 OA
ENDBRANCH  37  50
ENDBRANCH  34  37
ENDBRANCH   1  34
TORSDOF 17
ENDMDL
