MODEL 1
REMARK VINA RESULT: -4.629267347      0.000      0.000
REMARK  8 active torsions:
REMARK  status: ('A' for Active; 'I' for Inactive)
REMARK    1  A    between atoms: C2_2  and  C3_3 
REMARK    2  A    between atoms: C3_3  and  N1_4 
REMARK    3  A    between atoms: C5_6  and  C6_7 
REMARK    4  A    between atoms: C6_7  and  C7_8 
REMARK    5  A    between atoms: C7_8  and  N2_9 
REMARK    6  A    between atoms: C7_8  and  C8_13 
REMARK    7  A    between atoms: C8_13  and  N3_14 
REMARK    8  A    between atoms: C9_18  and  N4_19 
ROOT
HETATM    1  N1  UNL     1       4.620  24.918  24.326  1.00  0.00    -0.298 N 
HETATM    2  C4  UNL     1       4.874  25.925  23.474  1.00  0.00     0.121 A 
HETATM    3  C5  UNL     1       6.215  25.859  23.117  1.00  0.00     0.006 A 
HETATM    4  C9  UNL     1       6.724  24.779  23.793  1.00  0.00     0.121 A 
HETATM    5  N5  UNL     1       5.721  24.213  24.532  1.00  0.00    -0.283 N 
ATOM      6  H5  UNL     1       5.807  23.394  25.135  1.00  0.00     0.189 HD
ENDROOT
BRANCH   3   7
HETATM    7  C6  UNL     1       6.945  26.721  22.164  1.00  0.00     0.078 C 
BRANCH   7   8
HETATM    8  C7  UNL     1       7.823  27.752  22.750  1.00  0.00     0.213 C 
BRANCH   8   9
HETATM    9  N2  UNL     1       8.508  28.436  21.641  1.00  0.00    -0.073 N 
ATOM     10  H23 UNL     1       9.482  28.149  21.540  1.00  0.00     0.274 HD
ATOM     11  H22 UNL     1       8.183  28.130  20.724  1.00  0.00     0.274 HD
ATOM     12  H21 UNL     1       8.403  29.441  21.785  1.00  0.00     0.274 HD
ENDBRANCH   8   9
BRANCH   8  13
HETATM   13  C8  UNL     1       7.101  28.798  23.536  1.00  0.00     0.262 C 
BRANCH  13  14
HETATM   14  N3  UNL     1       8.165  29.654  24.110  1.00  0.00    -0.077 N 
ATOM     15  H33 UNL     1       8.981  29.760  23.506  1.00  0.00     0.274 HD
ATOM     16  H32 UNL     1       7.921  30.644  24.151  1.00  0.00     0.274 HD
ATOM     17  H31 UNL     1       8.376  29.244  25.020  1.00  0.00     0.274 HD
ENDBRANCH  13  14
ENDBRANCH   8  13
ENDBRANCH   7   8
ENDBRANCH   3   7
BRANCH   4  18
HETATM   18  N4  UNL     1       7.916  24.300  23.850  1.00  0.00    -0.384 N 
ATOM     19  H42 UNL     1       8.642  24.660  23.231  1.00  0.00     0.157 HD
ATOM     20  H41 UNL     1       8.312  23.550  24.416  1.00  0.00     0.157 HD
ENDBRANCH   4  18
BRANCH   1  21
HETATM   21  C3  UNL     1       3.372  24.588  24.950  1.00  0.00     0.175 C 
BRANCH  21  22
HETATM   22  C2  UNL     1       3.411  23.268  25.641  1.00  0.00    -0.015 C 
HETATM   23  C1  UNL     1       3.191  23.114  26.938  1.00  0.00     0.008 C 
ENDBRANCH  21  22
ENDBRANCH   1  21
TORSDOF 8
ENDMDL
MODEL 2
REMARK VINA RESULT: -4.325062226      2.316      3.405
REMARK  8 active torsions:
REMARK  status: ('A' for Active; 'I' for Inactive)
REMARK    1  A    between atoms: C2_2  and  C3_3 
REMARK    2  A    between atoms: C3_3  and  N1_4 
REMARK    3  A    between atoms: C5_6  and  C6_7 
REMARK    4  A    between atoms: C6_7  and  C7_8 
REMARK    5  A    between atoms: C7_8  and  N2_9 
REMARK    6  A    between atoms: C7_8  and  C8_13 
REMARK    7  A    between atoms: C8_13  and  N3_14 
REMARK    8  A    between atoms: C9_18  and  N4_19 
ROOT
HETATM    1  N1  UNL     1       4.721  27.505  25.445  1.00  0.00    -0.298 N 
HETATM    2  C4  UNL     1       5.778  27.426  24.619  1.00  0.00     0.121 A 
HETATM    3  C5  UNL     1       6.203  28.719  24.339  1.00  0.00     0.006 A 
HETATM    4  C9  UNL     1       5.354  29.545  25.033  1.00  0.00     0.121 A 
HETATM    5  N5  UNL     1       4.448  28.773  25.709  1.00  0.00    -0.283 N 
ATOM      6  H5  UNL     1       3.696  29.114  26.309  1.00  0.00     0.189 HD
ENDROOT
BRANCH   3   7
HETATM    7  C6  UNL     1       7.359  29.139  23.522  1.00  0.00     0.078 C 
BRANCH   7   8
HETATM    8  C7  UNL     1       8.204  28.060  22.975  1.00  0.00     0.213 C 
BRANCH   8   9
HETATM    9  N2  UNL     1       7.628  27.654  21.683  1.00  0.00    -0.073 N 
ATOM     10  H23 UNL     1       6.835  27.021  21.783  1.00  0.00     0.274 HD
ATOM     11  H22 UNL     1       7.135  28.413  21.211  1.00  0.00     0.274 HD
ATOM     12  H21 UNL     1       8.381  27.260  21.118  1.00  0.00     0.274 HD
ENDBRANCH   8   9
BRANCH   8  13
HETATM   13  C8  UNL     1       9.621  28.460  22.721  1.00  0.00     0.262 C 
BRANCH  13  14
HETATM   14  N3  UNL     1       9.690  28.746  21.269  1.00  0.00    -0.077 N 
ATOM     15  H33 UNL     1      10.333  28.141  20.759  1.00  0.00     0.274 HD
ATOM     16  H32 UNL     1       8.848  28.481  20.756  1.00  0.00     0.274 HD
ATOM     17  H31 UNL     1       9.916  29.739  21.204  1.00  0.00     0.274 HD
ENDBRANCH  13  14
ENDBRANCH   8  13
ENDBRANCH   7   8
ENDBRANCH   3   7
BRANCH   4  18
HETATM   18  N4  UNL     1       5.278  30.826  25.092  1.00  0.00    -0.384 N 
ATOM     19  H42 UNL     1       4.771  31.343  24.373  1.00  0.00     0.157 HD
ATOM     20  H41 UNL     1       5.681  31.494  25.750  1.00  0.00     0.157 HD
ENDBRANCH   4  18
BRANCH   1  21
HETATM   21  C3  UNL     1       3.960  26.425  26.005  1.00  0.00     0.175 C 
BRANCH  21  22
HETATM   22  C2  UNL     1       4.362  25.099  25.455  1.00  0.00    -0.015 C 
HETATM   23  C1  UNL     1       3.987  23.944  25.983  1.00  0.00     0.008 C 
ENDBRANCH  21  22
ENDBRANCH   1  21
TORSDOF 8
ENDMDL
MODEL 3
REMARK VINA RESULT: -4.323597163      3.197      4.885
REMARK  8 active torsions:
REMARK  status: ('A' for Active; 'I' for Inactive)
REMARK    1  A    between atoms: C2_2  and  C3_3 
REMARK    2  A    between atoms: C3_3  and  N1_4 
REMARK    3  A    between atoms: C5_6  and  C6_7 
REMARK    4  A    between atoms: C6_7  and  C7_8 
REMARK    5  A    between atoms: C7_8  and  N2_9 
REMARK    6  A    between atoms: C7_8  and  C8_13 
REMARK    7  A    between atoms: C8_13  and  N3_14 
REMARK    8  A    between atoms: C9_18  and  N4_19 
ROOT
HETATM    1  N1  UNL     1       4.999  30.368  25.201  1.00  0.00    -0.298 N 
HETATM    2  C4  UNL     1       6.183  30.394  24.566  1.00  0.00     0.121 A 
HETATM    3  C5  UNL     1       6.579  29.081  24.341  1.00  0.00     0.006 A 
HETATM    4  C9  UNL     1       5.582  28.299  24.870  1.00  0.00     0.121 A 
HETATM    5  N5  UNL     1       4.617  29.116  25.394  1.00  0.00    -0.283 N 
ATOM      6  H5  UNL     1       3.758  28.813  25.853  1.00  0.00     0.189 HD
ENDROOT
BRANCH   3   7
HETATM    7  C6  UNL     1       7.783  28.604  23.631  1.00  0.00     0.078 C 
BRANCH   7   8
HETATM    8  C7  UNL     1       7.599  28.197  22.225  1.00  0.00     0.213 C 
BRANCH   8   9
HETATM    9  N2  UNL     1       8.828  28.549  21.495  1.00  0.00    -0.073 N 
ATOM     10  H23 UNL     1       8.658  29.187  20.717  1.00  0.00     0.274 HD
ATOM     11  H22 UNL     1       9.449  29.154  22.031  1.00  0.00     0.274 HD
ATOM     12  H21 UNL     1       9.275  27.679  21.204  1.00  0.00     0.274 HD
ENDBRANCH   8   9
BRANCH   8  13
HETATM   13  C8  UNL     1       7.376  26.732  22.034  1.00  0.00     0.262 C 
BRANCH  13  14
HETATM   14  N3  UNL     1       6.437  26.629  20.892  1.00  0.00    -0.077 N 
ATOM     15  H33 UNL     1       5.559  26.164  21.121  1.00  0.00     0.274 HD
ATOM     16  H32 UNL     1       6.028  27.521  20.612  1.00  0.00     0.274 HD
ATOM     17  H31 UNL     1       6.967  26.169  20.152  1.00  0.00     0.274 HD
ENDBRANCH  13  14
ENDBRANCH   8  13
ENDBRANCH   7   8
ENDBRANCH   3   7
BRANCH   4  18
HETATM   18  N4  UNL     1       5.468  27.023  24.966  1.00  0.00    -0.384 N 
ATOM     19  H42 UNL     1       6.239  26.466  25.335  1.00  0.00     0.157 HD
ATOM     20  H41 UNL     1       4.710  26.394  24.699  1.00  0.00     0.157 HD
ENDBRANCH   4  18
BRANCH   1  21
HETATM   21  C3  UNL     1       4.206  31.485  25.628  1.00  0.00     0.175 C 
BRANCH  21  22
HETATM   22  C2  UNL     1       2.808  31.096  25.965  1.00  0.00    -0.015 C 
HETATM   23  C1  UNL     1       2.287  31.215  27.178  1.00  0.00     0.008 C 
ENDBRANCH  21  22
ENDBRANCH   1  21
TORSDOF 8
ENDMDL
MODEL 4
REMARK VINA RESULT: -4.177531649      1.775      5.232
REMARK  8 active torsions:
REMARK  status: ('A' for Active; 'I' for Inactive)
REMARK    1  A    between atoms: C2_2  and  C3_3 
REMARK    2  A    between atoms: C3_3  and  N1_4 
REMARK    3  A    between atoms: C5_6  and  C6_7 
REMARK    4  A    between atoms: C6_7  and  C7_8 
REMARK    5  A    between atoms: C7_8  and  N2_9 
REMARK    6  A    between atoms: C7_8  and  C8_13 
REMARK    7  A    between atoms: C8_13  and  N3_14 
REMARK    8  A    between atoms: C9_18  and  N4_19 
ROOT
HETATM    1  N1  UNL     1       6.858  26.906  23.277  1.00  0.00    -0.298 N 
HETATM    2  C4  UNL     1       5.661  26.603  23.805  1.00  0.00     0.121 A 
HETATM    3  C5  UNL     1       5.668  25.256  24.144  1.00  0.00     0.006 A 
HETATM    4  C9  UNL     1       6.912  24.794  23.791  1.00  0.00     0.121 A 
HETATM    5  N5  UNL     1       7.629  25.831  23.259  1.00  0.00    -0.283 N 
ATOM      6  H5  UNL     1       8.587  25.783  22.910  1.00  0.00     0.189 HD
ENDROOT
BRANCH   3   7
HETATM    7  C6  UNL     1       4.599  24.479  24.803  1.00  0.00     0.078 C 
BRANCH   7   8
HETATM    8  C7  UNL     1       3.797  25.190  25.816  1.00  0.00     0.213 C 
BRANCH   8   9
HETATM    9  N2  UNL     1       2.410  25.248  25.327  1.00  0.00    -0.073 N 
ATOM     10  H23 UNL     1       2.239  26.043  24.711  1.00  0.00     0.274 HD
ATOM     11  H22 UNL     1       2.194  24.510  24.657  1.00  0.00     0.274 HD
ATOM     12  H21 UNL     1       1.794  25.237  26.141  1.00  0.00     0.274 HD
ENDBRANCH   8   9
BRANCH   8  13
HETATM   13  C8  UNL     1       3.767  24.525  27.153  1.00  0.00     0.262 C 
BRANCH  13  14
HETATM   14  N3  UNL     1       3.810  25.631  28.138  1.00  0.00    -0.077 N 
ATOM     15  H33 UNL     1       4.374  25.427  28.963  1.00  0.00     0.274 HD
ATOM     16  H32 UNL     1       4.347  26.441  27.826  1.00  0.00     0.274 HD
ATOM     17  H31 UNL     1       2.834  25.840  28.347  1.00  0.00     0.274 HD
ENDBRANCH  13  14
ENDBRANCH   8  13
ENDBRANCH   7   8
ENDBRANCH   3   7
BRANCH   4  18
HETATM   18  N4  UNL     1       7.427  23.618  23.851  1.00  0.00    -0.384 N 
ATOM     19  H42 UNL     1       8.410  23.502  24.096  1.00  0.00     0.157 HD
ATOM     20  H41 UNL     1       7.029  22.699  23.657  1.00  0.00     0.157 HD
ENDBRANCH   4  18
BRANCH   1  21
HETATM   21  C3  UNL     1       7.309  28.179  22.792  1.00  0.00     0.175 C 
BRANCH  21  22
HETATM   22  C2  UNL     1       7.661  29.117  23.895  1.00  0.00    -0.015 C 
HETATM   23  C1  UNL     1       6.856  30.079  24.323  1.00  0.00     0.008 C 
ENDBRANCH  21  22
ENDBRANCH   1  21
TORSDOF 8
ENDMDL
MODEL 5
REMARK VINA RESULT: -4.157415201      1.697      2.509
REMARK  8 active torsions:
REMARK  status: ('A' for Active; 'I' for Inactive)
REMARK    1  A    between atoms: C2_2  and  C3_3 
REMARK    2  A    between atoms: C3_3  and  N1_4 
REMARK    3  A    between atoms: C5_6  and  C6_7 
REMARK    4  A    between atoms: C6_7  and  C7_8 
REMARK    5  A    between atoms: C7_8  and  N2_9 
REMARK    6  A    between atoms: C7_8  and  C8_13 
REMARK    7  A    between atoms: C8_13  and  N3_14 
REMARK    8  A    between atoms: C9_18  and  N4_19 
ROOT
HETATM    1  N1  UNL     1       4.670  25.391  25.168  1.00  0.00    -0.298 N 
HETATM    2  C4  UNL     1       5.581  25.797  24.268  1.00  0.00     0.121 A 
HETATM    3  C5  UNL     1       5.635  27.184  24.306  1.00  0.00     0.006 A 
HETATM    4  C9  UNL     1       4.722  27.564  25.258  1.00  0.00     0.121 A 
HETATM    5  N5  UNL     1       4.139  26.439  25.777  1.00  0.00    -0.283 N 
ATOM      6  H5  UNL     1       3.424  26.414  26.504  1.00  0.00     0.189 HD
ENDROOT
BRANCH   3   7
HETATM    7  C6  UNL     1       6.523  28.081  23.538  1.00  0.00     0.078 C 
BRANCH   7   8
HETATM    8  C7  UNL     1       7.655  27.444  22.838  1.00  0.00     0.213 C 
BRANCH   8   9
HETATM    9  N2  UNL     1       7.242  27.207  21.445  1.00  0.00    -0.073 N 
ATOM     10  H23 UNL     1       7.519  27.961  20.816  1.00  0.00     0.274 HD
ATOM     11  H22 UNL     1       7.769  26.458  20.996  1.00  0.00     0.274 HD
ATOM     12  H21 UNL     1       6.236  27.039  21.444  1.00  0.00     0.274 HD
ENDBRANCH   8   9
BRANCH   8  13
HETATM   13  C8  UNL     1       8.897  28.274  22.796  1.00  0.00     0.262 C 
BRANCH  13  14
HETATM   14  N3  UNL     1       9.067  28.646  21.372  1.00  0.00    -0.077 N 
ATOM     15  H33 UNL     1       8.595  29.512  21.113  1.00  0.00     0.274 HD
ATOM     16  H32 UNL     1      10.012  28.951  21.136  1.00  0.00     0.274 HD
ATOM     17  H31 UNL     1       8.753  27.831  20.844  1.00  0.00     0.274 HD
ENDBRANCH  13  14
ENDBRANCH   8  13
ENDBRANCH   7   8
ENDBRANCH   3   7
BRANCH   4  18
HETATM   18  N4  UNL     1       4.348  28.726  25.658  1.00  0.00    -0.384 N 
ATOM     19  H42 UNL     1       4.950  29.537  25.509  1.00  0.00     0.157 HD
ATOM     20  H41 UNL     1       3.516  29.027  26.166  1.00  0.00     0.157 HD
ENDBRANCH   4  18
BRANCH   1  21
HETATM   21  C3  UNL     1       4.282  24.046  25.482  1.00  0.00     0.175 C 
BRANCH  21  22
HETATM   22  C2  UNL     1       3.592  23.944  26.799  1.00  0.00    -0.015 C 
HETATM   23  C1  UNL     1       3.160  22.802  27.312  1.00  0.00     0.008 C 
ENDBRANCH  21  22
ENDBRANCH   1  21
TORSDOF 8
ENDMDL
