MODEL 1
REMARK VINA RESULT: -4.663719041      0.000      0.000
REMARK  6 active torsions:
REMARK  status: ('A' for Active; 'I' for Inactive)
REMARK    1  A    between atoms: C2_2  and  C3_3 
REMARK    2  A    between atoms: C3_3  and  N1_4 
REMARK    3  A    between atoms: C3_3  and  C5_16 
REMARK       I    between atoms: N1_4  and  C4_7 
REMARK       I    between atoms: C4_7  and  N2_8 
REMARK       I    between atoms: C4_7  and  N3_12 
REMARK    4  A    between atoms: C5_16  and  O1_17 
REMARK    5  A    between atoms: C5_16  and  O2_19 
REMARK    6  A    between atoms: O2_19  and  C6_20 
ROOT
HETATM    1  N1  UNL     1       8.309  28.537  21.800  1.00  0.00    -0.010 N 
ATOM      2  H11 UNL     1       7.993  29.498  21.662  1.00  0.00     0.282 HD
ATOM      3  H12 UNL     1       7.871  28.114  20.981  1.00  0.00     0.282 HD
HETATM    4  C4  UNL     1       9.748  28.433  21.754  1.00  0.00     0.576 C 
HETATM    5  N2  UNL     1      10.270  29.004  20.501  1.00  0.00    -0.026 N 
ATOM      6  H21 UNL     1      11.287  28.930  20.469  1.00  0.00     0.278 HD
ATOM      7  H22 UNL     1       9.956  29.965  20.364  1.00  0.00     0.278 HD
ATOM      8  H23 UNL     1       9.834  28.582  19.681  1.00  0.00     0.278 HD
HETATM    9  N3  UNL     1      10.445  29.067  22.819  1.00  0.00    -0.026 N 
ATOM     10  H31 UNL     1      11.461  28.993  22.786  1.00  0.00     0.278 HD
ATOM     11  H32 UNL     1      10.098  28.724  23.714  1.00  0.00     0.278 HD
ATOM     12  H33 UNL     1      10.168  30.048  22.880  1.00  0.00     0.278 HD
ENDROOT
BRANCH   1  13
HETATM   13  C3  UNL     1       7.806  27.977  23.025  1.00  0.00     0.267 C 
BRANCH  13  14
HETATM   14  C2  UNL     1       6.855  28.812  23.751  1.00  0.00     0.001 C 
HETATM   15  C1  UNL     1       7.223  29.914  24.421  1.00  0.00     0.009 C 
ENDBRANCH  13  14
BRANCH  13  16
HETATM   16  C5  UNL     1       7.254  26.576  22.825  1.00  0.00     0.291 C 
BRANCH  16  17
HETATM   17  O1  UNL     1       6.386  26.538  21.739  1.00  0.00    -0.369 OA
ATOM     18  H1  UNL     1       6.847  26.288  20.948  1.00  0.00     0.212 HD
ENDBRANCH  16  17
BRANCH  16  19
HETATM   19  O2  UNL     1       6.494  26.270  23.955  1.00  0.00    -0.354 OA
BRANCH  19  20
HETATM   20  C6  UNL     1       5.348  25.570  23.691  1.00  0.00     0.124 A 
HETATM   21  C7  UNL     1       4.906  24.606  24.806  1.00  0.00     0.034 A 
HETATM   22  C8  UNL     1       4.086  25.804  24.428  1.00  0.00     0.034 A 
ENDBRANCH  19  20
ENDBRANCH  16  19
ENDBRANCH  13  16
ENDBRANCH   1  13
TORSDOF 6
ENDMDL
MODEL 2
REMARK VINA RESULT: -4.628072658      1.295      1.681
REMARK  6 active torsions:
REMARK  status: ('A' for Active; 'I' for Inactive)
REMARK    1  A    between atoms: C2_2  and  C3_3 
REMARK    2  A    between atoms: C3_3  and  N1_4 
REMARK    3  A    between atoms: C3_3  and  C5_16 
REMARK       I    between atoms: N1_4  and  C4_7 
REMARK       I    between atoms: C4_7  and  N2_8 
REMARK       I    between atoms: C4_7  and  N3_12 
REMARK    4  A    between atoms: C5_16  and  O1_17 
REMARK    5  A    between atoms: C5_16  and  O2_19 
REMARK    6  A    between atoms: O2_19  and  C6_20 
ROOT
HETATM    1  N1  UNL     1       7.738  29.135  22.478  1.00  0.00    -0.010 N 
ATOM      2  H11 UNL     1       7.873  30.133  22.319  1.00  0.00     0.282 HD
ATOM      3  H12 UNL     1       7.083  28.947  21.718  1.00  0.00     0.282 HD
HETATM    4  C4  UNL     1       8.966  28.394  22.323  1.00  0.00     0.576 C 
HETATM    5  N2  UNL     1       9.570  28.659  21.006  1.00  0.00    -0.026 N 
ATOM      6  H21 UNL     1      10.438  28.136  20.897  1.00  0.00     0.278 HD
ATOM      7  H22 UNL     1       9.707  29.657  20.847  1.00  0.00     0.278 HD
ATOM      8  H23 UNL     1       8.917  28.471  20.245  1.00  0.00     0.278 HD
HETATM    9  N3  UNL     1       9.969  28.657  23.296  1.00  0.00    -0.026 N 
ATOM     10  H31 UNL     1      10.838  28.133  23.187  1.00  0.00     0.278 HD
ATOM     11  H32 UNL     1       9.591  28.513  24.233  1.00  0.00     0.278 HD
ATOM     12  H33 UNL     1      10.167  29.657  23.331  1.00  0.00     0.278 HD
ENDROOT
BRANCH   1  13
HETATM   13  C3  UNL     1       7.154  28.871  23.765  1.00  0.00     0.267 C 
BRANCH  13  14
HETATM   14  C2  UNL     1       6.602  30.034  24.453  1.00  0.00     0.001 C 
HETATM   15  C1  UNL     1       7.361  30.883  25.163  1.00  0.00     0.009 C 
ENDBRANCH  13  14
BRANCH  13  16
HETATM   16  C5  UNL     1       6.138  27.743  23.708  1.00  0.00     0.291 C 
BRANCH  16  17
HETATM   17  O1  UNL     1       5.091  27.977  24.593  1.00  0.00    -0.369 OA
ATOM     18  H1  UNL     1       5.414  28.067  25.481  1.00  0.00     0.212 HD
ENDBRANCH  16  17
BRANCH  16  19
HETATM   19  O2  UNL     1       6.784  26.587  24.150  1.00  0.00    -0.354 OA
BRANCH  19  20
HETATM   20  C6  UNL     1       6.354  25.436  23.549  1.00  0.00     0.124 A 
HETATM   21  C7  UNL     1       7.188  24.184  23.874  1.00  0.00     0.034 A 
HETATM   22  C8  UNL     1       5.759  24.315  24.311  1.00  0.00     0.034 A 
ENDBRANCH  19  20
ENDBRANCH  16  19
ENDBRANCH  13  16
ENDBRANCH   1  13
TORSDOF 6
ENDMDL
MODEL 3
REMARK VINA RESULT: -4.355977343      2.540      4.445
REMARK  6 active torsions:
REMARK  status: ('A' for Active; 'I' for Inactive)
REMARK    1  A    between atoms: C2_2  and  C3_3 
REMARK    2  A    between atoms: C3_3  and  N1_4 
REMARK    3  A    between atoms: C3_3  and  C5_16 
REMARK       I    between atoms: N1_4  and  C4_7 
REMARK       I    between atoms: C4_7  and  N2_8 
REMARK       I    between atoms: C4_7  and  N3_12 
REMARK    4  A    between atoms: C5_16  and  O1_17 
REMARK    5  A    between atoms: C5_16  and  O2_19 
REMARK    6  A    between atoms: O2_19  and  C6_20 
ROOT
HETATM    1  N1  UNL     1       6.825  26.297  21.080  1.00  0.00    -0.010 N 
ATOM      2  H11 UNL     1       7.125  25.354  20.832  1.00  0.00     0.282 HD
ATOM      3  H12 UNL     1       7.567  26.820  20.613  1.00  0.00     0.282 HD
HETATM    4  C4  UNL     1       5.525  26.608  20.538  1.00  0.00     0.576 C 
HETATM    5  N2  UNL     1       5.505  26.396  19.081  1.00  0.00    -0.026 N 
ATOM      6  H21 UNL     1       4.586  26.616  18.698  1.00  0.00     0.278 HD
ATOM      7  H22 UNL     1       5.804  25.453  18.833  1.00  0.00     0.278 HD
ATOM      8  H23 UNL     1       6.245  26.919  18.612  1.00  0.00     0.278 HD
HETATM    9  N3  UNL     1       4.440  25.864  21.078  1.00  0.00    -0.026 N 
ATOM     10  H31 UNL     1       3.521  26.083  20.695  1.00  0.00     0.278 HD
ATOM     11  H32 UNL     1       4.426  25.956  22.093  1.00  0.00     0.278 HD
ATOM     12  H33 UNL     1       4.625  24.864  20.988  1.00  0.00     0.278 HD
ENDROOT
BRANCH   1  13
HETATM   13  C3  UNL     1       6.837  26.506  22.503  1.00  0.00     0.267 C 
BRANCH  13  14
HETATM   14  C2  UNL     1       7.269  25.363  23.301  1.00  0.00     0.001 C 
HETATM   15  C1  UNL     1       6.420  24.636  24.041  1.00  0.00     0.009 C 
ENDBRANCH  13  14
BRANCH  13  16
HETATM   16  C5  UNL     1       7.610  27.757  22.887  1.00  0.00     0.291 C 
BRANCH  16  17
HETATM   17  O1  UNL     1       8.892  27.433  23.316  1.00  0.00    -0.369 OA
ATOM     18  H1  UNL     1       9.527  28.053  22.980  1.00  0.00     0.212 HD
ENDBRANCH  16  17
BRANCH  16  19
HETATM   19  O2  UNL     1       6.953  28.324  23.980  1.00  0.00    -0.354 OA
BRANCH  19  20
HETATM   20  C6  UNL     1       6.919  29.692  23.970  1.00  0.00     0.124 A 
HETATM   21  C7  UNL     1       5.812  30.319  24.836  1.00  0.00     0.034 A 
HETATM   22  C8  UNL     1       7.266  30.506  25.158  1.00  0.00     0.034 A 
ENDBRANCH  19  20
ENDBRANCH  16  19
ENDBRANCH  13  16
ENDBRANCH   1  13
TORSDOF 6
ENDMDL
MODEL 4
REMARK VINA RESULT: -4.250220081      1.840      2.711
REMARK  6 active torsions:
REMARK  status: ('A' for Active; 'I' for Inactive)
REMARK    1  A    between atoms: C2_2  and  C3_3 
REMARK    2  A    between atoms: C3_3  and  N1_4 
REMARK    3  A    between atoms: C3_3  and  C5_16 
REMARK       I    between atoms: N1_4  and  C4_7 
REMARK       I    between atoms: C4_7  and  N2_8 
REMARK       I    between atoms: C4_7  and  N3_12 
REMARK    4  A    between atoms: C5_16  and  O1_17 
REMARK    5  A    between atoms: C5_16  and  O2_19 
REMARK    6  A    between atoms: O2_19  and  C6_20 
ROOT
HETATM    1  N1  UNL     1       7.503  27.344  21.547  1.00  0.00    -0.010 N 
ATOM      2  H11 UNL     1       7.263  27.886  20.717  1.00  0.00     0.282 HD
ATOM      3  H12 UNL     1       8.079  26.629  21.100  1.00  0.00     0.282 HD
HETATM    4  C4  UNL     1       8.257  28.124  22.499  1.00  0.00     0.576 C 
HETATM    5  N2  UNL     1       9.452  28.705  21.863  1.00  0.00    -0.026 N 
ATOM      6  H21 UNL     1       9.984  29.256  22.536  1.00  0.00     0.278 HD
ATOM      7  H22 UNL     1       9.212  29.249  21.034  1.00  0.00     0.278 HD
ATOM      8  H23 UNL     1      10.029  27.992  21.417  1.00  0.00     0.278 HD
HETATM    9  N3  UNL     1       7.552  29.196  23.111  1.00  0.00    -0.026 N 
ATOM     10  H31 UNL     1       8.085  29.747  23.784  1.00  0.00     0.278 HD
ATOM     11  H32 UNL     1       6.697  28.848  23.544  1.00  0.00     0.278 HD
ATOM     12  H33 UNL     1       7.157  29.807  22.395  1.00  0.00     0.278 HD
ENDROOT
BRANCH   1  13
HETATM   13  C3  UNL     1       6.339  26.779  22.174  1.00  0.00     0.267 C 
BRANCH  13  14
HETATM   14  C2  UNL     1       5.390  26.138  21.270  1.00  0.00     0.001 C 
HETATM   15  C1  UNL     1       5.340  26.414  19.958  1.00  0.00     0.009 C 
ENDBRANCH  13  14
BRANCH  13  16
HETATM   16  C5  UNL     1       6.705  25.852  23.321  1.00  0.00     0.291 C 
BRANCH  16  17
HETATM   17  O1  UNL     1       5.887  24.727  23.326  1.00  0.00    -0.369 OA
ATOM     18  H1  UNL     1       6.361  23.965  23.016  1.00  0.00     0.212 HD
ENDBRANCH  16  17
BRANCH  16  19
HETATM   19  O2  UNL     1       6.442  26.542  24.505  1.00  0.00    -0.354 OA
BRANCH  19  20
HETATM   20  C6  UNL     1       5.141  26.942  24.648  1.00  0.00     0.124 A 
HETATM   21  C7  UNL     1       4.580  26.828  26.076  1.00  0.00     0.034 A 
HETATM   22  C8  UNL     1       4.760  28.157  25.404  1.00  0.00     0.034 A 
ENDBRANCH  19  20
ENDBRANCH  16  19
ENDBRANCH  13  16
ENDBRANCH   1  13
TORSDOF 6
ENDMDL
MODEL 5
REMARK VINA RESULT: -4.206400316      2.795      3.929
REMARK  6 active torsions:
REMARK  status: ('A' for Active; 'I' for Inactive)
REMARK    1  A    between atoms: C2_2  and  C3_3 
REMARK    2  A    between atoms: C3_3  and  N1_4 
REMARK    3  A    between atoms: C3_3  and  C5_16 
REMARK       I    between atoms: N1_4  and  C4_7 
REMARK       I    between atoms: C4_7  and  N2_8 
REMARK       I    between atoms: C4_7  and  N3_12 
REMARK    4  A    between atoms: C5_16  and  O1_17 
REMARK    5  A    between atoms: C5_16  and  O2_19 
REMARK    6  A    between atoms: O2_19  and  C6_20 
ROOT
HETATM    1  N1  UNL     1       6.402  27.593  23.755  1.00  0.00    -0.010 N 
ATOM      2  H11 UNL     1       6.640  27.405  24.729  1.00  0.00     0.282 HD
ATOM      3  H12 UNL     1       5.475  27.995  23.900  1.00  0.00     0.282 HD
HETATM    4  C4  UNL     1       7.309  28.539  23.151  1.00  0.00     0.576 C 
HETATM    5  N2  UNL     1       7.372  29.777  23.946  1.00  0.00    -0.026 N 
ATOM      6  H21 UNL     1       8.014  30.446  23.519  1.00  0.00     0.278 HD
ATOM      7  H22 UNL     1       7.612  29.590  24.919  1.00  0.00     0.278 HD
ATOM      8  H23 UNL     1       6.447  30.181  24.092  1.00  0.00     0.278 HD
HETATM    9  N3  UNL     1       8.647  28.087  22.986  1.00  0.00    -0.026 N 
ATOM     10  H31 UNL     1       9.289  28.756  22.559  1.00  0.00     0.278 HD
ATOM     11  H32 UNL     1       8.657  27.212  22.462  1.00  0.00     0.278 HD
ATOM     12  H33 UNL     1       9.021  27.768  23.880  1.00  0.00     0.278 HD
ENDROOT
BRANCH   1  13
HETATM   13  C3  UNL     1       6.345  26.387  22.974  1.00  0.00     0.267 C 
BRANCH  13  14
HETATM   14  C2  UNL     1       6.487  25.145  23.728  1.00  0.00     0.001 C 
HETATM   15  C1  UNL     1       7.627  24.438  23.750  1.00  0.00     0.009 C 
ENDBRANCH  13  14
BRANCH  13  16
HETATM   16  C5  UNL     1       5.114  26.343  22.085  1.00  0.00     0.291 C 
BRANCH  16  17
HETATM   17  O1  UNL     1       4.192  25.419  22.565  1.00  0.00    -0.369 OA
ATOM     18  H1  UNL     1       3.467  25.857  22.992  1.00  0.00     0.212 HD
ENDBRANCH  16  17
BRANCH  16  19
HETATM   19  O2  UNL     1       5.528  25.881  20.834  1.00  0.00    -0.354 OA
BRANCH  19  20
HETATM   20  C6  UNL     1       4.724  26.266  19.796  1.00  0.00     0.124 A 
HETATM   21  C7  UNL     1       5.176  25.775  18.410  1.00  0.00     0.034 A 
HETATM   22  C8  UNL     1       3.895  25.307  19.034  1.00  0.00     0.034 A 
ENDBRANCH  19  20
ENDBRANCH  16  19
ENDBRANCH  13  16
ENDBRANCH   1  13
TORSDOF 6
ENDMDL
