MODEL 1
REMARK VINA RESULT: -3.832719203      0.000      0.000
REMARK  7 active torsions:
REMARK  status: ('A' for Active; 'I' for Inactive)
REMARK    1  A    between atoms: N1_1  and  C1_5 
REMARK    2  A    between atoms: C1_5  and  C2_6 
REMARK    3  A    between atoms: C2_6  and  C3_7 
REMARK    4  A    between atoms: C3_7  and  C4_8 
REMARK    5  A    between atoms: C4_8  and  N2_9 
REMARK    6  A    between atoms: N2_9  and  C5_11 
REMARK    7  A    between atoms: C9_18  and  N4_19 
ROOT
HETATM    1  C5  UNL     1       3.889  25.864  24.793  1.00  0.00     0.136 C 
HETATM    2  C6  UNL     1       2.663  26.031  25.652  1.00  0.00     0.259 C 
HETATM    3  N3  UNL     1       3.086  25.894  27.016  1.00  0.00    -0.073 N 
ATOM      4  H31 UNL     1       2.286  25.930  27.649  1.00  0.00     0.277 HD
ATOM      5  H32 UNL     1       3.584  26.728  27.326  1.00  0.00     0.277 HD
HETATM    6  C7  UNL     1       3.865  24.721  27.250  1.00  0.00     0.234 C 
HETATM    7  C8  UNL     1       3.774  23.780  26.095  1.00  0.00     0.062 C 
HETATM    8  C9  UNL     1       4.202  24.360  24.777  1.00  0.00     0.209 C 
ENDROOT
BRANCH   1   9
HETATM    9  N2  UNL     1       5.003  26.609  25.154  1.00  0.00    -0.394 N 
ATOM     10  H2  UNL     1       5.459  26.363  26.033  1.00  0.00     0.159 HD
BRANCH   9  11
HETATM   11  C4  UNL     1       5.554  27.655  24.432  1.00  0.00     0.056 C 
BRANCH  11  12
HETATM   12  C3  UNL     1       5.732  28.998  25.076  1.00  0.00     0.046 C 
BRANCH  12  13
HETATM   13  C2  UNL     1       6.886  29.722  24.334  1.00  0.00     0.032 C 
BRANCH  13  14
HETATM   14  C1  UNL     1       7.487  28.771  23.309  1.00  0.00     0.230 C 
BRANCH  14  15
HETATM   15  N1  UNL     1       8.938  28.823  23.374  1.00  0.00    -0.079 N 
ATOM     16  H13 UNL     1       9.270  29.052  24.310  1.00  0.00     0.274 HD
ATOM     17  H12 UNL     1       9.357  27.897  23.289  1.00  0.00     0.274 HD
ATOM     18  H11 UNL     1       9.296  29.471  22.672  1.00  0.00     0.274 HD
ENDBRANCH  14  15
ENDBRANCH  13  14
ENDBRANCH  12  13
ENDBRANCH  11  12
ENDBRANCH   9  11
ENDBRANCH   1   9
BRANCH   8  19
HETATM   19  N4  UNL     1       5.586  24.097  24.553  1.00  0.00    -0.073 N 
ATOM     20  H43 UNL     1       6.166  24.869  24.882  1.00  0.00     0.274 HD
ATOM     21  H42 UNL     1       5.926  23.362  25.173  1.00  0.00     0.274 HD
ATOM     22  H41 UNL     1       5.786  23.876  23.578  1.00  0.00     0.274 HD
ENDBRANCH   8  19
TORSDOF 7
ENDMDL
MODEL 2
REMARK VINA RESULT: -3.706525239      0.990      1.155
REMARK  7 active torsions:
REMARK  status: ('A' for Active; 'I' for Inactive)
REMARK    1  A    between atoms: N1_1  and  C1_5 
REMARK    2  A    between atoms: C1_5  and  C2_6 
REMARK    3  A    between atoms: C2_6  and  C3_7 
REMARK    4  A    between atoms: C3_7  and  C4_8 
REMARK    5  A    between atoms: C4_8  and  N2_9 
REMARK    6  A    between atoms: N2_9  and  C5_11 
REMARK    7  A    between atoms: C9_18  and  N4_19 
ROOT
HETATM    1  C5  UNL     1       3.265  25.576  25.448  1.00  0.00     0.136 C 
HETATM    2  C6  UNL     1       2.084  25.418  26.370  1.00  0.00     0.259 C 
HETATM    3  N3  UNL     1       2.604  25.048  27.656  1.00  0.00    -0.073 N 
ATOM      4  H31 UNL     1       1.846  24.859  28.312  1.00  0.00     0.277 HD
ATOM      5  H32 UNL     1       3.031  25.850  28.118  1.00  0.00     0.277 HD
HETATM    6  C7  UNL     1       3.513  23.949  27.600  1.00  0.00     0.234 C 
HETATM    7  C8  UNL     1       3.447  23.266  26.275  1.00  0.00     0.062 C 
HETATM    8  C9  UNL     1       3.730  24.155  25.097  1.00  0.00     0.209 C 
ENDROOT
BRANCH   1   9
HETATM    9  N2  UNL     1       4.317  26.351  25.917  1.00  0.00    -0.394 N 
ATOM     10  H2  UNL     1       5.021  25.880  26.486  1.00  0.00     0.159 HD
BRANCH   9  11
HETATM   11  C4  UNL     1       4.500  27.704  25.685  1.00  0.00     0.056 C 
BRANCH  11  12
HETATM   12  C3  UNL     1       5.607  28.168  24.786  1.00  0.00     0.046 C 
BRANCH  12  13
HETATM   13  C2  UNL     1       5.724  29.707  24.946  1.00  0.00     0.032 C 
BRANCH  13  14
HETATM   14  C1  UNL     1       7.141  30.134  24.594  1.00  0.00     0.230 C 
BRANCH  14  15
HETATM   15  N1  UNL     1       7.623  29.369  23.457  1.00  0.00    -0.079 N 
ATOM     16  H13 UNL     1       8.563  29.008  23.610  1.00  0.00     0.274 HD
ATOM     17  H12 UNL     1       7.135  28.478  23.361  1.00  0.00     0.274 HD
ATOM     18  H11 UNL     1       7.562  29.931  22.607  1.00  0.00     0.274 HD
ENDBRANCH  14  15
ENDBRANCH  13  14
ENDBRANCH  12  13
ENDBRANCH  11  12
ENDBRANCH   9  11
ENDBRANCH   1   9
BRANCH   8  19
HETATM   19  N4  UNL     1       5.117  24.104  24.767  1.00  0.00    -0.073 N 
ATOM     20  H43 UNL     1       5.268  23.622  23.880  1.00  0.00     0.274 HD
ATOM     21  H42 UNL     1       5.470  25.026  24.514  1.00  0.00     0.274 HD
ATOM     22  H41 UNL     1       5.677  23.687  25.511  1.00  0.00     0.274 HD
ENDBRANCH   8  19
TORSDOF 7
ENDMDL
MODEL 3
REMARK VINA RESULT: -3.694705867      0.997      1.234
REMARK  7 active torsions:
REMARK  status: ('A' for Active; 'I' for Inactive)
REMARK    1  A    between atoms: N1_1  and  C1_5 
REMARK    2  A    between atoms: C1_5  and  C2_6 
REMARK    3  A    between atoms: C2_6  and  C3_7 
REMARK    4  A    between atoms: C3_7  and  C4_8 
REMARK    5  A    between atoms: C4_8  and  N2_9 
REMARK    6  A    between atoms: N2_9  and  C5_11 
REMARK    7  A    between atoms: C9_18  and  N4_19 
ROOT
HETATM    1  C5  UNL     1       4.309  26.761  24.538  1.00  0.00     0.136 C 
HETATM    2  C6  UNL     1       3.034  26.872  25.332  1.00  0.00     0.259 C 
HETATM    3  N3  UNL     1       3.369  26.604  26.702  1.00  0.00    -0.073 N 
ATOM      4  H31 UNL     1       2.532  26.596  27.285  1.00  0.00     0.277 HD
ATOM      5  H32 UNL     1       3.857  27.397  27.117  1.00  0.00     0.277 HD
HETATM    6  C7  UNL     1       4.118  25.400  26.873  1.00  0.00     0.234 C 
HETATM    7  C8  UNL     1       4.086  24.570  25.634  1.00  0.00     0.062 C 
HETATM    8  C9  UNL     1       4.603  25.260  24.403  1.00  0.00     0.209 C 
ENDROOT
BRANCH   1   9
HETATM    9  N2  UNL     1       5.408  27.450  25.034  1.00  0.00    -0.394 N 
ATOM     10  H2  UNL     1       6.127  26.898  25.501  1.00  0.00     0.159 HD
BRANCH   9  11
HETATM   11  C4  UNL     1       5.618  28.817  24.953  1.00  0.00     0.056 C 
BRANCH  11  12
HETATM   12  C3  UNL     1       6.809  29.350  24.212  1.00  0.00     0.046 C 
BRANCH  12  13
HETATM   13  C2  UNL     1       7.213  28.289  23.155  1.00  0.00     0.032 C 
BRANCH  13  14
HETATM   14  C1  UNL     1       8.715  28.369  22.924  1.00  0.00     0.230 C 
BRANCH  14  15
HETATM   15  N1  UNL     1       8.989  28.661  21.528  1.00  0.00    -0.079 N 
ATOM     16  H13 UNL     1       8.133  28.779  20.987  1.00  0.00     0.274 HD
ATOM     17  H12 UNL     1       9.374  29.597  21.402  1.00  0.00     0.274 HD
ATOM     18  H11 UNL     1       9.595  27.942  21.133  1.00  0.00     0.274 HD
ENDBRANCH  14  15
ENDBRANCH  13  14
ENDBRANCH  12  13
ENDBRANCH  11  12
ENDBRANCH   9  11
ENDBRANCH   1   9
BRANCH   8  19
HETATM   19  N4  UNL     1       5.996  24.992  24.241  1.00  0.00    -0.073 N 
ATOM     20  H43 UNL     1       6.152  24.258  23.550  1.00  0.00     0.274 HD
ATOM     21  H42 UNL     1       6.466  25.764  23.768  1.00  0.00     0.274 HD
ATOM     22  H41 UNL     1       6.453  24.769  25.125  1.00  0.00     0.274 HD
ENDBRANCH   8  19
TORSDOF 7
ENDMDL
MODEL 4
REMARK VINA RESULT: -3.682037053      1.591      1.987
REMARK  7 active torsions:
REMARK  status: ('A' for Active; 'I' for Inactive)
REMARK    1  A    between atoms: N1_1  and  C1_5 
REMARK    2  A    between atoms: C1_5  and  C2_6 
REMARK    3  A    between atoms: C2_6  and  C3_7 
REMARK    4  A    between atoms: C3_7  and  C4_8 
REMARK    5  A    between atoms: C4_8  and  N2_9 
REMARK    6  A    between atoms: N2_9  and  C5_11 
REMARK    7  A    between atoms: C9_18  and  N4_19 
ROOT
HETATM    1  C5  UNL     1       4.541  25.830  24.151  1.00  0.00     0.136 C 
HETATM    2  C6  UNL     1       4.111  27.145  24.747  1.00  0.00     0.259 C 
HETATM    3  N3  UNL     1       4.604  27.175  26.095  1.00  0.00    -0.073 N 
ATOM      4  H31 UNL     1       4.287  28.016  26.578  1.00  0.00     0.277 HD
ATOM      5  H32 UNL     1       5.610  27.341  26.109  1.00  0.00     0.277 HD
HETATM    6  C7  UNL     1       4.272  26.005  26.842  1.00  0.00     0.234 C 
HETATM    7  C8  UNL     1       3.233  25.197  26.137  1.00  0.00     0.062 C 
HETATM    8  C9  UNL     1       3.612  24.763  24.749  1.00  0.00     0.209 C 
ENDROOT
BRANCH   1   9
HETATM    9  N2  UNL     1       5.876  25.485  24.311  1.00  0.00    -0.394 N 
ATOM     10  H2  UNL     1       6.150  25.102  25.216  1.00  0.00     0.159 HD
BRANCH   9  11
HETATM   11  C4  UNL     1       6.871  25.613  23.356  1.00  0.00     0.056 C 
BRANCH  11  12
HETATM   12  C3  UNL     1       6.808  26.725  22.352  1.00  0.00     0.046 C 
BRANCH  12  13
HETATM   13  C2  UNL     1       7.285  28.020  23.059  1.00  0.00     0.032 C 
BRANCH  13  14
HETATM   14  C1  UNL     1       8.768  28.218  22.783  1.00  0.00     0.230 C 
BRANCH  14  15
HETATM   15  N1  UNL     1       8.969  28.598  21.396  1.00  0.00    -0.079 N 
ATOM     16  H13 UNL     1       9.101  27.787  20.792  1.00  0.00     0.274 HD
ATOM     17  H12 UNL     1       8.116  28.962  20.972  1.00  0.00     0.274 HD
ATOM     18  H11 UNL     1       9.743  29.258  21.324  1.00  0.00     0.274 HD
ENDBRANCH  14  15
ENDBRANCH  13  14
ENDBRANCH  12  13
ENDBRANCH  11  12
ENDBRANCH   9  11
ENDBRANCH   1   9
BRANCH   8  19
HETATM   19  N4  UNL     1       4.222  23.473  24.790  1.00  0.00    -0.073 N 
ATOM     20  H43 UNL     1       5.168  23.525  25.168  1.00  0.00     0.274 HD
ATOM     21  H42 UNL     1       3.792  22.885  25.503  1.00  0.00     0.274 HD
ATOM     22  H41 UNL     1       4.214  23.012  23.880  1.00  0.00     0.274 HD
ENDBRANCH   8  19
TORSDOF 7
ENDMDL
MODEL 5
REMARK VINA RESULT: -3.622450105      4.011      7.459
REMARK  7 active torsions:
REMARK  status: ('A' for Active; 'I' for Inactive)
REMARK    1  A    between atoms: N1_1  and  C1_5 
REMARK    2  A    between atoms: C1_5  and  C2_6 
REMARK    3  A    between atoms: C2_6  and  C3_7 
REMARK    4  A    between atoms: C3_7  and  C4_8 
REMARK    5  A    between atoms: C4_8  and  N2_9 
REMARK    6  A    between atoms: N2_9  and  C5_11 
REMARK    7  A    between atoms: C9_18  and  N4_19 
ROOT
HETATM    1  C5  UNL     1       2.358  23.774  27.902  1.00  0.00     0.136 C 
HETATM    2  C6  UNL     1       2.223  23.075  26.575  1.00  0.00     0.259 C 
HETATM    3  N3  UNL     1       3.538  23.003  26.004  1.00  0.00    -0.073 N 
ATOM      4  H31 UNL     1       3.505  22.599  25.068  1.00  0.00     0.277 HD
ATOM      5  H32 UNL     1       4.099  22.294  26.475  1.00  0.00     0.277 HD
HETATM    6  C7  UNL     1       4.215  24.260  25.990  1.00  0.00     0.234 C 
HETATM    7  C8  UNL     1       3.271  25.380  26.277  1.00  0.00     0.062 C 
HETATM    8  C9  UNL     1       2.543  25.266  27.587  1.00  0.00     0.209 C 
ENDROOT
BRANCH   1   9
HETATM    9  N2  UNL     1       3.356  23.309  28.748  1.00  0.00    -0.394 N 
ATOM     10  H2  UNL     1       4.140  23.936  28.927  1.00  0.00     0.159 HD
BRANCH   9  11
HETATM   11  C4  UNL     1       3.385  22.072  29.372  1.00  0.00     0.056 C 
BRANCH  11  12
HETATM   12  C3  UNL     1       2.184  21.584  30.126  1.00  0.00     0.046 C 
BRANCH  12  13
HETATM   13  C2  UNL     1       2.637  20.385  31.000  1.00  0.00     0.032 C 
BRANCH  13  14
HETATM   14  C1  UNL     1       4.078  20.040  30.656  1.00  0.00     0.230 C 
BRANCH  14  15
HETATM   15  N1  UNL     1       4.772  19.566  31.841  1.00  0.00    -0.079 N 
ATOM     16  H13 UNL     1       4.175  19.588  32.668  1.00  0.00     0.274 HD
ATOM     17  H12 UNL     1       4.941  18.561  31.808  1.00  0.00     0.274 HD
ATOM     18  H11 UNL     1       5.634  20.094  31.976  1.00  0.00     0.274 HD
ENDBRANCH  14  15
ENDBRANCH  13  14
ENDBRANCH  12  13
ENDBRANCH  11  12
ENDBRANCH   9  11
ENDBRANCH   1   9
BRANCH   8  19
HETATM   19  N4  UNL     1       3.265  25.952  28.609  1.00  0.00    -0.073 N 
ATOM     20  H43 UNL     1       3.171  26.963  28.511  1.00  0.00     0.274 HD
ATOM     21  H42 UNL     1       2.817  25.834  29.518  1.00  0.00     0.274 HD
ATOM     22  H41 UNL     1       4.246  25.674  28.643  1.00  0.00     0.274 HD
ENDBRANCH   8  19
TORSDOF 7
ENDMDL
