MODEL 1
REMARK VINA RESULT: -4.112520097      0.000      0.000
REMARK  5 active torsions:
REMARK  status: ('A' for Active; 'I' for Inactive)
REMARK    1  A    between atoms: N1_2  and  C2_5 
REMARK    2  A    between atoms: C2_5  and  C3_6 
REMARK    3  A    between atoms: C5_11  and  N3_12 
REMARK    4  A    between atoms: N3_12  and  C6_14 
REMARK    5  A    between atoms: C6_14  and  C7_15 
ROOT
HETATM    1  C3  UNL     1       4.329  26.672  24.348  1.00  0.00     0.235 C 
HETATM    2  N2  UNL     1       3.698  25.365  24.672  1.00  0.00    -0.065 N 
ATOM      3  H21 UNL     1       2.895  25.009  24.153  1.00  0.00     0.277 HD
ATOM      4  H22 UNL     1       3.156  25.222  25.525  1.00  0.00     0.277 HD
HETATM    5  C4  UNL     1       5.045  24.806  24.503  1.00  0.00     0.260 C 
HETATM    6  C5  UNL     1       5.232  25.893  23.458  1.00  0.00     0.139 C 
ENDROOT
BRANCH   6   7
HETATM    7  N3  UNL     1       6.503  26.321  23.141  1.00  0.00    -0.387 N 
ATOM      8  H3  UNL     1       7.251  26.079  23.790  1.00  0.00     0.159 HD
BRANCH   7   9
HETATM    9  C6  UNL     1       6.850  27.053  22.013  1.00  0.00     0.134 C 
BRANCH   9  10
HETATM   10  C7  UNL     1       8.177  27.767  22.237  1.00  0.00     0.136 A 
HETATM   11  N4  UNL     1       8.826  27.925  23.400  1.00  0.00    -0.335 N 
HETATM   12  C8  UNL     1       9.969  28.614  23.190  1.00  0.00     0.199 A 
ATOM     13  H4  UNL     1       8.505  27.578  24.304  1.00  0.00     0.168 HD
HETATM   14  N5  UNL     1      10.023  28.880  21.886  1.00  0.00    -0.295 N 
HETATM   15  N6  UNL     1       8.933  28.366  21.302  1.00  0.00    -0.283 N 
ATOM     16  H5  UNL     1      10.769  29.390  21.413  1.00  0.00     0.187 HD
ATOM     17  H6  UNL     1       8.713  28.422  20.307  1.00  0.00     0.188 HD
ENDBRANCH   9  10
ENDBRANCH   7   9
ENDBRANCH   6   7
BRANCH   1  18
HETATM   18  C2  UNL     1       4.888  27.275  25.604  1.00  0.00     0.266 C 
BRANCH  18  19
HETATM   19  N1  UNL     1       4.733  28.728  25.611  1.00  0.00    -0.077 N 
HETATM   20  C1  UNL     1       5.862  29.371  24.957  1.00  0.00     0.267 C 
ATOM     21  H12 UNL     1       4.588  29.088  26.554  1.00  0.00     0.276 HD
ATOM     22  H11 UNL     1       3.845  29.015  25.200  1.00  0.00     0.276 HD
ENDBRANCH  18  19
ENDBRANCH   1  18
TORSDOF 5
ENDMDL
MODEL 2
REMARK VINA RESULT: -4.056029714      1.331      2.705
REMARK  5 active torsions:
REMARK  status: ('A' for Active; 'I' for Inactive)
REMARK    1  A    between atoms: N1_2  and  C2_5 
REMARK    2  A    between atoms: C2_5  and  C3_6 
REMARK    3  A    between atoms: C5_11  and  N3_12 
REMARK    4  A    between atoms: N3_12  and  C6_14 
REMARK    5  A    between atoms: C6_14  and  C7_15 
ROOT
HETATM    1  C3  UNL     1       5.297  26.682  25.059  1.00  0.00     0.235 C 
HETATM    2  N2  UNL     1       4.236  26.538  26.092  1.00  0.00    -0.065 N 
ATOM      3  H21 UNL     1       4.448  26.256  27.049  1.00  0.00     0.277 HD
ATOM      4  H22 UNL     1       3.554  25.781  26.064  1.00  0.00     0.277 HD
HETATM    5  C4  UNL     1       3.881  27.921  25.748  1.00  0.00     0.260 C 
HETATM    6  C5  UNL     1       5.364  28.107  25.481  1.00  0.00     0.139 C 
ENDROOT
BRANCH   6   7
HETATM    7  N3  UNL     1       5.781  29.108  24.631  1.00  0.00    -0.387 N 
ATOM      8  H3  UNL     1       5.128  29.409  23.908  1.00  0.00     0.159 HD
BRANCH   7   9
HETATM    9  C6  UNL     1       7.017  29.741  24.675  1.00  0.00     0.134 C 
BRANCH   9  10
HETATM   10  C7  UNL     1       7.942  29.166  23.609  1.00  0.00     0.136 A 
HETATM   11  N4  UNL     1       9.242  28.867  23.741  1.00  0.00    -0.335 N 
HETATM   12  C8  UNL     1       9.715  28.380  22.573  1.00  0.00     0.199 A 
ATOM     13  H4  UNL     1       9.791  28.990  24.592  1.00  0.00     0.168 HD
HETATM   14  N5  UNL     1       8.696  28.378  21.716  1.00  0.00    -0.295 N 
HETATM   15  N6  UNL     1       7.613  28.856  22.344  1.00  0.00    -0.283 N 
ATOM     16  H5  UNL     1       8.733  28.065  20.747  1.00  0.00     0.187 HD
ATOM     17  H6  UNL     1       6.689  28.968  21.927  1.00  0.00     0.188 HD
ENDBRANCH   9  10
ENDBRANCH   7   9
ENDBRANCH   6   7
BRANCH   1  18
HETATM   18  C2  UNL     1       4.724  26.347  23.713  1.00  0.00     0.266 C 
BRANCH  18  19
HETATM   19  N1  UNL     1       5.777  26.009  22.756  1.00  0.00    -0.077 N 
HETATM   20  C1  UNL     1       6.921  25.420  23.435  1.00  0.00     0.267 C 
ATOM     21  H12 UNL     1       6.046  26.814  22.191  1.00  0.00     0.276 HD
ATOM     22  H11 UNL     1       5.429  25.407  22.010  1.00  0.00     0.276 HD
ENDBRANCH  18  19
ENDBRANCH   1  18
TORSDOF 5
ENDMDL
MODEL 3
REMARK VINA RESULT: -4.034548215      1.701      5.339
REMARK  5 active torsions:
REMARK  status: ('A' for Active; 'I' for Inactive)
REMARK    1  A    between atoms: N1_2  and  C2_5 
REMARK    2  A    between atoms: C2_5  and  C3_6 
REMARK    3  A    between atoms: C5_11  and  N3_12 
REMARK    4  A    between atoms: N3_12  and  C6_14 
REMARK    5  A    between atoms: C6_14  and  C7_15 
ROOT
HETATM    1  C3  UNL     1       7.367  27.773  22.271  1.00  0.00     0.235 C 
HETATM    2  N2  UNL     1       8.762  27.951  21.786  1.00  0.00    -0.065 N 
ATOM      3  H21 UNL     1       8.978  28.489  20.947  1.00  0.00     0.277 HD
ATOM      4  H22 UNL     1       9.296  27.183  21.381  1.00  0.00     0.277 HD
HETATM    5  C4  UNL     1       9.038  28.465  23.134  1.00  0.00     0.260 C 
HETATM    6  C5  UNL     1       7.613  28.987  23.095  1.00  0.00     0.139 C 
ENDROOT
BRANCH   6   7
HETATM    7  N3  UNL     1       6.942  29.224  24.275  1.00  0.00    -0.387 N 
ATOM      8  H3  UNL     1       6.679  28.412  24.833  1.00  0.00     0.159 HD
BRANCH   7   9
HETATM    9  C6  UNL     1       6.594  30.475  24.768  1.00  0.00     0.134 C 
BRANCH   9  10
HETATM   10  C7  UNL     1       5.142  30.474  25.230  1.00  0.00     0.136 A 
HETATM   11  N4  UNL     1       4.335  31.536  25.370  1.00  0.00    -0.335 N 
HETATM   12  C8  UNL     1       3.122  31.129  25.802  1.00  0.00     0.199 A 
ATOM     13  H4  UNL     1       4.598  32.503  25.178  1.00  0.00     0.168 HD
HETATM   14  N5  UNL     1       3.184  29.805  25.930  1.00  0.00    -0.295 N 
HETATM   15  N6  UNL     1       4.413  29.401  25.582  1.00  0.00    -0.283 N 
ATOM     16  H5  UNL     1       2.423  29.200  26.240  1.00  0.00     0.187 HD
ATOM     17  H6  UNL     1       4.742  28.436  25.585  1.00  0.00     0.188 HD
ENDBRANCH   9  10
ENDBRANCH   7   9
ENDBRANCH   6   7
BRANCH   1  18
HETATM   18  C2  UNL     1       7.248  26.442  22.954  1.00  0.00     0.266 C 
BRANCH  18  19
HETATM   19  N1  UNL     1       5.861  25.980  22.983  1.00  0.00    -0.077 N 
HETATM   20  C1  UNL     1       5.353  25.957  24.346  1.00  0.00     0.267 C 
ATOM     21  H12 UNL     1       5.754  25.075  22.525  1.00  0.00     0.276 HD
ATOM     22  H11 UNL     1       5.266  26.535  22.368  1.00  0.00     0.276 HD
ENDBRANCH  18  19
ENDBRANCH   1  18
TORSDOF 5
ENDMDL
MODEL 4
REMARK VINA RESULT: -4.025521287      2.170      3.217
REMARK  5 active torsions:
REMARK  status: ('A' for Active; 'I' for Inactive)
REMARK    1  A    between atoms: N1_2  and  C2_5 
REMARK    2  A    between atoms: C2_5  and  C3_6 
REMARK    3  A    between atoms: C5_11  and  N3_12 
REMARK    4  A    between atoms: N3_12  and  C6_14 
REMARK    5  A    between atoms: C6_14  and  C7_15 
ROOT
HETATM    1  C3  UNL     1       3.057  27.118  26.732  1.00  0.00     0.235 C 
HETATM    2  N2  UNL     1       2.139  26.565  25.701  1.00  0.00    -0.065 N 
ATOM      3  H21 UNL     1       1.300  27.061  25.402  1.00  0.00     0.277 HD
ATOM      4  H22 UNL     1       1.545  25.756  25.883  1.00  0.00     0.277 HD
HETATM    5  C4  UNL     1       3.335  26.477  24.854  1.00  0.00     0.260 C 
HETATM    6  C5  UNL     1       3.801  27.719  25.593  1.00  0.00     0.139 C 
ENDROOT
BRANCH   6   7
HETATM    7  N3  UNL     1       5.147  28.006  25.661  1.00  0.00    -0.387 N 
ATOM      8  H3  UNL     1       5.741  27.339  26.154  1.00  0.00     0.159 HD
BRANCH   7   9
HETATM    9  C6  UNL     1       5.763  29.126  25.117  1.00  0.00     0.134 C 
BRANCH   9  10
HETATM   10  C7  UNL     1       6.705  28.714  23.992  1.00  0.00     0.136 A 
HETATM   11  N4  UNL     1       6.695  27.560  23.310  1.00  0.00    -0.335 N 
HETATM   12  C8  UNL     1       7.687  27.569  22.392  1.00  0.00     0.199 A 
ATOM     13  H4  UNL     1       6.040  26.792  23.460  1.00  0.00     0.168 HD
HETATM   14  N5  UNL     1       8.311  28.739  22.512  1.00  0.00    -0.295 N 
HETATM   15  N6  UNL     1       7.716  29.440  23.486  1.00  0.00    -0.283 N 
ATOM     16  H5  UNL     1       9.107  29.049  21.956  1.00  0.00     0.187 HD
ATOM     17  H6  UNL     1       7.986  30.374  23.794  1.00  0.00     0.188 HD
ENDBRANCH   9  10
ENDBRANCH   7   9
ENDBRANCH   6   7
BRANCH   1  18
HETATM   18  C2  UNL     1       3.683  25.986  27.493  1.00  0.00     0.266 C 
BRANCH  18  19
HETATM   19  N1  UNL     1       3.168  25.914  28.860  1.00  0.00    -0.077 N 
HETATM   20  C1  UNL     1       2.495  27.152  29.223  1.00  0.00     0.267 C 
ATOM     21  H12 UNL     1       3.901  25.674  29.527  1.00  0.00     0.276 HD
ATOM     22  H11 UNL     1       2.566  25.103  28.994  1.00  0.00     0.276 HD
ENDBRANCH  18  19
ENDBRANCH   1  18
TORSDOF 5
ENDMDL
MODEL 5
REMARK VINA RESULT: -4.017892795      1.904      4.072
REMARK  5 active torsions:
REMARK  status: ('A' for Active; 'I' for Inactive)
REMARK    1  A    between atoms: N1_2  and  C2_5 
REMARK    2  A    between atoms: C2_5  and  C3_6 
REMARK    3  A    between atoms: C5_11  and  N3_12 
REMARK    4  A    between atoms: N3_12  and  C6_14 
REMARK    5  A    between atoms: C6_14  and  C7_15 
ROOT
HETATM    1  C3  UNL     1       6.400  25.811  23.720  1.00  0.00     0.235 C 
HETATM    2  N2  UNL     1       6.468  24.350  23.989  1.00  0.00    -0.065 N 
ATOM      3  H21 UNL     1       7.130  23.954  24.657  1.00  0.00     0.277 HD
ATOM      4  H22 UNL     1       6.831  23.689  23.302  1.00  0.00     0.277 HD
HETATM    5  C4  UNL     1       5.034  24.458  24.285  1.00  0.00     0.260 C 
HETATM    6  C5  UNL     1       5.367  25.851  24.789  1.00  0.00     0.139 C 
ENDROOT
BRANCH   6   7
HETATM    7  N3  UNL     1       4.382  26.814  24.827  1.00  0.00    -0.387 N 
ATOM      8  H3  UNL     1       3.717  26.831  24.054  1.00  0.00     0.159 HD
BRANCH   7   9
HETATM    9  C6  UNL     1       4.219  27.763  25.827  1.00  0.00     0.134 C 
BRANCH   9  10
HETATM   10  C7  UNL     1       4.900  29.068  25.432  1.00  0.00     0.136 A 
HETATM   11  N4  UNL     1       6.165  29.227  25.017  1.00  0.00    -0.335 N 
HETATM   12  C8  UNL     1       6.396  30.534  24.762  1.00  0.00     0.199 A 
ATOM     13  H4  UNL     1       6.849  28.477  24.909  1.00  0.00     0.168 HD
HETATM   14  N5  UNL     1       5.263  31.182  25.022  1.00  0.00    -0.295 N 
HETATM   15  N6  UNL     1       4.349  30.293  25.431  1.00  0.00    -0.283 N 
ATOM     16  H5  UNL     1       5.116  32.187  24.927  1.00  0.00     0.187 HD
ATOM     17  H6  UNL     1       3.389  30.511  25.699  1.00  0.00     0.188 HD
ENDBRANCH   9  10
ENDBRANCH   7   9
ENDBRANCH   6   7
BRANCH   1  18
HETATM   18  C2  UNL     1       5.982  26.031  22.295  1.00  0.00     0.266 C 
BRANCH  18  19
HETATM   19  N1  UNL     1       7.051  26.653  21.516  1.00  0.00    -0.077 N 
HETATM   20  C1  UNL     1       7.715  27.692  22.289  1.00  0.00     0.267 C 
ATOM     21  H12 UNL     1       6.710  27.007  20.623  1.00  0.00     0.276 HD
ATOM     22  H11 UNL     1       7.714  25.962  21.165  1.00  0.00     0.276 HD
ENDBRANCH  18  19
ENDBRANCH   1  18
TORSDOF 5
ENDMDL
