MODEL 1
REMARK VINA RESULT: -4.205314907      0.000      0.000
REMARK  6 active torsions:
REMARK  status: ('A' for Active; 'I' for Inactive)
REMARK    1  A    between atoms: N1_1  and  C1_5 
REMARK    2  A    between atoms: C4_11  and  N3_12 
REMARK    3  A    between atoms: N3_12  and  C5_14 
REMARK    4  A    between atoms: C5_14  and  C6_15 
REMARK    5  A    between atoms: C6_15  and  N4_16 
REMARK    6  A    between atoms: N4_16  and  C7_19 
ROOT
HETATM    1  C1  UNL     1       9.272  28.147  21.923  1.00  0.00     0.402 C 
HETATM    2  N2  UNL     1       9.673  28.831  23.140  1.00  0.00    -0.044 N 
ATOM      3  H21 UNL     1      10.041  29.764  22.957  1.00  0.00     0.279 HD
ATOM      4  H22 UNL     1      10.513  28.424  23.553  1.00  0.00     0.279 HD
HETATM    5  C2  UNL     1       8.574  28.851  24.055  1.00  0.00     0.237 C 
HETATM    6  C3  UNL     1       7.357  28.692  23.198  1.00  0.00     0.056 C 
HETATM    7  C4  UNL     1       7.799  27.983  21.946  1.00  0.00     0.136 C 
ENDROOT
BRANCH   7   8
HETATM    8  N3  UNL     1       7.264  26.683  21.784  1.00  0.00    -0.412 N 
ATOM      9  H3  UNL     1       7.408  26.158  20.921  1.00  0.00     0.153 HD
BRANCH   8  10
HETATM   10  C5  UNL     1       6.524  26.134  22.854  1.00  0.00     0.142 C 
BRANCH  10  11
HETATM   11  C6  UNL     1       7.196  25.055  23.634  1.00  0.00     0.251 C 
BRANCH  11  12
HETATM   12  N4  UNL     1       6.220  24.070  24.097  1.00  0.00    -0.069 N 
ATOM     13  H42 UNL     1       5.985  23.357  23.406  1.00  0.00     0.277 HD
ATOM     14  H41 UNL     1       6.577  23.426  24.803  1.00  0.00     0.277 HD
BRANCH  12  15
HETATM   15  C7  UNL     1       5.067  24.887  24.545  1.00  0.00     0.186 A 
HETATM   16  C8  UNL     1       3.716  24.258  24.425  1.00  0.00     0.035 A 
HETATM   17  C9  UNL     1       4.398  24.396  25.786  1.00  0.00     0.035 A 
ENDBRANCH  12  15
ENDBRANCH  11  12
ENDBRANCH  10  11
ENDBRANCH   8  10
ENDBRANCH   7   8
BRANCH   1  18
HETATM   18  N1  UNL     1       9.787  28.940  20.820  1.00  0.00    -0.048 N 
ATOM     19  H13 UNL     1       9.080  29.532  20.382  1.00  0.00     0.276 HD
ATOM     20  H12 UNL     1      10.412  29.689  21.117  1.00  0.00     0.276 HD
ATOM     21  H11 UNL     1      10.220  28.283  20.171  1.00  0.00     0.276 HD
ENDBRANCH   1  18
TORSDOF 6
ENDMDL
MODEL 2
REMARK VINA RESULT: -4.172438121      2.772      3.920
REMARK  6 active torsions:
REMARK  status: ('A' for Active; 'I' for Inactive)
REMARK    1  A    between atoms: N1_1  and  C1_5 
REMARK    2  A    between atoms: C4_11  and  N3_12 
REMARK    3  A    between atoms: N3_12  and  C5_14 
REMARK    4  A    between atoms: C5_14  and  C6_15 
REMARK    5  A    between atoms: C6_15  and  N4_16 
REMARK    6  A    between atoms: N4_16  and  C7_19 
ROOT
HETATM    1  C1  UNL     1       9.407  28.221  21.791  1.00  0.00     0.402 C 
HETATM    2  N2  UNL     1       9.780  28.857  23.043  1.00  0.00    -0.044 N 
ATOM      3  H21 UNL     1      10.106  29.814  22.909  1.00  0.00     0.279 HD
ATOM      4  H22 UNL     1      10.636  28.466  23.436  1.00  0.00     0.279 HD
HETATM    5  C2  UNL     1       8.681  28.782  23.956  1.00  0.00     0.237 C 
HETATM    6  C3  UNL     1       7.472  28.616  23.090  1.00  0.00     0.056 C 
HETATM    7  C4  UNL     1       7.943  27.992  21.804  1.00  0.00     0.136 C 
ENDROOT
BRANCH   7   8
HETATM    8  N3  UNL     1       7.464  26.681  21.573  1.00  0.00    -0.412 N 
ATOM      9  H3  UNL     1       8.044  25.983  21.107  1.00  0.00     0.153 HD
BRANCH   8  10
HETATM   10  C5  UNL     1       6.159  26.368  22.008  1.00  0.00     0.142 C 
BRANCH  10  11
HETATM   11  C6  UNL     1       5.115  26.269  20.946  1.00  0.00     0.251 C 
BRANCH  11  12
HETATM   12  N4  UNL     1       5.719  26.382  19.620  1.00  0.00    -0.069 N 
ATOM     13  H42 UNL     1       5.955  27.337  19.348  1.00  0.00     0.277 HD
ATOM     14  H41 UNL     1       6.666  26.011  19.557  1.00  0.00     0.277 HD
BRANCH  12  15
HETATM   15  C7  UNL     1       4.744  25.717  18.722  1.00  0.00     0.186 A 
HETATM   16  C8  UNL     1       4.329  26.481  17.504  1.00  0.00     0.035 A 
HETATM   17  C9  UNL     1       5.297  25.302  17.399  1.00  0.00     0.035 A 
ENDBRANCH  12  15
ENDBRANCH  11  12
ENDBRANCH  10  11
ENDBRANCH   8  10
ENDBRANCH   7   8
BRANCH   1  18
HETATM   18  N1  UNL     1       9.887  29.092  20.732  1.00  0.00    -0.048 N 
ATOM     19  H13 UNL     1       9.867  30.081  20.980  1.00  0.00     0.276 HD
ATOM     20  H12 UNL     1      10.892  29.022  20.575  1.00  0.00     0.276 HD
ATOM     21  H11 UNL     1       9.331  28.871  19.906  1.00  0.00     0.276 HD
ENDBRANCH   1  18
TORSDOF 6
ENDMDL
MODEL 3
REMARK VINA RESULT: -4.116576356      1.575      5.082
REMARK  6 active torsions:
REMARK  status: ('A' for Active; 'I' for Inactive)
REMARK    1  A    between atoms: N1_1  and  C1_5 
REMARK    2  A    between atoms: C4_11  and  N3_12 
REMARK    3  A    between atoms: N3_12  and  C5_14 
REMARK    4  A    between atoms: C5_14  and  C6_15 
REMARK    5  A    between atoms: C6_15  and  N4_16 
REMARK    6  A    between atoms: N4_16  and  C7_19 
ROOT
HETATM    1  C1  UNL     1       6.090  24.461  23.757  1.00  0.00     0.402 C 
HETATM    2  N2  UNL     1       5.079  24.025  24.705  1.00  0.00    -0.044 N 
ATOM      3  H21 UNL     1       5.479  23.505  25.485  1.00  0.00     0.279 HD
ATOM      4  H22 UNL     1       4.488  23.284  24.326  1.00  0.00     0.279 HD
HETATM    5  C2  UNL     1       4.320  25.156  25.139  1.00  0.00     0.237 C 
HETATM    6  C3  UNL     1       5.213  26.333  24.904  1.00  0.00     0.056 C 
HETATM    7  C4  UNL     1       6.166  25.941  23.808  1.00  0.00     0.136 C 
ENDROOT
BRANCH   7   8
HETATM    8  N3  UNL     1       6.010  26.665  22.601  1.00  0.00    -0.412 N 
ATOM      9  H3  UNL     1       5.091  26.794  22.180  1.00  0.00     0.153 HD
BRANCH   8  10
HETATM   10  C5  UNL     1       7.168  27.203  22.000  1.00  0.00     0.142 C 
BRANCH  10  11
HETATM   11  C6  UNL     1       8.101  27.936  22.905  1.00  0.00     0.251 C 
BRANCH  11  12
HETATM   12  N4  UNL     1       7.684  29.328  23.057  1.00  0.00    -0.069 N 
ATOM     13  H42 UNL     1       8.379  30.009  22.750  1.00  0.00     0.277 HD
ATOM     14  H41 UNL     1       6.951  29.619  22.409  1.00  0.00     0.277 HD
BRANCH  12  15
HETATM   15  C7  UNL     1       7.312  29.440  24.487  1.00  0.00     0.186 A 
HETATM   16  C8  UNL     1       7.233  30.823  25.050  1.00  0.00     0.035 A 
HETATM   17  C9  UNL     1       5.963  30.031  24.737  1.00  0.00     0.035 A 
ENDBRANCH  12  15
ENDBRANCH  11  12
ENDBRANCH  10  11
ENDBRANCH   8  10
ENDBRANCH   7   8
BRANCH   1  18
HETATM   18  N1  UNL     1       7.315  23.767  24.117  1.00  0.00    -0.048 N 
ATOM     19  H13 UNL     1       7.833  24.224  24.867  1.00  0.00     0.276 HD
ATOM     20  H12 UNL     1       7.152  22.882  24.597  1.00  0.00     0.276 HD
ATOM     21  H11 UNL     1       7.852  23.669  23.255  1.00  0.00     0.276 HD
ENDBRANCH   1  18
TORSDOF 6
ENDMDL
MODEL 4
REMARK VINA RESULT: -4.019499864      1.284      1.594
REMARK  6 active torsions:
REMARK  status: ('A' for Active; 'I' for Inactive)
REMARK    1  A    between atoms: N1_1  and  C1_5 
REMARK    2  A    between atoms: C4_11  and  N3_12 
REMARK    3  A    between atoms: N3_12  and  C5_14 
REMARK    4  A    between atoms: C5_14  and  C6_15 
REMARK    5  A    between atoms: C6_15  and  N4_16 
REMARK    6  A    between atoms: N4_16  and  C7_19 
ROOT
HETATM    1  C1  UNL     1       8.534  28.111  22.730  1.00  0.00     0.402 C 
HETATM    2  N2  UNL     1       8.690  29.298  23.553  1.00  0.00    -0.044 N 
ATOM      3  H21 UNL     1       8.816  30.142  22.996  1.00  0.00     0.279 HD
ATOM      4  H22 UNL     1       9.585  29.314  24.043  1.00  0.00     0.279 HD
HETATM    5  C2  UNL     1       7.580  29.400  24.449  1.00  0.00     0.237 C 
HETATM    6  C3  UNL     1       6.486  28.614  23.797  1.00  0.00     0.056 C 
HETATM    7  C4  UNL     1       7.152  27.604  22.903  1.00  0.00     0.136 C 
ENDROOT
BRANCH   7   8
HETATM    8  N3  UNL     1       6.974  26.257  23.297  1.00  0.00    -0.412 N 
ATOM      9  H3  UNL     1       7.774  25.657  23.498  1.00  0.00     0.153 HD
BRANCH   8  10
HETATM   10  C5  UNL     1       5.654  25.769  23.404  1.00  0.00     0.142 C 
BRANCH  10  11
HETATM   11  C6  UNL     1       5.183  25.437  24.781  1.00  0.00     0.251 C 
BRANCH  11  12
HETATM   12  N4  UNL     1       4.803  24.028  24.869  1.00  0.00    -0.069 N 
ATOM     13  H42 UNL     1       4.735  23.556  23.968  1.00  0.00     0.277 HD
ATOM     14  H41 UNL     1       5.527  23.423  25.257  1.00  0.00     0.277 HD
BRANCH  12  15
HETATM   15  C7  UNL     1       3.542  24.043  25.647  1.00  0.00     0.186 A 
HETATM   16  C8  UNL     1       3.367  22.952  26.656  1.00  0.00     0.035 A 
HETATM   17  C9  UNL     1       3.704  24.378  27.093  1.00  0.00     0.035 A 
ENDBRANCH  12  15
ENDBRANCH  11  12
ENDBRANCH  10  11
ENDBRANCH   8  10
ENDBRANCH   7   8
BRANCH   1  18
HETATM   18  N1  UNL     1       8.882  28.505  21.375  1.00  0.00    -0.048 N 
ATOM     19  H13 UNL     1       9.783  28.978  21.309  1.00  0.00     0.276 HD
ATOM     20  H12 UNL     1       9.109  27.716  20.770  1.00  0.00     0.276 HD
ATOM     21  H11 UNL     1       8.104  29.069  21.032  1.00  0.00     0.276 HD
ENDBRANCH   1  18
TORSDOF 6
ENDMDL
MODEL 5
REMARK VINA RESULT: -3.988050962      7.118     10.894
REMARK  6 active torsions:
REMARK  status: ('A' for Active; 'I' for Inactive)
REMARK    1  A    between atoms: N1_1  and  C1_5 
REMARK    2  A    between atoms: C4_11  and  N3_12 
REMARK    3  A    between atoms: N3_12  and  C5_14 
REMARK    4  A    between atoms: C5_14  and  C6_15 
REMARK    5  A    between atoms: C6_15  and  N4_16 
REMARK    6  A    between atoms: N4_16  and  C7_19 
ROOT
HETATM    1  C1  UNL     1       5.353  18.157  30.713  1.00  0.00     0.402 C 
HETATM    2  N2  UNL     1       4.469  17.008  30.810  1.00  0.00    -0.044 N 
ATOM      3  H21 UNL     1       4.728  16.384  31.573  1.00  0.00     0.279 HD
ATOM      4  H22 UNL     1       4.599  16.354  30.037  1.00  0.00     0.279 HD
HETATM    5  C2  UNL     1       3.117  17.461  30.915  1.00  0.00     0.237 C 
HETATM    6  C3  UNL     1       3.218  18.856  31.448  1.00  0.00     0.056 C 
HETATM    7  C4  UNL     1       4.576  19.372  31.055  1.00  0.00     0.136 C 
ENDROOT
BRANCH   7   8
HETATM    8  N3  UNL     1       4.556  20.442  30.130  1.00  0.00    -0.412 N 
ATOM      9  H3  UNL     1       5.354  20.627  29.522  1.00  0.00     0.153 HD
BRANCH   8  10
HETATM   10  C5  UNL     1       3.397  21.245  30.073  1.00  0.00     0.142 C 
BRANCH  10  11
HETATM   11  C6  UNL     1       3.266  22.130  28.879  1.00  0.00     0.251 C 
BRANCH  11  12
HETATM   12  N4  UNL     1       3.123  23.527  29.286  1.00  0.00    -0.069 N 
ATOM     13  H42 UNL     1       2.473  23.673  30.058  1.00  0.00     0.277 HD
ATOM     14  H41 UNL     1       3.942  23.911  29.757  1.00  0.00     0.277 HD
BRANCH  12  15
HETATM   15  C7  UNL     1       2.754  24.231  28.036  1.00  0.00     0.186 A 
HETATM   16  C8  UNL     1       3.871  24.879  27.280  1.00  0.00     0.035 A 
HETATM   17  C9  UNL     1       3.239  23.577  26.784  1.00  0.00     0.035 A 
ENDBRANCH  12  15
ENDBRANCH  11  12
ENDBRANCH  10  11
ENDBRANCH   8  10
ENDBRANCH   7   8
BRANCH   1  18
HETATM   18  N1  UNL     1       6.481  17.880  31.585  1.00  0.00    -0.048 N 
ATOM     19  H13 UNL     1       6.812  18.700  32.093  1.00  0.00     0.276 HD
ATOM     20  H12 UNL     1       6.234  17.319  32.400  1.00  0.00     0.276 HD
ATOM     21  H11 UNL     1       7.198  17.451  31.000  1.00  0.00     0.276 HD
ENDBRANCH   1  18
TORSDOF 6
ENDMDL
