MODEL 1
REMARK VINA RESULT: -4.283413858      0.000      0.000
REMARK  7 active torsions:
REMARK  status: ('A' for Active; 'I' for Inactive)
REMARK    1  A    between atoms: N1_2  and  C2_5 
REMARK    2  A    between atoms: C2_5  and  C3_6 
REMARK    3  A    between atoms: C3_6  and  C4_7 
REMARK    4  A    between atoms: C4_7  and  C5_8 
REMARK    5  A    between atoms: C5_8  and  N2_9 
REMARK    6  A    between atoms: N2_9  and  N3_10 
REMARK    7  A    between atoms: N3_10  and  C6_12 
ROOT
HETATM    1  N2  UNL     1       5.368  25.958  21.865  1.00  0.00    -0.139 NA
ENDROOT
BRANCH   1   2
HETATM    2  C5  UNL     1       6.593  26.037  22.718  1.00  0.00     0.135 C 
BRANCH   2   3
HETATM    3  C4  UNL     1       7.322  27.181  22.129  1.00  0.00     0.019 C 
BRANCH   3   4
HETATM    4  C3  UNL     1       7.934  28.195  22.978  1.00  0.00     0.029 C 
BRANCH   4   5
HETATM    5  C2  UNL     1       9.337  28.588  22.677  1.00  0.00     0.231 C 
BRANCH   5   6
HETATM    6  N1  UNL     1       9.392  28.676  21.209  1.00  0.00    -0.079 N 
HETATM    7  C1  UNL     1      10.718  29.020  20.721  1.00  0.00     0.266 C 
ATOM      8  H12 UNL     1       8.690  29.326  20.854  1.00  0.00     0.276 HD
ATOM      9  H11 UNL     1       9.053  27.816  20.776  1.00  0.00     0.276 HD
ENDBRANCH   5   6
ENDBRANCH   4   5
ENDBRANCH   3   4
ENDBRANCH   2   3
ENDBRANCH   1   2
BRANCH   1  10
HETATM   10  N3  UNL     1       5.645  26.311  20.608  1.00  0.00    -0.275 N 
ATOM     11  H3  UNL     1       6.601  26.648  20.495  1.00  0.00     0.185 HD
BRANCH  10  12
HETATM   12  C6  UNL     1       4.917  26.323  19.402  1.00  0.00     0.187 C 
HETATM   13  N4  UNL     1       5.035  27.114  18.391  1.00  0.00    -0.360 N 
HETATM   14  C7  UNL     1       4.065  26.716  17.351  1.00  0.00     0.142 C 
ATOM     15  H4  UNL     1       5.692  27.890  18.321  1.00  0.00     0.162 HD
HETATM   16  C8  UNL     1       3.008  26.026  18.201  1.00  0.00     0.142 C 
HETATM   17  N5  UNL     1       3.847  25.374  19.171  1.00  0.00    -0.360 N 
ATOM     18  H5  UNL     1       3.719  24.457  19.596  1.00  0.00     0.162 HD
ENDBRANCH  10  12
ENDBRANCH   1  10
TORSDOF 7
ENDMDL
MODEL 2
REMARK VINA RESULT: -4.257153957      3.947      5.237
REMARK  7 active torsions:
REMARK  status: ('A' for Active; 'I' for Inactive)
REMARK    1  A    between atoms: N1_2  and  C2_5 
REMARK    2  A    between atoms: C2_5  and  C3_6 
REMARK    3  A    between atoms: C3_6  and  C4_7 
REMARK    4  A    between atoms: C4_7  and  C5_8 
REMARK    5  A    between atoms: C5_8  and  N2_9 
REMARK    6  A    between atoms: N2_9  and  N3_10 
REMARK    7  A    between atoms: N3_10  and  C6_12 
ROOT
HETATM    1  N2  UNL     1       7.797  26.084  23.427  1.00  0.00    -0.139 NA
ENDROOT
BRANCH   1   2
HETATM    2  C5  UNL     1       7.520  27.115  22.381  1.00  0.00     0.135 C 
BRANCH   2   3
HETATM    3  C4  UNL     1       7.878  28.375  23.068  1.00  0.00     0.019 C 
BRANCH   3   4
HETATM    4  C3  UNL     1       6.897  29.091  23.874  1.00  0.00     0.029 C 
BRANCH   4   5
HETATM    5  C2  UNL     1       7.400  30.160  24.779  1.00  0.00     0.231 C 
BRANCH   5   6
HETATM    6  N1  UNL     1       6.269  31.092  24.916  1.00  0.00    -0.079 N 
HETATM    7  C1  UNL     1       5.007  30.405  25.140  1.00  0.00     0.266 C 
ATOM      8  H12 UNL     1       6.209  31.717  24.113  1.00  0.00     0.276 HD
ATOM      9  H11 UNL     1       6.446  31.780  25.648  1.00  0.00     0.276 HD
ENDBRANCH   5   6
ENDBRANCH   4   5
ENDBRANCH   3   4
ENDBRANCH   2   3
ENDBRANCH   1   2
BRANCH   1  10
HETATM   10  N3  UNL     1       6.766  25.244  23.546  1.00  0.00    -0.275 N 
ATOM     11  H3  UNL     1       6.836  24.443  22.920  1.00  0.00     0.185 HD
BRANCH  10  12
HETATM   12  C6  UNL     1       5.603  25.214  24.341  1.00  0.00     0.187 C 
HETATM   13  N4  UNL     1       4.974  26.191  24.897  1.00  0.00    -0.360 N 
HETATM   14  C7  UNL     1       3.792  25.663  25.608  1.00  0.00     0.142 C 
ATOM     15  H4  UNL     1       5.247  27.172  24.852  1.00  0.00     0.162 HD
HETATM   16  C8  UNL     1       4.242  24.235  25.879  1.00  0.00     0.142 C 
HETATM   17  N5  UNL     1       4.955  23.958  24.660  1.00  0.00    -0.360 N 
ATOM     18  H5  UNL     1       4.995  23.080  24.142  1.00  0.00     0.162 HD
ENDBRANCH  10  12
ENDBRANCH   1  10
TORSDOF 7
ENDMDL
MODEL 3
REMARK VINA RESULT: -4.165465234      3.714      5.997
REMARK  7 active torsions:
REMARK  status: ('A' for Active; 'I' for Inactive)
REMARK    1  A    between atoms: N1_2  and  C2_5 
REMARK    2  A    between atoms: C2_5  and  C3_6 
REMARK    3  A    between atoms: C3_6  and  C4_7 
REMARK    4  A    between atoms: C4_7  and  C5_8 
REMARK    5  A    between atoms: C5_8  and  N2_9 
REMARK    6  A    between atoms: N2_9  and  N3_10 
REMARK    7  A    between atoms: N3_10  and  C6_12 
ROOT
HETATM    1  N2  UNL     1       8.536  28.966  24.265  1.00  0.00    -0.139 NA
ENDROOT
BRANCH   1   2
HETATM    2  C5  UNL     1       8.985  28.327  22.991  1.00  0.00     0.135 C 
BRANCH   2   3
HETATM    3  C4  UNL     1       7.705  27.943  22.356  1.00  0.00     0.019 C 
BRANCH   3   4
HETATM    4  C3  UNL     1       7.298  26.546  22.281  1.00  0.00     0.029 C 
BRANCH   4   5
HETATM    5  C2  UNL     1       5.955  26.191  22.815  1.00  0.00     0.231 C 
BRANCH   5   6
HETATM    6  N1  UNL     1       6.233  25.304  23.957  1.00  0.00    -0.079 N 
HETATM    7  C1  UNL     1       7.422  24.491  23.752  1.00  0.00     0.266 C 
ATOM      8  H12 UNL     1       5.424  24.723  24.175  1.00  0.00     0.276 HD
ATOM      9  H11 UNL     1       6.296  25.832  24.827  1.00  0.00     0.276 HD
ENDBRANCH   5   6
ENDBRANCH   4   5
ENDBRANCH   3   4
ENDBRANCH   2   3
ENDBRANCH   1   2
BRANCH   1  10
HETATM   10  N3  UNL     1       7.445  29.708  24.063  1.00  0.00    -0.275 N 
ATOM     11  H3  UNL     1       7.531  30.321  23.253  1.00  0.00     0.185 HD
BRANCH  10  12
HETATM   12  C6  UNL     1       6.203  29.836  24.715  1.00  0.00     0.187 C 
HETATM   13  N4  UNL     1       5.362  28.919  25.046  1.00  0.00    -0.360 N 
HETATM   14  C7  UNL     1       4.212  29.542  25.733  1.00  0.00     0.142 C 
ATOM     15  H4  UNL     1       5.471  27.922  24.863  1.00  0.00     0.162 HD
HETATM   16  C8  UNL     1       4.267  30.948  25.154  1.00  0.00     0.142 C 
HETATM   17  N5  UNL     1       5.691  31.140  25.087  1.00  0.00    -0.360 N 
ATOM     18  H5  UNL     1       6.218  31.995  25.262  1.00  0.00     0.162 HD
ENDBRANCH  10  12
ENDBRANCH   1  10
TORSDOF 7
ENDMDL
MODEL 4
REMARK VINA RESULT: -4.119144114      5.178      6.422
REMARK  7 active torsions:
REMARK  status: ('A' for Active; 'I' for Inactive)
REMARK    1  A    between atoms: N1_2  and  C2_5 
REMARK    2  A    between atoms: C2_5  and  C3_6 
REMARK    3  A    between atoms: C3_6  and  C4_7 
REMARK    4  A    between atoms: C4_7  and  C5_8 
REMARK    5  A    between atoms: C5_8  and  N2_9 
REMARK    6  A    between atoms: N2_9  and  N3_10 
REMARK    7  A    between atoms: N3_10  and  C6_12 
ROOT
HETATM    1  N2  UNL     1       5.391  29.864  24.881  1.00  0.00    -0.139 NA
ENDROOT
BRANCH   1   2
HETATM    2  C5  UNL     1       6.749  29.943  24.261  1.00  0.00     0.135 C 
BRANCH   2   3
HETATM    3  C4  UNL     1       6.983  28.550  23.821  1.00  0.00     0.019 C 
BRANCH   3   4
HETATM    4  C3  UNL     1       7.614  28.268  22.538  1.00  0.00     0.029 C 
BRANCH   4   5
HETATM    5  C2  UNL     1       9.086  28.458  22.439  1.00  0.00     0.231 C 
BRANCH   5   6
HETATM    6  N1  UNL     1       9.331  28.719  21.011  1.00  0.00    -0.079 N 
HETATM    7  C1  UNL     1      10.731  28.995  20.729  1.00  0.00     0.266 C 
ATOM      8  H12 UNL     1       8.732  29.469  20.667  1.00  0.00     0.276 HD
ATOM      9  H11 UNL     1       8.985  27.953  20.433  1.00  0.00     0.276 HD
ENDBRANCH   5   6
ENDBRANCH   4   5
ENDBRANCH   3   4
ENDBRANCH   2   3
ENDBRANCH   1   2
BRANCH   1  10
HETATM   10  N3  UNL     1       4.908  31.086  25.115  1.00  0.00    -0.275 N 
ATOM     11  H3  UNL     1       5.610  31.816  24.997  1.00  0.00     0.185 HD
BRANCH  10  12
HETATM   12  C6  UNL     1       3.649  31.596  25.488  1.00  0.00     0.187 C 
HETATM   13  N4  UNL     1       2.892  31.249  26.471  1.00  0.00    -0.360 N 
HETATM   14  C7  UNL     1       1.679  32.092  26.467  1.00  0.00     0.142 C 
ATOM     15  H4  UNL     1       3.097  30.511  27.144  1.00  0.00     0.162 HD
HETATM   16  C8  UNL     1       1.611  32.481  24.998  1.00  0.00     0.142 C 
HETATM   17  N5  UNL     1       3.012  32.642  24.713  1.00  0.00    -0.360 N 
ATOM     18  H5  UNL     1       3.454  33.331  24.106  1.00  0.00     0.162 HD
ENDBRANCH  10  12
ENDBRANCH   1  10
TORSDOF 7
ENDMDL
MODEL 5
REMARK VINA RESULT: -4.115063965      4.130      5.245
REMARK  7 active torsions:
REMARK  status: ('A' for Active; 'I' for Inactive)
REMARK    1  A    between atoms: N1_2  and  C2_5 
REMARK    2  A    between atoms: C2_5  and  C3_6 
REMARK    3  A    between atoms: C3_6  and  C4_7 
REMARK    4  A    between atoms: C4_7  and  C5_8 
REMARK    5  A    between atoms: C5_8  and  N2_9 
REMARK    6  A    between atoms: N2_9  and  N3_10 
REMARK    7  A    between atoms: N3_10  and  C6_12 
ROOT
HETATM    1  N2  UNL     1       5.934  28.533  25.739  1.00  0.00    -0.139 NA
ENDROOT
BRANCH   1   2
HETATM    2  C5  UNL     1       5.942  29.697  24.802  1.00  0.00     0.135 C 
BRANCH   2   3
HETATM    3  C4  UNL     1       7.288  29.612  24.194  1.00  0.00     0.019 C 
BRANCH   3   4
HETATM    4  C3  UNL     1       7.575  28.641  23.146  1.00  0.00     0.029 C 
BRANCH   4   5
HETATM    5  C2  UNL     1       9.004  28.384  22.819  1.00  0.00     0.231 C 
BRANCH   5   6
HETATM    6  N1  UNL     1       9.110  28.659  21.377  1.00  0.00    -0.079 N 
HETATM    7  C1  UNL     1      10.476  28.929  20.962  1.00  0.00     0.266 C 
ATOM      8  H12 UNL     1       8.485  29.417  21.101  1.00  0.00     0.276 HD
ATOM      9  H11 UNL     1       8.702  27.902  20.827  1.00  0.00     0.276 HD
ENDBRANCH   5   6
ENDBRANCH   4   5
ENDBRANCH   3   4
ENDBRANCH   2   3
ENDBRANCH   1   2
BRANCH   1  10
HETATM   10  N3  UNL     1       4.807  27.830  25.609  1.00  0.00    -0.275 N 
ATOM     11  H3  UNL     1       3.999  28.416  25.404  1.00  0.00     0.185 HD
BRANCH  10  12
HETATM   12  C6  UNL     1       4.481  26.462  25.691  1.00  0.00     0.187 C 
HETATM   13  N4  UNL     1       4.197  25.756  26.730  1.00  0.00    -0.360 N 
HETATM   14  C7  UNL     1       3.898  24.373  26.308  1.00  0.00     0.142 C 
ATOM     15  H4  UNL     1       4.181  26.098  27.691  1.00  0.00     0.162 HD
HETATM   16  C8  UNL     1       4.678  24.302  25.004  1.00  0.00     0.142 C 
HETATM   17  N5  UNL     1       4.456  25.632  24.503  1.00  0.00    -0.360 N 
ATOM     18  H5  UNL     1       4.315  25.924  23.536  1.00  0.00     0.162 HD
ENDBRANCH  10  12
ENDBRANCH   1  10
TORSDOF 7
ENDMDL
