MODEL 1
REMARK VINA RESULT: -6.376425752      0.000      0.000
REMARK  5 active torsions:
REMARK  status: ('A' for Active; 'I' for Inactive)
REMARK    1  A    between atoms: N2_4  and  N3_6 
REMARK       I    between atoms: N3_6  and  C1_8 
REMARK       I    between atoms: C1_8  and  N6_18 
REMARK    2  A    between atoms: N4_9  and  C2_11 
REMARK    3  A    between atoms: C2_11  and  N5_13 
REMARK       I    between atoms: N6_18  and  C7_20 
REMARK    4  A    between atoms: C7_20  and  C8_22 
REMARK    5  A    between atoms: C9_23  and  C10_24 
REMARK       I    between atoms: C10_24  and  N7_26 
ROOT
HETATM    1  N3  UNL     1      41.840   5.369  37.357  1.00  0.00    -0.118 N 
ATOM      2  H3  UNL     1      41.818   6.124  36.672  1.00  0.00     0.207 HD
HETATM    3  C1  UNL     1      41.445   4.068  36.939  1.00  0.00     0.703 C 
HETATM    4  N4  UNL     1      40.218   3.699  37.069  1.00  0.00    -0.165 N 
ATOM      5  H4  UNL     1      39.958   2.761  36.763  1.00  0.00     0.186 HD
HETATM    6  N6  UNL     1      42.360   3.140  36.375  1.00  0.00    -0.155 N 
ATOM      7  H6  UNL     1      42.042   2.215  36.085  1.00  0.00     0.187 HD
HETATM    8  C7  UNL     1      43.717   3.510  36.216  1.00  0.00     0.259 C 
HETATM    9  O1  UNL     1      44.159   4.641  36.557  1.00  0.00    -0.268 OA
ENDROOT
BRANCH   1  10
HETATM   10  N2  UNL     1      42.257   5.667  38.657  1.00  0.00    -0.235 N 
HETATM   11  N1  UNL     1      42.686   4.787  39.473  1.00  0.00    -0.330 N 
ATOM     12  H12 UNL     1      42.721   3.822  39.144  1.00  0.00     0.178 HD
ATOM     13  H11 UNL     1      42.990   5.004  40.422  1.00  0.00     0.178 HD
ATOM     14  H2  UNL     1      42.215   6.637  38.969  1.00  0.00     0.208 HD
ENDBRANCH   1  10
BRANCH   4  15
HETATM   15  C2  UNL     1      39.213   4.530  37.614  1.00  0.00     0.188 C 
HETATM   16  S1  UNL     1      38.911   4.462  39.205  1.00  0.00    -0.040 SA
BRANCH  15  17
HETATM   17  N5  UNL     1      38.476   5.409  36.803  1.00  0.00    -0.358 N 
HETATM   18  C3  UNL     1      37.521   5.021  35.789  1.00  0.00     0.125 C 
HETATM   19  C4  UNL     1      36.537   6.174  35.831  1.00  0.00     0.021 C 
HETATM   20  C5  UNL     1      37.477   7.359  35.904  1.00  0.00     0.021 C 
HETATM   21  C6  UNL     1      38.546   6.858  36.844  1.00  0.00     0.125 C 
ENDBRANCH  15  17
ENDBRANCH   4  15
BRANCH   8  22
HETATM   22  C8  UNL     1      44.648   2.552  35.638  1.00  0.00     0.080 C 
HETATM   23  C9  UNL     1      44.396   1.940  34.504  1.00  0.00     0.080 C 
BRANCH  23  24
HETATM   24  C10 UNL     1      45.345   0.998  33.965  1.00  0.00     0.247 C 
HETATM   25  O2  UNL     1      45.046   0.354  32.924  1.00  0.00    -0.268 OA
HETATM   26  N7  UNL     1      46.584   0.837  34.638  1.00  0.00    -0.300 N 
HETATM   27  C11 UNL     1      46.790  -0.223  35.340  1.00  0.00     0.203 C 
ATOM     28  H7  UNL     1      47.304   1.554  34.566  1.00  0.00     0.171 HD
HETATM   29  N8  UNL     1      45.788  -1.209  35.431  1.00  0.00    -0.066 NA
HETATM   30  N9  UNL     1      48.034  -0.393  36.021  1.00  0.00    -0.066 NA
ENDBRANCH  23  24
ENDBRANCH   8  22
TORSDOF 5
ENDMDL
MODEL 2
REMARK VINA RESULT: -6.346968805      7.096      8.367
REMARK  5 active torsions:
REMARK  status: ('A' for Active; 'I' for Inactive)
REMARK    1  A    between atoms: N2_4  and  N3_6 
REMARK       I    between atoms: N3_6  and  C1_8 
REMARK       I    between atoms: C1_8  and  N6_18 
REMARK    2  A    between atoms: N4_9  and  C2_11 
REMARK    3  A    between atoms: C2_11  and  N5_13 
REMARK       I    between atoms: N6_18  and  C7_20 
REMARK    4  A    between atoms: C7_20  and  C8_22 
REMARK    5  A    between atoms: C9_23  and  C10_24 
REMARK       I    between atoms: C10_24  and  N7_26 
ROOT
HETATM    1  N3  UNL     1      39.360  -1.920  32.504  1.00  0.00    -0.118 N 
ATOM      2  H3  UNL     1      39.625  -1.513  33.401  1.00  0.00     0.207 HD
HETATM    3  C1  UNL     1      39.386  -1.087  31.352  1.00  0.00     0.703 C 
HETATM    4  N4  UNL     1      38.323  -0.451  30.998  1.00  0.00    -0.165 N 
ATOM      5  H4  UNL     1      38.365   0.140  30.168  1.00  0.00     0.186 HD
HETATM    6  N6  UNL     1      40.553  -0.920  30.559  1.00  0.00    -0.155 N 
ATOM      7  H6  UNL     1      40.536  -0.313  29.739  1.00  0.00     0.187 HD
HETATM    8  C7  UNL     1      41.741  -1.602  30.918  1.00  0.00     0.259 C 
HETATM    9  O1  UNL     1      41.813  -2.362  31.922  1.00  0.00    -0.268 OA
ENDROOT
BRANCH   1  10
HETATM   10  N2  UNL     1      38.992  -3.268  32.471  1.00  0.00    -0.235 N 
HETATM   11  N1  UNL     1      39.159  -4.014  31.452  1.00  0.00    -0.330 N 
ATOM     12  H12 UNL     1      39.585  -3.591  30.627  1.00  0.00     0.178 HD
ATOM     13  H11 UNL     1      38.890  -4.998  31.428  1.00  0.00     0.178 HD
ATOM     14  H2  UNL     1      38.568  -3.675  33.305  1.00  0.00     0.208 HD
ENDBRANCH   1  10
BRANCH   4  15
HETATM   15  C2  UNL     1      37.101  -0.533  31.703  1.00  0.00     0.188 C 
HETATM   16  S1  UNL     1      36.023  -1.667  31.283  1.00  0.00    -0.040 SA
BRANCH  15  17
HETATM   17  N5  UNL     1      36.808   0.349  32.757  1.00  0.00    -0.358 N 
HETATM   18  C3  UNL     1      37.544   1.551  33.080  1.00  0.00     0.125 C 
HETATM   19  C4  UNL     1      36.455   2.437  33.653  1.00  0.00     0.021 C 
HETATM   20  C5  UNL     1      35.718   1.458  34.543  1.00  0.00     0.021 C 
HETATM   21  C6  UNL     1      35.716   0.205  33.702  1.00  0.00     0.125 C 
ENDBRANCH  15  17
ENDBRANCH   4  15
BRANCH   8  22
HETATM   22  C8  UNL     1      42.931  -1.425  30.099  1.00  0.00     0.080 C 
HETATM   23  C9  UNL     1      42.856  -1.182  28.812  1.00  0.00     0.080 C 
BRANCH  23  24
HETATM   24  C10 UNL     1      44.059  -1.014  28.036  1.00  0.00     0.247 C 
HETATM   25  O2  UNL     1      44.852  -0.079  28.328  1.00  0.00    -0.268 OA
HETATM   26  N7  UNL     1      44.299  -1.918  26.969  1.00  0.00    -0.300 N 
HETATM   27  C11 UNL     1      44.139  -1.521  25.754  1.00  0.00     0.203 C 
ATOM     28  H7  UNL     1      44.596  -2.874  27.163  1.00  0.00     0.171 HD
HETATM   29  N8  UNL     1      43.731  -0.197  25.498  1.00  0.00    -0.066 NA
HETATM   30  N9  UNL     1      44.378  -2.424  24.675  1.00  0.00    -0.066 NA
ENDBRANCH  23  24
ENDBRANCH   8  22
TORSDOF 5
ENDMDL
MODEL 3
REMARK VINA RESULT: -6.273487817      4.807      6.671
REMARK  5 active torsions:
REMARK  status: ('A' for Active; 'I' for Inactive)
REMARK    1  A    between atoms: N2_4  and  N3_6 
REMARK       I    between atoms: N3_6  and  C1_8 
REMARK       I    between atoms: C1_8  and  N6_18 
REMARK    2  A    between atoms: N4_9  and  C2_11 
REMARK    3  A    between atoms: C2_11  and  N5_13 
REMARK       I    between atoms: N6_18  and  C7_20 
REMARK    4  A    between atoms: C7_20  and  C8_22 
REMARK    5  A    between atoms: C9_23  and  C10_24 
REMARK       I    between atoms: C10_24  and  N7_26 
ROOT
HETATM    1  N3  UNL     1      41.221   0.843  35.305  1.00  0.00    -0.118 N 
ATOM      2  H3  UNL     1      40.597   0.209  35.803  1.00  0.00     0.207 HD
HETATM    3  C1  UNL     1      42.341   0.290  34.625  1.00  0.00     0.703 C 
HETATM    4  N4  UNL     1      43.473   0.189  35.231  1.00  0.00    -0.165 N 
ATOM      5  H4  UNL     1      44.262  -0.210  34.723  1.00  0.00     0.186 HD
HETATM    6  N6  UNL     1      42.266  -0.164  33.281  1.00  0.00    -0.155 N 
ATOM      7  H6  UNL     1      43.089  -0.556  32.824  1.00  0.00     0.187 HD
HETATM    8  C7  UNL     1      41.039  -0.070  32.582  1.00  0.00     0.259 C 
HETATM    9  O1  UNL     1      39.993   0.405  33.102  1.00  0.00    -0.268 OA
ENDROOT
BRANCH   1  10
HETATM   10  N2  UNL     1      40.931   2.210  35.326  1.00  0.00    -0.235 N 
HETATM   11  N1  UNL     1      39.781   2.686  35.051  1.00  0.00    -0.330 N 
ATOM     12  H12 UNL     1      39.047   2.022  34.805  1.00  0.00     0.178 HD
ATOM     13  H11 UNL     1      39.570   3.684  35.066  1.00  0.00     0.178 HD
ATOM     14  H2  UNL     1      41.677   2.860  35.575  1.00  0.00     0.208 HD
ENDBRANCH   1  10
BRANCH   4  15
HETATM   15  C2  UNL     1      43.674   0.605  36.567  1.00  0.00     0.188 C 
HETATM   16  S1  UNL     1      43.426  -0.454  37.768  1.00  0.00    -0.040 SA
BRANCH  15  17
HETATM   17  N5  UNL     1      44.083   1.915  36.868  1.00  0.00    -0.358 N 
HETATM   18  C3  UNL     1      44.522   2.903  35.908  1.00  0.00     0.125 C 
HETATM   19  C4  UNL     1      44.072   4.194  36.563  1.00  0.00     0.021 C 
HETATM   20  C5  UNL     1      44.489   3.955  37.999  1.00  0.00     0.021 C 
HETATM   21  C6  UNL     1      44.134   2.502  38.195  1.00  0.00     0.125 C 
ENDBRANCH  15  17
ENDBRANCH   4  15
BRANCH   8  22
HETATM   22  C8  UNL     1      40.972  -0.538  31.205  1.00  0.00     0.080 C 
HETATM   23  C9  UNL     1      41.905  -1.302  30.688  1.00  0.00     0.080 C 
BRANCH  23  24
HETATM   24  C10 UNL     1      41.802  -1.744  29.320  1.00  0.00     0.247 C 
HETATM   25  O2  UNL     1      40.937  -2.609  29.017  1.00  0.00    -0.268 OA
HETATM   26  N7  UNL     1      42.687  -1.178  28.365  1.00  0.00    -0.300 N 
HETATM   27  C11 UNL     1      43.671  -1.879  27.921  1.00  0.00     0.203 C 
ATOM     28  H7  UNL     1      42.544  -0.225  28.035  1.00  0.00     0.171 HD
HETATM   29  N8  UNL     1      43.857  -3.197  28.383  1.00  0.00    -0.066 NA
HETATM   30  N9  UNL     1      44.567  -1.318  26.961  1.00  0.00    -0.066 NA
ENDBRANCH  23  24
ENDBRANCH   8  22
TORSDOF 5
ENDMDL
MODEL 4
REMARK VINA RESULT: -6.192270882      7.337      8.457
REMARK  5 active torsions:
REMARK  status: ('A' for Active; 'I' for Inactive)
REMARK    1  A    between atoms: N2_4  and  N3_6 
REMARK       I    between atoms: N3_6  and  C1_8 
REMARK       I    between atoms: C1_8  and  N6_18 
REMARK    2  A    between atoms: N4_9  and  C2_11 
REMARK    3  A    between atoms: C2_11  and  N5_13 
REMARK       I    between atoms: N6_18  and  C7_20 
REMARK    4  A    between atoms: C7_20  and  C8_22 
REMARK    5  A    between atoms: C9_23  and  C10_24 
REMARK       I    between atoms: C10_24  and  N7_26 
ROOT
HETATM    1  N3  UNL     1      38.953   0.215  31.380  1.00  0.00    -0.118 N 
ATOM      2  H3  UNL     1      38.572   0.811  30.645  1.00  0.00     0.207 HD
HETATM    3  C1  UNL     1      38.994  -1.188  31.155  1.00  0.00     0.703 C 
HETATM    4  N4  UNL     1      38.008  -1.926  31.531  1.00  0.00    -0.165 N 
ATOM      5  H4  UNL     1      38.060  -2.930  31.359  1.00  0.00     0.186 HD
HETATM    6  N6  UNL     1      40.095  -1.825  30.521  1.00  0.00    -0.155 N 
ATOM      7  H6  UNL     1      40.091  -2.835  30.375  1.00  0.00     0.187 HD
HETATM    8  C7  UNL     1      41.197  -1.047  30.093  1.00  0.00     0.259 C 
HETATM    9  O1  UNL     1      41.250   0.204  30.250  1.00  0.00    -0.268 OA
ENDROOT
BRANCH   1  10
HETATM   10  N2  UNL     1      39.408   0.820  32.555  1.00  0.00    -0.235 N 
HETATM   11  N1  UNL     1      40.314   0.316  33.296  1.00  0.00    -0.330 N 
ATOM     12  H12 UNL     1      40.716  -0.575  33.002  1.00  0.00     0.178 HD
ATOM     13  H11 UNL     1      40.646   0.757  34.153  1.00  0.00     0.178 HD
ATOM     14  H2  UNL     1      38.995   1.710  32.833  1.00  0.00     0.208 HD
ENDBRANCH   1  10
BRANCH   4  15
HETATM   15  C2  UNL     1      36.857  -1.412  32.170  1.00  0.00     0.188 C 
HETATM   16  S1  UNL     1      35.536  -1.101  31.285  1.00  0.00    -0.040 SA
BRANCH  15  17
HETATM   17  N5  UNL     1      36.841  -1.167  33.553  1.00  0.00    -0.358 N 
HETATM   18  C3  UNL     1      37.525  -1.951  34.557  1.00  0.00     0.125 C 
HETATM   19  C4  UNL     1      37.841  -0.904  35.607  1.00  0.00     0.021 C 
HETATM   20  C5  UNL     1      36.532  -0.144  35.667  1.00  0.00     0.021 C 
HETATM   21  C6  UNL     1      36.134  -0.084  34.212  1.00  0.00     0.125 C 
ENDBRANCH  15  17
ENDBRANCH   4  15
BRANCH   8  22
HETATM   22  C8  UNL     1      42.320  -1.709  29.446  1.00  0.00     0.080 C 
HETATM   23  C9  UNL     1      42.160  -2.469  28.389  1.00  0.00     0.080 C 
BRANCH  23  24
HETATM   24  C10 UNL     1      43.299  -3.107  27.778  1.00  0.00     0.247 C 
HETATM   25  O2  UNL     1      44.216  -3.561  28.513  1.00  0.00    -0.268 OA
HETATM   26  N7  UNL     1      43.336  -3.196  26.362  1.00  0.00    -0.300 N 
HETATM   27  C11 UNL     1      44.127  -2.427  25.699  1.00  0.00     0.203 C 
ATOM     28  H7  UNL     1      42.740  -3.865  25.874  1.00  0.00     0.171 HD
HETATM   29  N8  UNL     1      44.948  -1.508  26.384  1.00  0.00    -0.066 NA
HETATM   30  N9  UNL     1      44.171  -2.509  24.274  1.00  0.00    -0.066 NA
ENDBRANCH  23  24
ENDBRANCH   8  22
TORSDOF 5
ENDMDL
MODEL 5
REMARK VINA RESULT: -6.185753046      5.834      8.393
REMARK  5 active torsions:
REMARK  status: ('A' for Active; 'I' for Inactive)
REMARK    1  A    between atoms: N2_4  and  N3_6 
REMARK       I    between atoms: N3_6  and  C1_8 
REMARK       I    between atoms: C1_8  and  N6_18 
REMARK    2  A    between atoms: N4_9  and  C2_11 
REMARK    3  A    between atoms: C2_11  and  N5_13 
REMARK       I    between atoms: N6_18  and  C7_20 
REMARK    4  A    between atoms: C7_20  and  C8_22 
REMARK    5  A    between atoms: C9_23  and  C10_24 
REMARK       I    between atoms: C10_24  and  N7_26 
ROOT
HETATM    1  N3  UNL     1      44.308   0.825  35.374  1.00  0.00    -0.118 N 
ATOM      2  H3  UNL     1      43.519   1.188  35.908  1.00  0.00     0.207 HD
HETATM    3  C1  UNL     1      44.393  -0.580  35.168  1.00  0.00     0.703 C 
HETATM    4  N4  UNL     1      45.051  -1.311  36.000  1.00  0.00    -0.165 N 
ATOM      5  H4  UNL     1      45.098  -2.316  35.831  1.00  0.00     0.186 HD
HETATM    6  N6  UNL     1      43.772  -1.226  34.065  1.00  0.00    -0.155 N 
ATOM      7  H6  UNL     1      43.853  -2.236  33.948  1.00  0.00     0.187 HD
HETATM    8  C7  UNL     1      43.040  -0.456  33.130  1.00  0.00     0.259 C 
HETATM    9  O1  UNL     1      42.910   0.795  33.230  1.00  0.00    -0.268 OA
ENDROOT
BRANCH   1  10
HETATM   10  N2  UNL     1      45.250   1.733  34.882  1.00  0.00    -0.235 N 
HETATM   11  N1  UNL     1      45.983   1.500  33.866  1.00  0.00    -0.330 N 
ATOM     12  H12 UNL     1      45.863   0.600  33.400  1.00  0.00     0.178 HD
ATOM     13  H11 UNL     1      46.670   2.162  33.507  1.00  0.00     0.178 HD
ATOM     14  H2  UNL     1      45.356   2.627  35.360  1.00  0.00     0.208 HD
ENDBRANCH   1  10
BRANCH   4  15
HETATM   15  C2  UNL     1      45.711  -0.788  37.135  1.00  0.00     0.188 C 
HETATM   16  S1  UNL     1      44.934  -0.762  38.556  1.00  0.00    -0.040 SA
BRANCH  15  17
HETATM   17  N5  UNL     1      47.023  -0.293  37.050  1.00  0.00    -0.358 N 
HETATM   18  C3  UNL     1      47.611   0.694  37.928  1.00  0.00     0.125 C 
HETATM   19  C4  UNL     1      49.068   0.275  37.934  1.00  0.00     0.021 C 
HETATM   20  C5  UNL     1      49.299  -0.002  36.463  1.00  0.00     0.021 C 
HETATM   21  C6  UNL     1      48.014  -0.686  36.064  1.00  0.00     0.125 C 
ENDBRANCH  15  17
ENDBRANCH   4  15
BRANCH   8  22
HETATM   22  C8  UNL     1      42.408  -1.126  32.003  1.00  0.00     0.080 C 
HETATM   23  C9  UNL     1      42.952  -1.133  30.809  1.00  0.00     0.080 C 
BRANCH  23  24
HETATM   24  C10 UNL     1      42.294  -1.809  29.719  1.00  0.00     0.247 C 
HETATM   25  O2  UNL     1      41.441  -2.700  29.974  1.00  0.00    -0.268 OA
HETATM   26  N7  UNL     1      42.638  -1.435  28.394  1.00  0.00    -0.300 N 
HETATM   27  C11 UNL     1      43.375  -2.218  27.686  1.00  0.00     0.203 C 
ATOM     28  H7  UNL     1      42.305  -0.552  28.006  1.00  0.00     0.171 HD
HETATM   29  N8  UNL     1      43.828  -3.436  28.231  1.00  0.00    -0.066 NA
HETATM   30  N9  UNL     1      43.728  -1.850  26.352  1.00  0.00    -0.066 NA
ENDBRANCH  23  24
ENDBRANCH   8  22
TORSDOF 5
ENDMDL
