MODEL 1
REMARK VINA RESULT: -6.545448920      0.000      0.000
REMARK  6 active torsions:
REMARK  status: ('A' for Active; 'I' for Inactive)
REMARK       I    between atoms: C2_2  and  N1_4 
REMARK       I    between atoms: C3_6  and  N3_8 
REMARK    1  A    between atoms: N3_8  and  C4_10 
REMARK    2  A    between atoms: C4_10  and  C5_11 
REMARK    3  A    between atoms: C5_11  and  N5_20 
REMARK    4  A    between atoms: N4_12  and  C6_14 
REMARK    5  A    between atoms: C6_14  and  C9_17 
REMARK       I    between atoms: C12_22  and  N6_23 
REMARK       I    between atoms: C12_22  and  N8_27 
REMARK    6  A    between atoms: N8_27  and  N9_29 
ROOT
HETATM    1  N5  UNL     1      39.377  -2.903  30.647  1.00  0.00    -0.177 N 
ATOM      2  H5  UNL     1      39.742  -3.404  31.457  1.00  0.00     0.185 HD
HETATM    3  C12 UNL     1      38.917  -3.663  29.769  1.00  0.00     0.708 C 
HETATM    4  N6  UNL     1      38.984  -5.084  30.051  1.00  0.00    -0.124 N 
ATOM      5  H6  UNL     1      38.134  -5.572  30.333  1.00  0.00     0.197 HD
HETATM    6  C13 UNL     1      40.162  -5.797  29.948  1.00  0.00     0.196 C 
HETATM    7  N7  UNL     1      41.161  -6.396  29.881  1.00  0.00    -0.171 NA
HETATM    8  N8  UNL     1      38.336  -3.343  28.517  1.00  0.00    -0.117 N 
ATOM      9  H8  UNL     1      38.879  -2.876  27.791  1.00  0.00     0.207 HD
ENDROOT
BRANCH   1  10
HETATM   10  C5  UNL     1      39.498  -1.524  30.761  1.00  0.00     0.112 C 
HETATM   11  N4  UNL     1      38.710  -0.699  31.290  1.00  0.00    -0.369 N 
ATOM     12  H4  UNL     1      39.049   0.260  31.221  1.00  0.00     0.161 HD
BRANCH  10  13
HETATM   13  C4  UNL     1      40.747  -0.908  30.152  1.00  0.00     0.199 C 
BRANCH  13  14
HETATM   14  N3  UNL     1      41.897  -1.739  30.277  1.00  0.00    -0.357 N 
HETATM   15  C3  UNL     1      42.893  -1.689  29.267  1.00  0.00     0.191 C 
HETATM   16  N1  UNL     1      42.698  -2.276  28.144  1.00  0.00    -0.302 N 
HETATM   17  N2  UNL     1      44.107  -1.000  29.479  1.00  0.00    -0.063 NA
HETATM   18  C2  UNL     1      43.672  -2.248  27.113  1.00  0.00     0.220 C 
ATOM     19  H1  UNL     1      41.823  -2.775  27.988  1.00  0.00     0.171 HD
HETATM   20  C1  UNL     1      43.846  -1.054  26.254  1.00  0.00     0.117 C 
HETATM   21  O1  UNL     1      44.386  -3.243  26.933  1.00  0.00    -0.274 OA
ATOM     22  H3  UNL     1      42.003  -2.359  31.080  1.00  0.00     0.162 HD
ENDBRANCH  13  14
ENDBRANCH  10  13
BRANCH  11  23
HETATM   23  C6  UNL     1      37.474  -0.783  31.954  1.00  0.00     0.027 C 
HETATM   24  C7  UNL     1      37.688  -1.517  33.291  1.00  0.00     0.038 C 
HETATM   25  C8  UNL     1      36.380  -1.521  31.244  1.00  0.00     0.038 C 
BRANCH  23  26
HETATM   26  C9  UNL     1      36.931   0.590  32.347  1.00  0.00     0.005 C 
HETATM   27  C10 UNL     1      35.857   0.422  33.386  1.00  0.00     0.012 C 
HETATM   28  C11 UNL     1      38.000   1.479  32.883  1.00  0.00     0.012 C 
ENDBRANCH  23  26
ENDBRANCH  11  23
ENDBRANCH   1  10
BRANCH   8  29
HETATM   29  N9  UNL     1      36.983  -3.692  28.302  1.00  0.00    -0.235 N 
HETATM   30  N10 UNL     1      36.635  -4.663  27.576  1.00  0.00    -0.330 N 
ATOM     31 2H10 UNL     1      37.372  -5.210  27.132  1.00  0.00     0.178 HD
ATOM     32 1H10 UNL     1      35.658  -4.915  27.420  1.00  0.00     0.178 HD
ATOM     33  H9  UNL     1      36.258  -3.134  28.753  1.00  0.00     0.208 HD
ENDBRANCH   8  29
TORSDOF 6
ENDMDL
MODEL 2
REMARK VINA RESULT: -6.307819424      1.144      2.362
REMARK  6 active torsions:
REMARK  status: ('A' for Active; 'I' for Inactive)
REMARK       I    between atoms: C2_2  and  N1_4 
REMARK       I    between atoms: C3_6  and  N3_8 
REMARK    1  A    between atoms: N3_8  and  C4_10 
REMARK    2  A    between atoms: C4_10  and  C5_11 
REMARK    3  A    between atoms: C5_11  and  N5_20 
REMARK    4  A    between atoms: N4_12  and  C6_14 
REMARK    5  A    between atoms: C6_14  and  C9_17 
REMARK       I    between atoms: C12_22  and  N6_23 
REMARK       I    between atoms: C12_22  and  N8_27 
REMARK    6  A    between atoms: N8_27  and  N9_29 
ROOT
HETATM    1  N5  UNL     1      38.910  -1.640  29.889  1.00  0.00    -0.177 N 
ATOM      2  H5  UNL     1      38.409  -1.061  29.215  1.00  0.00     0.185 HD
HETATM    3  C12 UNL     1      38.841  -2.860  29.632  1.00  0.00     0.708 C 
HETATM    4  N6  UNL     1      38.082  -3.226  28.451  1.00  0.00    -0.124 N 
ATOM      5  H6  UNL     1      38.584  -3.496  27.605  1.00  0.00     0.197 HD
HETATM    6  C13 UNL     1      36.701  -3.219  28.437  1.00  0.00     0.196 C 
HETATM    7  N7  UNL     1      35.536  -3.194  28.417  1.00  0.00    -0.171 NA
HETATM    8  N8  UNL     1      39.396  -3.959  30.332  1.00  0.00    -0.117 N 
ATOM      9  H8  UNL     1      39.109  -4.171  31.288  1.00  0.00     0.207 HD
ENDROOT
BRANCH   1  10
HETATM   10  C5  UNL     1      39.520  -0.899  30.894  1.00  0.00     0.112 C 
HETATM   11  N4  UNL     1      39.076  -0.586  32.028  1.00  0.00    -0.369 N 
ATOM     12  H4  UNL     1      39.740  -0.024  32.562  1.00  0.00     0.161 HD
BRANCH  10  13
HETATM   13  C4  UNL     1      40.914  -0.375  30.590  1.00  0.00     0.199 C 
BRANCH  13  14
HETATM   14  N3  UNL     1      41.923  -1.374  30.707  1.00  0.00    -0.357 N 
HETATM   15  C3  UNL     1      42.860  -1.529  29.653  1.00  0.00     0.191 C 
HETATM   16  N1  UNL     1      42.518  -2.126  28.572  1.00  0.00    -0.302 N 
HETATM   17  N2  UNL     1      44.178  -1.034  29.776  1.00  0.00    -0.063 NA
HETATM   18  C2  UNL     1      43.429  -2.300  27.499  1.00  0.00     0.220 C 
ATOM     19  H1  UNL     1      41.568  -2.485  28.481  1.00  0.00     0.171 HD
HETATM   20  C1  UNL     1      43.745  -1.189  26.573  1.00  0.00     0.117 C 
HETATM   21  O1  UNL     1      43.967  -3.404  27.340  1.00  0.00    -0.274 OA
ATOM     22  H3  UNL     1      41.971  -1.967  31.536  1.00  0.00     0.162 HD
ENDBRANCH  13  14
ENDBRANCH  10  13
BRANCH  11  23
HETATM   23  C6  UNL     1      37.886  -0.824  32.737  1.00  0.00     0.027 C 
HETATM   24  C7  UNL     1      37.992  -0.140  34.112  1.00  0.00     0.038 C 
HETATM   25  C8  UNL     1      37.543  -2.257  33.009  1.00  0.00     0.038 C 
BRANCH  23  26
HETATM   26  C9  UNL     1      36.673  -0.173  32.072  1.00  0.00     0.005 C 
HETATM   27  C10 UNL     1      35.625  -1.220  31.816  1.00  0.00     0.012 C 
HETATM   28  C11 UNL     1      36.094   0.912  32.913  1.00  0.00     0.012 C 
ENDBRANCH  23  26
ENDBRANCH  11  23
ENDBRANCH   1  10
BRANCH   8  29
HETATM   29  N9  UNL     1      40.359  -4.754  29.668  1.00  0.00    -0.235 N 
HETATM   30  N10 UNL     1      40.221  -5.999  29.504  1.00  0.00    -0.330 N 
ATOM     31 2H10 UNL     1      39.374  -6.433  29.871  1.00  0.00     0.178 HD
ATOM     32 1H10 UNL     1      40.915  -6.573  29.025  1.00  0.00     0.178 HD
ATOM     33  H9  UNL     1      41.200  -4.304  29.307  1.00  0.00     0.208 HD
ENDBRANCH   8  29
TORSDOF 6
ENDMDL
MODEL 3
REMARK VINA RESULT: -6.298470284      8.927     10.795
REMARK  6 active torsions:
REMARK  status: ('A' for Active; 'I' for Inactive)
REMARK       I    between atoms: C2_2  and  N1_4 
REMARK       I    between atoms: C3_6  and  N3_8 
REMARK    1  A    between atoms: N3_8  and  C4_10 
REMARK    2  A    between atoms: C4_10  and  C5_11 
REMARK    3  A    between atoms: C5_11  and  N5_20 
REMARK    4  A    between atoms: N4_12  and  C6_14 
REMARK    5  A    between atoms: C6_14  and  C9_17 
REMARK       I    between atoms: C12_22  and  N6_23 
REMARK       I    between atoms: C12_22  and  N8_27 
REMARK    6  A    between atoms: N8_27  and  N9_29 
ROOT
HETATM    1  N5  UNL     1      46.222   1.023  36.255  1.00  0.00    -0.177 N 
ATOM      2  H5  UNL     1      46.368   1.777  35.584  1.00  0.00     0.185 HD
HETATM    3  C12 UNL     1      45.894  -0.055  35.716  1.00  0.00     0.708 C 
HETATM    4  N6  UNL     1      45.783  -0.042  34.270  1.00  0.00    -0.124 N 
ATOM      5  H6  UNL     1      46.526  -0.465  33.713  1.00  0.00     0.197 HD
HETATM    6  C13 UNL     1      44.703   0.526  33.623  1.00  0.00     0.196 C 
HETATM    7  N7  UNL     1      43.801   1.023  33.075  1.00  0.00    -0.171 NA
HETATM    8  N8  UNL     1      45.605  -1.307  36.312  1.00  0.00    -0.117 N 
ATOM      9  H8  UNL     1      44.814  -1.415  36.948  1.00  0.00     0.207 HD
ENDROOT
BRANCH   1  10
HETATM   10  C5  UNL     1      46.431   1.418  37.570  1.00  0.00     0.112 C 
HETATM   11  N4  UNL     1      45.693   2.110  38.317  1.00  0.00    -0.369 N 
ATOM     12  H4  UNL     1      46.103   2.256  39.240  1.00  0.00     0.161 HD
BRANCH  10  13
HETATM   13  C4  UNL     1      47.738   0.972  38.206  1.00  0.00     0.199 C 
BRANCH  13  14
HETATM   14  N3  UNL     1      48.784   0.785  37.257  1.00  0.00    -0.357 N 
HETATM   15  C3  UNL     1      49.567  -0.396  37.324  1.00  0.00     0.191 C 
HETATM   16  N1  UNL     1      50.476  -0.515  38.220  1.00  0.00    -0.302 N 
HETATM   17  N2  UNL     1      49.362  -1.453  36.410  1.00  0.00    -0.063 NA
HETATM   18  C2  UNL     1      51.278  -1.681  38.314  1.00  0.00     0.220 C 
ATOM     19  H1  UNL     1      50.626   0.247  38.880  1.00  0.00     0.171 HD
HETATM   20  C1  UNL     1      50.758  -2.922  38.934  1.00  0.00     0.117 C 
HETATM   21  O1  UNL     1      52.433  -1.654  37.869  1.00  0.00    -0.274 OA
ATOM     22  H3  UNL     1      48.967   1.490  36.542  1.00  0.00     0.162 HD
ENDBRANCH  13  14
ENDBRANCH  10  13
BRANCH  11  23
HETATM   23  C6  UNL     1      44.439   2.730  38.185  1.00  0.00     0.027 C 
HETATM   24  C7  UNL     1      44.092   3.416  39.519  1.00  0.00     0.038 C 
HETATM   25  C8  UNL     1      43.279   1.837  37.863  1.00  0.00     0.038 C 
BRANCH  23  26
HETATM   26  C9  UNL     1      44.454   3.862  37.159  1.00  0.00     0.005 C 
HETATM   27  C10 UNL     1      43.729   3.420  35.918  1.00  0.00     0.012 C 
HETATM   28  C11 UNL     1      43.817   5.101  37.687  1.00  0.00     0.012 C 
ENDBRANCH  23  26
ENDBRANCH  11  23
ENDBRANCH   1  10
BRANCH   8  29
HETATM   29  N9  UNL     1      46.442  -2.403  35.999  1.00  0.00    -0.235 N 
HETATM   30  N10 UNL     1      46.907  -3.180  36.879  1.00  0.00    -0.330 N 
ATOM     31 2H10 UNL     1      46.659  -2.996  37.851  1.00  0.00     0.178 HD
ATOM     32 1H10 UNL     1      47.511  -3.970  36.654  1.00  0.00     0.178 HD
ATOM     33  H9  UNL     1      46.680  -2.572  35.022  1.00  0.00     0.208 HD
ENDBRANCH   8  29
TORSDOF 6
ENDMDL
MODEL 4
REMARK VINA RESULT: -6.245017215      7.580     10.337
REMARK  6 active torsions:
REMARK  status: ('A' for Active; 'I' for Inactive)
REMARK       I    between atoms: C2_2  and  N1_4 
REMARK       I    between atoms: C3_6  and  N3_8 
REMARK    1  A    between atoms: N3_8  and  C4_10 
REMARK    2  A    between atoms: C4_10  and  C5_11 
REMARK    3  A    between atoms: C5_11  and  N5_20 
REMARK    4  A    between atoms: N4_12  and  C6_14 
REMARK    5  A    between atoms: C6_14  and  C9_17 
REMARK       I    between atoms: C12_22  and  N6_23 
REMARK       I    between atoms: C12_22  and  N8_27 
REMARK    6  A    between atoms: N8_27  and  N9_29 
ROOT
HETATM    1  N5  UNL     1      45.540   2.105  36.101  1.00  0.00    -0.177 N 
ATOM      2  H5  UNL     1      46.410   2.555  36.385  1.00  0.00     0.185 HD
HETATM    3  C12 UNL     1      44.544   2.527  36.727  1.00  0.00     0.708 C 
HETATM    4  N6  UNL     1      44.798   3.555  37.718  1.00  0.00    -0.124 N 
ATOM      5  H6  UNL     1      44.556   4.522  37.501  1.00  0.00     0.197 HD
HETATM    6  C13 UNL     1      45.357   3.265  38.948  1.00  0.00     0.196 C 
HETATM    7  N7  UNL     1      45.847   3.025  39.978  1.00  0.00    -0.171 NA
HETATM    8  N8  UNL     1      43.185   2.145  36.617  1.00  0.00    -0.117 N 
ATOM      9  H8  UNL     1      42.888   1.194  36.838  1.00  0.00     0.207 HD
ENDROOT
BRANCH   1  10
HETATM   10  C5  UNL     1      45.719   1.156  35.103  1.00  0.00     0.112 C 
HETATM   11  N4  UNL     1      46.422   0.113  35.118  1.00  0.00    -0.369 N 
ATOM     12  H4  UNL     1      46.375  -0.398  34.236  1.00  0.00     0.161 HD
BRANCH  10  13
HETATM   13  C4  UNL     1      44.980   1.405  33.799  1.00  0.00     0.199 C 
BRANCH  13  14
HETATM   14  N3  UNL     1      44.462   0.214  33.214  1.00  0.00    -0.357 N 
HETATM   15  C3  UNL     1      43.112  -0.143  33.466  1.00  0.00     0.191 C 
HETATM   16  N1  UNL     1      42.783  -0.657  34.593  1.00  0.00    -0.302 N 
HETATM   17  N2  UNL     1      42.114   0.059  32.486  1.00  0.00    -0.063 NA
HETATM   18  C2  UNL     1      41.443  -1.026  34.879  1.00  0.00     0.220 C 
ATOM     19  H1  UNL     1      43.501  -0.803  35.302  1.00  0.00     0.171 HD
HETATM   20  C1  UNL     1      40.430  -0.012  35.249  1.00  0.00     0.117 C 
HETATM   21  O1  UNL     1      41.123  -2.220  34.815  1.00  0.00    -0.274 OA
ATOM     22  H3  UNL     1      45.052  -0.372  32.623  1.00  0.00     0.162 HD
ENDBRANCH  13  14
ENDBRANCH  10  13
BRANCH  11  23
HETATM   23  C6  UNL     1      47.256  -0.517  36.057  1.00  0.00     0.027 C 
HETATM   24  C7  UNL     1      47.891  -1.752  35.394  1.00  0.00     0.038 C 
HETATM   25  C8  UNL     1      46.601  -1.008  37.313  1.00  0.00     0.038 C 
BRANCH  23  26
HETATM   26  C9  UNL     1      48.442   0.359  36.462  1.00  0.00     0.005 C 
HETATM   27  C10 UNL     1      48.569   0.364  37.960  1.00  0.00     0.012 C 
HETATM   28  C11 UNL     1      49.718  -0.119  35.860  1.00  0.00     0.012 C 
ENDBRANCH  23  26
ENDBRANCH  11  23
ENDBRANCH   1  10
BRANCH   8  29
HETATM   29  N9  UNL     1      42.251   3.118  36.194  1.00  0.00    -0.235 N 
HETATM   30  N10 UNL     1      41.311   3.528  36.929  1.00  0.00    -0.330 N 
ATOM     31 2H10 UNL     1      41.234   3.131  37.865  1.00  0.00     0.178 HD
ATOM     32 1H10 UNL     1      40.636   4.231  36.624  1.00  0.00     0.178 HD
ATOM     33  H9  UNL     1      42.342   3.505  35.254  1.00  0.00     0.208 HD
ENDBRANCH   8  29
TORSDOF 6
ENDMDL
MODEL 5
REMARK VINA RESULT: -6.112471424      9.605     11.790
REMARK  6 active torsions:
REMARK  status: ('A' for Active; 'I' for Inactive)
REMARK       I    between atoms: C2_2  and  N1_4 
REMARK       I    between atoms: C3_6  and  N3_8 
REMARK    1  A    between atoms: N3_8  and  C4_10 
REMARK    2  A    between atoms: C4_10  and  C5_11 
REMARK    3  A    between atoms: C5_11  and  N5_20 
REMARK    4  A    between atoms: N4_12  and  C6_14 
REMARK    5  A    between atoms: C6_14  and  C9_17 
REMARK       I    between atoms: C12_22  and  N6_23 
REMARK       I    between atoms: C12_22  and  N8_27 
REMARK    6  A    between atoms: N8_27  and  N9_29 
ROOT
HETATM    1  N5  UNL     1      48.436  -1.735  38.729  1.00  0.00    -0.177 N 
ATOM      2  H5  UNL     1      48.514  -2.444  39.459  1.00  0.00     0.185 HD
HETATM    3  C12 UNL     1      49.508  -1.127  38.522  1.00  0.00     0.708 C 
HETATM    4  N6  UNL     1      50.641  -1.528  39.334  1.00  0.00    -0.124 N 
ATOM      5  H6  UNL     1      51.368  -2.108  38.916  1.00  0.00     0.197 HD
HETATM    6  C13 UNL     1      50.765  -1.148  40.656  1.00  0.00     0.196 C 
HETATM    7  N7  UNL     1      50.861  -0.845  41.778  1.00  0.00    -0.171 NA
HETATM    8  N8  UNL     1      49.787  -0.086  37.604  1.00  0.00    -0.117 N 
ATOM      9  H8  UNL     1      49.319   0.818  37.677  1.00  0.00     0.207 HD
ENDROOT
BRANCH   1  10
HETATM   10  C5  UNL     1      47.162  -1.656  38.182  1.00  0.00     0.112 C 
HETATM   11  N4  UNL     1      46.239  -0.840  38.436  1.00  0.00    -0.369 N 
ATOM     12  H4  UNL     1      45.398  -1.023  37.888  1.00  0.00     0.161 HD
BRANCH  10  13
HETATM   13  C4  UNL     1      46.813  -2.705  37.139  1.00  0.00     0.199 C 
BRANCH  13  14
HETATM   14  N3  UNL     1      47.268  -2.366  35.833  1.00  0.00    -0.357 N 
HETATM   15  C3  UNL     1      46.913  -1.104  35.289  1.00  0.00     0.191 C 
HETATM   16  N1  UNL     1      45.731  -0.909  34.833  1.00  0.00    -0.302 N 
HETATM   17  N2  UNL     1      47.850  -0.047  35.239  1.00  0.00    -0.063 NA
HETATM   18  C2  UNL     1      45.343   0.339  34.283  1.00  0.00     0.220 C 
ATOM     19  H1  UNL     1      45.053  -1.670  34.868  1.00  0.00     0.171 HD
HETATM   20  C1  UNL     1      45.003   1.489  35.151  1.00  0.00     0.117 C 
HETATM   21  O1  UNL     1      45.291   0.462  33.052  1.00  0.00    -0.274 OA
ATOM     22  H3  UNL     1      47.839  -3.019  35.297  1.00  0.00     0.162 HD
ENDBRANCH  13  14
ENDBRANCH  10  13
BRANCH  11  23
HETATM   23  C6  UNL     1      46.089   0.263  39.293  1.00  0.00     0.027 C 
HETATM   24  C7  UNL     1      46.767   1.482  38.643  1.00  0.00     0.038 C 
HETATM   25  C8  UNL     1      46.687   0.135  40.662  1.00  0.00     0.038 C 
BRANCH  23  26
HETATM   26  C9  UNL     1      44.627   0.676  39.460  1.00  0.00     0.005 C 
HETATM   27  C10 UNL     1      44.512   2.169  39.331  1.00  0.00     0.012 C 
HETATM   28  C11 UNL     1      43.746   0.024  38.450  1.00  0.00     0.012 C 
ENDBRANCH  23  26
ENDBRANCH  11  23
ENDBRANCH   1  10
BRANCH   8  29
HETATM   29  N9  UNL     1      50.734  -0.334  36.584  1.00  0.00    -0.235 N 
HETATM   30  N10 UNL     1      50.725   0.278  35.479  1.00  0.00    -0.330 N 
ATOM     31 2H10 UNL     1      49.997   0.977  35.332  1.00  0.00     0.178 HD
ATOM     32 1H10 UNL     1      51.408   0.099  34.743  1.00  0.00     0.178 HD
ATOM     33  H9  UNL     1      51.456  -1.036  36.747  1.00  0.00     0.208 HD
ENDBRANCH   8  29
TORSDOF 6
ENDMDL
