MODEL 1
REMARK VINA RESULT: -6.541153769      0.000      0.000
REMARK  4 active torsions:
REMARK  status: ('A' for Active; 'I' for Inactive)
REMARK    1  A    between atoms: N1_2  and  N2_5 
REMARK       I    between atoms: N2_5  and  C4_7 
REMARK       I    between atoms: C4_7  and  N5_17 
REMARK       I    between atoms: N3_8  and  C5_10 
REMARK       I    between atoms: C5_10  and  N4_12 
REMARK       I    between atoms: N5_17  and  C10_19 
REMARK       I    between atoms: C10_19  and  N6_21 
REMARK    2  A    between atoms: N6_21  and  C11_23 
REMARK    3  A    between atoms: C11_23  and  C12_24 
REMARK    4  A    between atoms: C12_24  and  N7_25 
ROOT
HETATM    1  N2  UNL     1      39.028   0.029  31.404  1.00  0.00    -0.048 N 
ATOM      2  H2  UNL     1      39.384   0.893  30.998  1.00  0.00     0.213 HD
HETATM    3  C4  UNL     1      38.804  -1.082  30.567  1.00  0.00     0.710 C 
HETATM    4  N3  UNL     1      37.611  -1.572  30.499  1.00  0.00    -0.140 N 
ATOM      5  H3  UNL     1      36.883  -1.129  31.058  1.00  0.00     0.189 HD
HETATM    6  C5  UNL     1      37.246  -2.679  29.703  1.00  0.00     0.336 C 
HETATM    7  O1  UNL     1      36.667  -2.392  28.598  1.00  0.00    -0.246 OA
HETATM    8  N4  UNL     1      37.492  -4.018  30.079  1.00  0.00    -0.334 N 
HETATM    9  C6  UNL     1      38.132  -4.490  31.285  1.00  0.00     0.127 C 
HETATM   10  C7  UNL     1      37.911  -5.988  31.324  1.00  0.00     0.022 C 
HETATM   11  C8  UNL     1      36.750  -6.164  30.368  1.00  0.00     0.022 C 
HETATM   12  C9  UNL     1      37.122  -5.172  29.278  1.00  0.00     0.127 C 
HETATM   13  N5  UNL     1      39.845  -1.656  29.813  1.00  0.00    -0.140 N 
ATOM     14  H5  UNL     1      39.629  -2.458  29.220  1.00  0.00     0.189 HD
HETATM   15  C10 UNL     1      41.181  -1.177  29.836  1.00  0.00     0.334 C 
HETATM   16  O2  UNL     1      41.458  -0.202  30.559  1.00  0.00    -0.247 OA
HETATM   17  N6  UNL     1      42.187  -1.812  29.034  1.00  0.00    -0.341 N 
ATOM     18  H6  UNL     1      41.956  -2.611  28.443  1.00  0.00     0.164 HD
ENDROOT
BRANCH   1  19
HETATM   19  N1  UNL     1      38.774  -0.024  32.764  1.00  0.00     0.014 N 
HETATM   20  C1  UNL     1      37.416   0.506  32.996  1.00  0.00     0.302 C 
HETATM   21  C2  UNL     1      38.872  -1.357  33.314  1.00  0.00     0.302 C 
HETATM   22  C3  UNL     1      39.727   0.809  33.480  1.00  0.00     0.302 C 
ENDBRANCH   1  19
BRANCH  17  23
HETATM   23  C11 UNL     1      43.535  -1.293  29.083  1.00  0.00     0.144 C 
BRANCH  23  24
HETATM   24  C12 UNL     1      44.114  -1.206  27.674  1.00  0.00     0.141 C 
BRANCH  24  25
HETATM   25  N7  UNL     1      43.872  -2.465  27.027  1.00  0.00    -0.365 N 
HETATM   26  C13 UNL     1      44.009  -2.634  25.761  1.00  0.00     0.197 C 
HETATM   27  N8  UNL     1      43.761  -3.890  25.156  1.00  0.00    -0.067 NA
HETATM   28  N9  UNL     1      44.412  -1.556  24.940  1.00  0.00    -0.067 NA
ATOM     29  H7  UNL     1      43.580  -3.260  27.597  1.00  0.00     0.161 HD
ENDBRANCH  24  25
ENDBRANCH  23  24
ENDBRANCH  17  23
TORSDOF 4
ENDMDL
MODEL 2
REMARK VINA RESULT: -6.472038268      8.301     10.469
REMARK  4 active torsions:
REMARK  status: ('A' for Active; 'I' for Inactive)
REMARK    1  A    between atoms: N1_2  and  N2_5 
REMARK       I    between atoms: N2_5  and  C4_7 
REMARK       I    between atoms: C4_7  and  N5_17 
REMARK       I    between atoms: N3_8  and  C5_10 
REMARK       I    between atoms: C5_10  and  N4_12 
REMARK       I    between atoms: N5_17  and  C10_19 
REMARK       I    between atoms: C10_19  and  N6_21 
REMARK    2  A    between atoms: N6_21  and  C11_23 
REMARK    3  A    between atoms: C11_23  and  C12_24 
REMARK    4  A    between atoms: C12_24  and  N7_25 
ROOT
HETATM    1  N2  UNL     1      48.466  -1.304  35.754  1.00  0.00    -0.048 N 
ATOM      2  H2  UNL     1      48.795  -2.196  35.385  1.00  0.00     0.213 HD
HETATM    3  C4  UNL     1      47.163  -0.870  35.441  1.00  0.00     0.710 C 
HETATM    4  N3  UNL     1      47.020   0.255  34.823  1.00  0.00    -0.140 N 
ATOM      5  H3  UNL     1      47.863   0.779  34.590  1.00  0.00     0.189 HD
HETATM    6  C5  UNL     1      45.778   0.809  34.447  1.00  0.00     0.336 C 
HETATM    7  O1  UNL     1      45.456   0.649  33.218  1.00  0.00    -0.246 OA
HETATM    8  N4  UNL     1      44.932   1.496  35.346  1.00  0.00    -0.334 N 
HETATM    9  C6  UNL     1      45.161   1.749  36.750  1.00  0.00     0.127 C 
HETATM   10  C7  UNL     1      44.096   2.737  37.181  1.00  0.00     0.022 C 
HETATM   11  C8  UNL     1      43.645   3.318  35.858  1.00  0.00     0.022 C 
HETATM   12  C9  UNL     1      43.652   2.076  34.981  1.00  0.00     0.127 C 
HETATM   13  N5  UNL     1      46.031  -1.633  35.784  1.00  0.00    -0.140 N 
ATOM     14  H5  UNL     1      45.110  -1.275  35.530  1.00  0.00     0.189 HD
HETATM   15  C10 UNL     1      46.105  -2.877  36.464  1.00  0.00     0.334 C 
HETATM   16  O2  UNL     1      47.224  -3.322  36.782  1.00  0.00    -0.247 OA
HETATM   17  N6  UNL     1      44.906  -3.600  36.774  1.00  0.00    -0.341 N 
ATOM     18  H6  UNL     1      43.992  -3.231  36.512  1.00  0.00     0.164 HD
ENDROOT
BRANCH   1  19
HETATM   19  N1  UNL     1      49.311  -0.549  36.551  1.00  0.00     0.014 N 
HETATM   20  C1  UNL     1      50.296   0.112  35.673  1.00  0.00     0.302 C 
HETATM   21  C2  UNL     1      48.619   0.447  37.337  1.00  0.00     0.302 C 
HETATM   22  C3  UNL     1      50.022  -1.414  37.480  1.00  0.00     0.302 C 
ENDBRANCH   1  19
BRANCH  17  23
HETATM   23  C11 UNL     1      45.024  -4.863  37.466  1.00  0.00     0.144 C 
BRANCH  23  24
HETATM   24  C12 UNL     1      45.111  -6.006  36.458  1.00  0.00     0.141 C 
BRANCH  24  25
HETATM   25  N7  UNL     1      46.327  -5.834  35.712  1.00  0.00    -0.365 N 
HETATM   26  C13 UNL     1      46.516  -6.370  34.560  1.00  0.00     0.197 C 
HETATM   27  N8  UNL     1      47.727  -6.179  33.851  1.00  0.00    -0.067 NA
HETATM   28  N9  UNL     1      45.508  -7.168  33.973  1.00  0.00    -0.067 NA
ATOM     29  H7  UNL     1      47.070  -5.262  36.112  1.00  0.00     0.161 HD
ENDBRANCH  24  25
ENDBRANCH  23  24
ENDBRANCH  17  23
TORSDOF 4
ENDMDL
MODEL 3
REMARK VINA RESULT: -6.431134241      1.708      2.120
REMARK  4 active torsions:
REMARK  status: ('A' for Active; 'I' for Inactive)
REMARK    1  A    between atoms: N1_2  and  N2_5 
REMARK       I    between atoms: N2_5  and  C4_7 
REMARK       I    between atoms: C4_7  and  N5_17 
REMARK       I    between atoms: N3_8  and  C5_10 
REMARK       I    between atoms: C5_10  and  N4_12 
REMARK       I    between atoms: N5_17  and  C10_19 
REMARK       I    between atoms: C10_19  and  N6_21 
REMARK    2  A    between atoms: N6_21  and  C11_23 
REMARK    3  A    between atoms: C11_23  and  C12_24 
REMARK    4  A    between atoms: C12_24  and  N7_25 
ROOT
HETATM    1  N2  UNL     1      39.192  -2.016  31.396  1.00  0.00    -0.048 N 
ATOM      2  H2  UNL     1      39.708  -1.136  31.370  1.00  0.00     0.213 HD
HETATM    3  C4  UNL     1      38.740  -2.582  30.189  1.00  0.00     0.710 C 
HETATM    4  N3  UNL     1      37.472  -2.778  30.037  1.00  0.00    -0.140 N 
ATOM      5  H3  UNL     1      36.855  -2.512  30.805  1.00  0.00     0.189 HD
HETATM    6  C5  UNL     1      36.881  -3.335  28.883  1.00  0.00     0.336 C 
HETATM    7  O1  UNL     1      36.353  -2.492  28.077  1.00  0.00    -0.246 OA
HETATM    8  N4  UNL     1      36.861  -4.722  28.615  1.00  0.00    -0.334 N 
HETATM    9  C6  UNL     1      37.414  -5.782  29.425  1.00  0.00     0.127 C 
HETATM   10  C7  UNL     1      36.900  -7.079  28.834  1.00  0.00     0.022 C 
HETATM   11  C8  UNL     1      35.712  -6.610  28.020  1.00  0.00     0.022 C 
HETATM   12  C9  UNL     1      36.257  -5.317  27.436  1.00  0.00     0.127 C 
HETATM   13  N5  UNL     1      39.633  -2.930  29.159  1.00  0.00    -0.140 N 
ATOM     14  H5  UNL     1      39.253  -3.334  28.303  1.00  0.00     0.189 HD
HETATM   15  C10 UNL     1      41.038  -2.748  29.250  1.00  0.00     0.334 C 
HETATM   16  O2  UNL     1      41.515  -2.259  30.292  1.00  0.00    -0.247 OA
HETATM   17  N6  UNL     1      41.885  -3.122  28.154  1.00  0.00    -0.341 N 
ATOM     18  H6  UNL     1      41.491  -3.522  27.303  1.00  0.00     0.164 HD
ENDROOT
BRANCH   1  19
HETATM   19  N1  UNL     1      38.954  -2.623  32.618  1.00  0.00     0.014 N 
HETATM   20  C1  UNL     1      37.739  -2.019  33.199  1.00  0.00     0.302 C 
HETATM   21  C2  UNL     1      38.783  -4.056  32.522  1.00  0.00     0.302 C 
HETATM   22  C3  UNL     1      40.071  -2.382  33.518  1.00  0.00     0.302 C 
ENDBRANCH   1  19
BRANCH  17  23
HETATM   23  C11 UNL     1      43.310  -2.919  28.285  1.00  0.00     0.144 C 
BRANCH  23  24
HETATM   24  C12 UNL     1      43.968  -2.922  26.909  1.00  0.00     0.141 C 
BRANCH  24  25
HETATM   25  N7  UNL     1      43.830  -1.602  26.358  1.00  0.00    -0.365 N 
HETATM   26  C13 UNL     1      44.005  -1.347  25.112  1.00  0.00     0.197 C 
HETATM   27  N8  UNL     1      43.861  -0.034  24.603  1.00  0.00    -0.067 NA
HETATM   28  N9  UNL     1      44.350  -2.385  24.216  1.00  0.00    -0.067 NA
ATOM     29  H7  UNL     1      43.581  -0.835  26.983  1.00  0.00     0.161 HD
ENDBRANCH  24  25
ENDBRANCH  23  24
ENDBRANCH  17  23
TORSDOF 4
ENDMDL
MODEL 4
REMARK VINA RESULT: -6.429372532      1.407      1.613
REMARK  4 active torsions:
REMARK  status: ('A' for Active; 'I' for Inactive)
REMARK    1  A    between atoms: N1_2  and  N2_5 
REMARK       I    between atoms: N2_5  and  C4_7 
REMARK       I    between atoms: C4_7  and  N5_17 
REMARK       I    between atoms: N3_8  and  C5_10 
REMARK       I    between atoms: C5_10  and  N4_12 
REMARK       I    between atoms: N5_17  and  C10_19 
REMARK       I    between atoms: C10_19  and  N6_21 
REMARK    2  A    between atoms: N6_21  and  C11_23 
REMARK    3  A    between atoms: C11_23  and  C12_24 
REMARK    4  A    between atoms: C12_24  and  N7_25 
ROOT
HETATM    1  N2  UNL     1      39.928  -0.779  30.523  1.00  0.00    -0.048 N 
ATOM      2  H2  UNL     1      40.444  -0.086  29.981  1.00  0.00     0.213 HD
HETATM    3  C4  UNL     1      39.305  -1.849  29.854  1.00  0.00     0.710 C 
HETATM    4  N3  UNL     1      38.026  -1.991  29.973  1.00  0.00    -0.140 N 
ATOM      5  H3  UNL     1      37.526  -1.316  30.552  1.00  0.00     0.189 HD
HETATM    6  C5  UNL     1      37.274  -3.014  29.359  1.00  0.00     0.336 C 
HETATM    7  O1  UNL     1      36.646  -2.671  28.297  1.00  0.00    -0.246 OA
HETATM    8  N4  UNL     1      37.202  -4.332  29.863  1.00  0.00    -0.334 N 
HETATM    9  C6  UNL     1      37.852  -4.860  31.040  1.00  0.00     0.127 C 
HETATM   10  C7  UNL     1      37.247  -6.228  31.280  1.00  0.00     0.022 C 
HETATM   11  C8  UNL     1      35.962  -6.153  30.484  1.00  0.00     0.022 C 
HETATM   12  C9  UNL     1      36.432  -5.400  29.250  1.00  0.00     0.127 C 
HETATM   13  N5  UNL     1      40.041  -2.753  29.065  1.00  0.00    -0.140 N 
ATOM     14  H5  UNL     1      39.540  -3.509  28.599  1.00  0.00     0.189 HD
HETATM   15  C10 UNL     1      41.447  -2.666  28.886  1.00  0.00     0.334 C 
HETATM   16  O2  UNL     1      42.070  -1.750  29.454  1.00  0.00    -0.247 OA
HETATM   17  N6  UNL     1      42.127  -3.623  28.061  1.00  0.00    -0.341 N 
ATOM     18  H6  UNL     1      41.613  -4.372  27.598  1.00  0.00     0.164 HD
ENDROOT
BRANCH   1  19
HETATM   19  N1  UNL     1      39.858  -0.643  31.900  1.00  0.00     0.014 N 
HETATM   20  C1  UNL     1      38.827   0.368  32.207  1.00  0.00     0.302 C 
HETATM   21  C2  UNL     1      39.542  -1.878  32.582  1.00  0.00     0.302 C 
HETATM   22  C3  UNL     1      41.135  -0.179  32.419  1.00  0.00     0.302 C 
ENDBRANCH   1  19
BRANCH  17  23
HETATM   23  C11 UNL     1      43.559  -3.498  27.902  1.00  0.00     0.144 C 
BRANCH  23  24
HETATM   24  C12 UNL     1      43.907  -3.318  26.428  1.00  0.00     0.141 C 
BRANCH  24  25
HETATM   25  N7  UNL     1      43.796  -1.919  26.123  1.00  0.00    -0.365 N 
HETATM   26  C13 UNL     1      43.952  -1.451  24.937  1.00  0.00     0.197 C 
HETATM   27  N8  UNL     1      43.835  -0.065  24.673  1.00  0.00    -0.067 NA
HETATM   28  N9  UNL     1      44.246  -2.321  23.863  1.00  0.00    -0.067 NA
ATOM     29  H7  UNL     1      43.584  -1.269  26.880  1.00  0.00     0.161 HD
ENDBRANCH  24  25
ENDBRANCH  23  24
ENDBRANCH  17  23
TORSDOF 4
ENDMDL
MODEL 5
REMARK VINA RESULT: -6.381353008      1.347      1.746
REMARK  4 active torsions:
REMARK  status: ('A' for Active; 'I' for Inactive)
REMARK    1  A    between atoms: N1_2  and  N2_5 
REMARK       I    between atoms: N2_5  and  C4_7 
REMARK       I    between atoms: C4_7  and  N5_17 
REMARK       I    between atoms: N3_8  and  C5_10 
REMARK       I    between atoms: C5_10  and  N4_12 
REMARK       I    between atoms: N5_17  and  C10_19 
REMARK       I    between atoms: C10_19  and  N6_21 
REMARK    2  A    between atoms: N6_21  and  C11_23 
REMARK    3  A    between atoms: C11_23  and  C12_24 
REMARK    4  A    between atoms: C12_24  and  N7_25 
ROOT
HETATM    1  N2  UNL     1      38.822  -1.024  30.378  1.00  0.00    -0.048 N 
ATOM      2  H2  UNL     1      39.140  -0.216  29.843  1.00  0.00     0.213 HD
HETATM    3  C4  UNL     1      38.692  -2.268  29.733  1.00  0.00     0.710 C 
HETATM    4  N3  UNL     1      37.532  -2.838  29.720  1.00  0.00    -0.140 N 
ATOM      5  H3  UNL     1      36.761  -2.356  30.182  1.00  0.00     0.189 HD
HETATM    6  C5  UNL     1      37.258  -4.081  29.111  1.00  0.00     0.336 C 
HETATM    7  O1  UNL     1      36.699  -4.016  27.961  1.00  0.00    -0.246 OA
HETATM    8  N4  UNL     1      37.570  -5.322  29.709  1.00  0.00    -0.334 N 
HETATM    9  C6  UNL     1      38.198  -5.548  30.990  1.00  0.00     0.127 C 
HETATM   10  C7  UNL     1      38.064  -7.031  31.272  1.00  0.00     0.022 C 
HETATM   11  C8  UNL     1      36.947  -7.434  30.333  1.00  0.00     0.022 C 
HETATM   12  C9  UNL     1      37.295  -6.613  29.102  1.00  0.00     0.127 C 
HETATM   13  N5  UNL     1      39.788  -2.891  29.107  1.00  0.00    -0.140 N 
ATOM     14  H5  UNL     1      39.638  -3.791  28.651  1.00  0.00     0.189 HD
HETATM   15  C10 UNL     1      41.092  -2.331  29.080  1.00  0.00     0.334 C 
HETATM   16  O2  UNL     1      41.287  -1.235  29.638  1.00  0.00    -0.247 OA
HETATM   17  N6  UNL     1      42.159  -3.024  28.417  1.00  0.00    -0.341 N 
ATOM     18  H6  UNL     1      41.995  -3.922  27.962  1.00  0.00     0.164 HD
ENDROOT
BRANCH   1  19
HETATM   19  N1  UNL     1      38.527  -0.868  31.723  1.00  0.00     0.014 N 
HETATM   20  C1  UNL     1      39.229   0.336  32.208  1.00  0.00     0.302 C 
HETATM   21  C2  UNL     1      37.112  -0.743  31.989  1.00  0.00     0.302 C 
HETATM   22  C3  UNL     1      39.007  -2.019  32.472  1.00  0.00     0.302 C 
ENDBRANCH   1  19
BRANCH  17  23
HETATM   23  C11 UNL     1      43.472  -2.419  28.410  1.00  0.00     0.144 C 
BRANCH  23  24
HETATM   24  C12 UNL     1      44.110  -2.572  27.032  1.00  0.00     0.141 C 
BRANCH  24  25
HETATM   25  N7  UNL     1      43.918  -1.337  26.325  1.00  0.00    -0.365 N 
HETATM   26  C13 UNL     1      44.016  -1.245  25.047  1.00  0.00     0.197 C 
HETATM   27  N8  UNL     1      43.821  -0.011  24.383  1.00  0.00    -0.067 NA
HETATM   28  N9  UNL     1      44.325  -2.387  24.274  1.00  0.00    -0.067 NA
ATOM     29  H7  UNL     1      43.694  -0.497  26.859  1.00  0.00     0.161 HD
ENDBRANCH  24  25
ENDBRANCH  23  24
ENDBRANCH  17  23
TORSDOF 4
ENDMDL
