MODEL 1
REMARK VINA RESULT: -6.253202781      0.000      0.000
REMARK  5 active torsions:
REMARK  status: ('A' for Active; 'I' for Inactive)
REMARK    1  A    between atoms: C2_2  and  C3_3 
REMARK    2  A    between atoms: C3_3  and  C4_4 
REMARK    3  A    between atoms: C5_5  and  C6_6 
REMARK    4  A    between atoms: C6_6  and  N1_7 
REMARK       I    between atoms: N1_7  and  C8_9 
REMARK       I    between atoms: C8_9  and  N3_13 
REMARK       I    between atoms: N3_13  and  C9_15 
REMARK       I    between atoms: C9_15  and  N5_19 
REMARK    5  A    between atoms: N5_19  and  C10_21 
ROOT
HETATM    1  N1  UNL     1      49.910  -1.519  39.296  1.00  0.00    -0.211 N 
HETATM    2  C7  UNL     1      50.664  -2.744  39.252  1.00  0.00     0.169 C 
HETATM    3  C8  UNL     1      50.235  -0.480  38.396  1.00  0.00     0.688 C 
HETATM    4  N2  UNL     1      51.479  -0.306  38.126  1.00  0.00    -0.234 N 
ATOM      5  H21 UNL     1      51.713   0.445  37.477  1.00  0.00     0.174 HD
ATOM      6  H22 UNL     1      52.217  -0.882  38.532  1.00  0.00     0.174 HD
HETATM    7  N3  UNL     1      49.215   0.317  37.835  1.00  0.00    -0.023 N 
ATOM      8  H3  UNL     1      48.765   1.005  38.439  1.00  0.00     0.203 HD
HETATM    9  C9  UNL     1      48.770   0.229  36.490  1.00  0.00     0.686 C 
HETATM   10  N4  UNL     1      49.495  -0.312  35.572  1.00  0.00    -0.234 N 
ATOM     11  H41 UNL     1      49.176  -0.375  34.605  1.00  0.00     0.174 HD
ATOM     12  H42 UNL     1      50.410  -0.683  35.826  1.00  0.00     0.174 HD
HETATM   13  N5  UNL     1      47.497   0.745  36.136  1.00  0.00    -0.216 N 
ATOM     14  H5  UNL     1      47.384   1.669  35.719  1.00  0.00     0.178 HD
ENDROOT
BRANCH  13  15
HETATM   15  C10 UNL     1      46.363  -0.124  36.405  1.00  0.00     0.149 C 
HETATM   16  C11 UNL     1      45.968  -0.710  35.082  1.00  0.00     0.000 C 
HETATM   17  C12 UNL     1      45.405   0.123  34.214  1.00  0.00     0.026 C 
HETATM   18  C13 UNL     1      45.214   1.528  34.603  1.00  0.00     0.327 C 
HETATM   19  N6  UNL     1      43.865   1.947  34.201  1.00  0.00    -0.304 N 
HETATM   20  N7  UNL     1      44.779   1.714  35.948  1.00  0.00     0.036 N 
HETATM   21  C14 UNL     1      43.424   1.601  35.496  1.00  0.00     0.418 C 
ATOM     22  H6  UNL     1      43.437   2.323  33.355  1.00  0.00     0.166 HD
HETATM   23  O1  UNL     1      42.393   1.315  36.083  1.00  0.00    -0.239 OA
HETATM   24  C15 UNL     1      45.004   3.072  36.406  1.00  0.00     0.288 C 
HETATM   25  C16 UNL     1      45.191   0.709  36.880  1.00  0.00     0.281 C 
ENDBRANCH  13  15
BRANCH   1  26
HETATM   26  C6  UNL     1      48.854  -1.350  40.238  1.00  0.00     0.234 C 
BRANCH  26  27
HETATM   27  C5  UNL     1      49.507  -0.895  41.493  1.00  0.00    -0.086 C 
HETATM   28  C4  UNL     1      50.017  -0.533  42.525  1.00  0.00    -0.105 C 
BRANCH  28  29
HETATM   29  C3  UNL     1      50.612  -0.102  43.791  1.00  0.00     0.093 C 
BRANCH  29  30
HETATM   30  C2  UNL     1      52.134  -0.158  43.714  1.00  0.00     0.007 C 
HETATM   31  C1  UNL     1      52.754   0.718  44.788  1.00  0.00     0.006 C 
ENDBRANCH  29  30
ENDBRANCH  28  29
ENDBRANCH  26  27
ENDBRANCH   1  26
TORSDOF 5
ENDMDL
MODEL 2
REMARK VINA RESULT: -6.016834947      5.829     11.192
REMARK  5 active torsions:
REMARK  status: ('A' for Active; 'I' for Inactive)
REMARK    1  A    between atoms: C2_2  and  C3_3 
REMARK    2  A    between atoms: C3_3  and  C4_4 
REMARK    3  A    between atoms: C5_5  and  C6_6 
REMARK    4  A    between atoms: C6_6  and  N1_7 
REMARK       I    between atoms: N1_7  and  C8_9 
REMARK       I    between atoms: C8_9  and  N3_13 
REMARK       I    between atoms: N3_13  and  C9_15 
REMARK       I    between atoms: C9_15  and  N5_19 
REMARK    5  A    between atoms: N5_19  and  C10_21 
ROOT
HETATM    1  N1  UNL     1      41.606  -1.617  29.796  1.00  0.00    -0.211 N 
HETATM    2  C7  UNL     1      40.977  -2.721  29.120  1.00  0.00     0.169 C 
HETATM    3  C8  UNL     1      40.798  -0.662  30.451  1.00  0.00     0.688 C 
HETATM    4  N2  UNL     1      39.686  -0.351  29.889  1.00  0.00    -0.234 N 
ATOM      5  H21 UNL     1      39.103   0.339  30.362  1.00  0.00     0.174 HD
ATOM      6  H22 UNL     1      39.379  -0.764  29.007  1.00  0.00     0.174 HD
HETATM    7  N3  UNL     1      41.222  -0.090  31.669  1.00  0.00    -0.023 N 
ATOM      8  H3  UNL     1      41.974   0.598  31.633  1.00  0.00     0.203 HD
HETATM    9  C9  UNL     1      40.676  -0.405  32.941  1.00  0.00     0.686 C 
HETATM   10  N4  UNL     1      39.514  -0.949  33.063  1.00  0.00    -0.234 N 
ATOM     11  H41 UNL     1      39.121  -1.175  33.976  1.00  0.00     0.174 HD
ATOM     12  H42 UNL     1      38.979  -1.155  32.219  1.00  0.00     0.174 HD
HETATM   13  N5  UNL     1      41.420  -0.119  34.114  1.00  0.00    -0.216 N 
ATOM     14  H5  UNL     1      41.255   0.721  34.668  1.00  0.00     0.178 HD
ENDROOT
BRANCH  13  15
HETATM   15  C10 UNL     1      42.431  -1.097  34.479  1.00  0.00     0.149 C 
HETATM   16  C11 UNL     1      42.404  -1.182  35.976  1.00  0.00     0.000 C 
HETATM   17  C12 UNL     1      42.873  -0.127  36.634  1.00  0.00     0.026 C 
HETATM   18  C13 UNL     1      43.373   1.022  35.864  1.00  0.00     0.327 C 
HETATM   19  N6  UNL     1      44.637   1.471  36.459  1.00  0.00    -0.304 N 
HETATM   20  N7  UNL     1      44.135   0.674  34.712  1.00  0.00     0.036 N 
HETATM   21  C14 UNL     1      45.311   0.646  35.532  1.00  0.00     0.418 C 
ATOM     22  H6  UNL     1      44.910   2.102  37.213  1.00  0.00     0.166 HD
HETATM   23  O1  UNL     1      46.392   0.099  35.385  1.00  0.00    -0.239 OA
HETATM   24  C15 UNL     1      44.245   1.780  33.781  1.00  0.00     0.288 C 
HETATM   25  C16 UNL     1      43.800  -0.574  34.096  1.00  0.00     0.281 C 
ENDBRANCH  13  15
BRANCH   1  26
HETATM   26  C6  UNL     1      43.025  -1.481  29.800  1.00  0.00     0.234 C 
BRANCH  26  27
HETATM   27  C5  UNL     1      43.420  -1.367  28.371  1.00  0.00    -0.086 C 
HETATM   28  C4  UNL     1      43.736  -1.298  27.209  1.00  0.00    -0.105 C 
BRANCH  28  29
HETATM   29  C3  UNL     1      44.118  -1.245  25.796  1.00  0.00     0.093 C 
BRANCH  29  30
HETATM   30  C2  UNL     1      44.177  -2.649  25.205  1.00  0.00     0.007 C 
HETATM   31  C1  UNL     1      43.491  -3.643  26.125  1.00  0.00     0.006 C 
ENDBRANCH  29  30
ENDBRANCH  28  29
ENDBRANCH  26  27
ENDBRANCH   1  26
TORSDOF 5
ENDMDL
MODEL 3
REMARK VINA RESULT: -5.926938367      1.158      1.281
REMARK  5 active torsions:
REMARK  status: ('A' for Active; 'I' for Inactive)
REMARK    1  A    between atoms: C2_2  and  C3_3 
REMARK    2  A    between atoms: C3_3  and  C4_4 
REMARK    3  A    between atoms: C5_5  and  C6_6 
REMARK    4  A    between atoms: C6_6  and  N1_7 
REMARK       I    between atoms: N1_7  and  C8_9 
REMARK       I    between atoms: C8_9  and  N3_13 
REMARK       I    between atoms: N3_13  and  C9_15 
REMARK       I    between atoms: C9_15  and  N5_19 
REMARK    5  A    between atoms: N5_19  and  C10_21 
ROOT
HETATM    1  N1  UNL     1      49.122  -1.497  39.108  1.00  0.00    -0.211 N 
HETATM    2  C7  UNL     1      49.786  -2.745  38.838  1.00  0.00     0.169 C 
HETATM    3  C8  UNL     1      49.458  -0.360  38.341  1.00  0.00     0.688 C 
HETATM    4  N2  UNL     1      50.691  -0.222  38.007  1.00  0.00    -0.234 N 
ATOM      5  H21 UNL     1      50.933   0.600  37.454  1.00  0.00     0.174 HD
ATOM      6  H22 UNL     1      51.412  -0.893  38.272  1.00  0.00     0.174 HD
HETATM    7  N3  UNL     1      48.461   0.568  37.975  1.00  0.00    -0.023 N 
ATOM      8  H3  UNL     1      48.099   1.187  38.700  1.00  0.00     0.203 HD
HETATM    9  C9  UNL     1      47.925   0.701  36.667  1.00  0.00     0.686 C 
HETATM   10  N4  UNL     1      48.549   0.257  35.631  1.00  0.00    -0.234 N 
ATOM     11  H41 UNL     1      48.164   0.352  34.691  1.00  0.00     0.174 HD
ATOM     12  H42 UNL     1      49.452  -0.200  35.762  1.00  0.00     0.174 HD
HETATM   13  N5  UNL     1      46.669   1.336  36.484  1.00  0.00    -0.216 N 
ATOM     14  H5  UNL     1      46.593   2.315  36.210  1.00  0.00     0.178 HD
ENDROOT
BRANCH  13  15
HETATM   15  C10 UNL     1      45.499   0.506  36.712  1.00  0.00     0.149 C 
HETATM   16  C11 UNL     1      44.812   0.384  35.384  1.00  0.00     0.000 C 
HETATM   17  C12 UNL     1      44.217   1.480  34.926  1.00  0.00     0.026 C 
HETATM   18  C13 UNL     1      44.273   2.706  35.736  1.00  0.00     0.327 C 
HETATM   19  N6  UNL     1      42.939   3.319  35.753  1.00  0.00    -0.304 N 
HETATM   20  N7  UNL     1      44.103   2.498  37.136  1.00  0.00     0.036 N 
HETATM   21  C14 UNL     1      42.686   2.621  36.953  1.00  0.00     0.418 C 
ATOM     22  H6  UNL     1      42.422   3.966  35.157  1.00  0.00     0.166 HD
HETATM   23  O1  UNL     1      41.744   2.239  37.628  1.00  0.00    -0.239 OA
HETATM   24  C15 UNL     1      44.571   3.629  37.912  1.00  0.00     0.288 C 
HETATM   25  C16 UNL     1      44.539   1.229  37.634  1.00  0.00     0.281 C 
ENDBRANCH  13  15
BRANCH   1  26
HETATM   26  C6  UNL     1      48.143  -1.404  40.140  1.00  0.00     0.234 C 
BRANCH  26  27
HETATM   27  C5  UNL     1      48.875  -0.927  41.343  1.00  0.00    -0.086 C 
HETATM   28  C4  UNL     1      49.483  -0.560  42.318  1.00  0.00    -0.105 C 
BRANCH  28  29
HETATM   29  C3  UNL     1      50.236  -0.141  43.502  1.00  0.00     0.093 C 
BRANCH  29  30
HETATM   30  C2  UNL     1      51.723  -0.430  43.321  1.00  0.00     0.007 C 
HETATM   31  C1  UNL     1      52.543   0.341  44.339  1.00  0.00     0.006 C 
ENDBRANCH  29  30
ENDBRANCH  28  29
ENDBRANCH  26  27
ENDBRANCH   1  26
TORSDOF 5
ENDMDL
MODEL 4
REMARK VINA RESULT: -5.843349306      3.484      5.865
REMARK  5 active torsions:
REMARK  status: ('A' for Active; 'I' for Inactive)
REMARK    1  A    between atoms: C2_2  and  C3_3 
REMARK    2  A    between atoms: C3_3  and  C4_4 
REMARK    3  A    between atoms: C5_5  and  C6_6 
REMARK    4  A    between atoms: C6_6  and  N1_7 
REMARK       I    between atoms: N1_7  and  C8_9 
REMARK       I    between atoms: C8_9  and  N3_13 
REMARK       I    between atoms: N3_13  and  C9_15 
REMARK       I    between atoms: C9_15  and  N5_19 
REMARK    5  A    between atoms: N5_19  and  C10_21 
ROOT
HETATM    1  N1  UNL     1      46.081   0.777  35.886  1.00  0.00    -0.211 N 
HETATM    2  C7  UNL     1      46.527  -0.553  35.565  1.00  0.00     0.169 C 
HETATM    3  C8  UNL     1      45.331   1.499  34.933  1.00  0.00     0.688 C 
HETATM    4  N2  UNL     1      45.655   1.353  33.698  1.00  0.00    -0.234 N 
ATOM      5  H21 UNL     1      45.113   1.875  33.010  1.00  0.00     0.174 HD
ATOM      6  H22 UNL     1      46.418   0.746  33.397  1.00  0.00     0.174 HD
HETATM    7  N3  UNL     1      44.276   2.339  35.349  1.00  0.00    -0.023 N 
ATOM      8  H3  UNL     1      44.521   3.222  35.797  1.00  0.00     0.203 HD
HETATM    9  C9  UNL     1      42.897   2.042  35.187  1.00  0.00     0.686 C 
HETATM   10  N4  UNL     1      42.488   1.173  34.328  1.00  0.00    -0.234 N 
ATOM     11  H41 UNL     1      41.497   0.959  34.211  1.00  0.00     0.174 HD
ATOM     12  H42 UNL     1      43.179   0.692  33.752  1.00  0.00     0.174 HD
HETATM   13  N5  UNL     1      41.937   2.711  35.988  1.00  0.00    -0.216 N 
ATOM     14  H5  UNL     1      41.418   3.521  35.647  1.00  0.00     0.178 HD
ENDROOT
BRANCH  13  15
HETATM   15  C10 UNL     1      41.737   2.173  37.323  1.00  0.00     0.149 C 
HETATM   16  C11 UNL     1      40.370   2.618  37.749  1.00  0.00     0.000 C 
HETATM   17  C12 UNL     1      40.227   3.913  38.012  1.00  0.00     0.026 C 
HETATM   18  C13 UNL     1      41.394   4.796  37.869  1.00  0.00     0.327 C 
HETATM   19  N6  UNL     1      41.448   5.693  39.030  1.00  0.00    -0.304 N 
HETATM   20  N7  UNL     1      42.617   4.241  38.346  1.00  0.00     0.036 N 
HETATM   21  C14 UNL     1      42.315   4.764  39.646  1.00  0.00     0.418 C 
ATOM     22  H6  UNL     1      41.039   6.592  39.281  1.00  0.00     0.166 HD
HETATM   23  O1  UNL     1      42.708   4.453  40.758  1.00  0.00    -0.239 OA
HETATM   24  C15 UNL     1      43.771   4.943  37.819  1.00  0.00     0.288 C 
HETATM   25  C16 UNL     1      42.722   2.815  38.278  1.00  0.00     0.281 C 
ENDBRANCH  13  15
BRANCH   1  26
HETATM   26  C6  UNL     1      46.397   1.364  37.146  1.00  0.00     0.234 C 
BRANCH  26  27
HETATM   27  C5  UNL     1      47.644   0.693  37.598  1.00  0.00    -0.086 C 
HETATM   28  C4  UNL     1      48.650   0.152  37.988  1.00  0.00    -0.105 C 
BRANCH  28  29
HETATM   29  C3  UNL     1      49.862  -0.498  38.490  1.00  0.00     0.093 C 
BRANCH  29  30
HETATM   30  C2  UNL     1      50.750  -0.941  37.332  1.00  0.00     0.007 C 
HETATM   31  C1  UNL     1      52.128  -1.326  37.836  1.00  0.00     0.006 C 
ENDBRANCH  29  30
ENDBRANCH  28  29
ENDBRANCH  26  27
ENDBRANCH   1  26
TORSDOF 5
ENDMDL
MODEL 5
REMARK VINA RESULT: -5.823562236      3.477      9.389
REMARK  5 active torsions:
REMARK  status: ('A' for Active; 'I' for Inactive)
REMARK    1  A    between atoms: C2_2  and  C3_3 
REMARK    2  A    between atoms: C3_3  and  C4_4 
REMARK    3  A    between atoms: C5_5  and  C6_6 
REMARK    4  A    between atoms: C6_6  and  N1_7 
REMARK       I    between atoms: N1_7  and  C8_9 
REMARK       I    between atoms: C8_9  and  N3_13 
REMARK       I    between atoms: N3_13  and  C9_15 
REMARK       I    between atoms: C9_15  and  N5_19 
REMARK    5  A    between atoms: N5_19  and  C10_21 
ROOT
HETATM    1  N1  UNL     1      42.229   1.155  35.311  1.00  0.00    -0.211 N 
HETATM    2  C7  UNL     1      41.170   1.661  36.144  1.00  0.00     0.169 C 
HETATM    3  C8  UNL     1      43.294   2.012  34.958  1.00  0.00     0.688 C 
HETATM    4  N2  UNL     1      43.005   3.242  34.726  1.00  0.00    -0.234 N 
ATOM      5  H21 UNL     1      43.774   3.861  34.471  1.00  0.00     0.174 HD
ATOM      6  H22 UNL     1      42.053   3.606  34.790  1.00  0.00     0.174 HD
HETATM    7  N3  UNL     1      44.609   1.510  34.869  1.00  0.00    -0.023 N 
ATOM      8  H3  UNL     1      44.840   0.923  34.067  1.00  0.00     0.203 HD
HETATM    9  C9  UNL     1      45.635   1.763  35.817  1.00  0.00     0.686 C 
HETATM   10  N4  UNL     1      45.572   2.759  36.633  1.00  0.00    -0.234 N 
ATOM     11  H41 UNL     1      46.309   2.940  37.314  1.00  0.00     0.174 HD
ATOM     12  H42 UNL     1      44.762   3.377  36.588  1.00  0.00     0.174 HD
HETATM   13  N5  UNL     1      46.761   0.903  35.879  1.00  0.00    -0.216 N 
ATOM     14  H5  UNL     1      47.643   1.133  35.422  1.00  0.00     0.178 HD
ENDROOT
BRANCH  13  15
HETATM   15  C10 UNL     1      46.581  -0.327  36.633  1.00  0.00     0.149 C 
HETATM   16  C11 UNL     1      46.586   0.069  38.080  1.00  0.00     0.000 C 
HETATM   17  C12 UNL     1      47.753   0.463  38.578  1.00  0.00     0.026 C 
HETATM   18  C13 UNL     1      48.929   0.481  37.696  1.00  0.00     0.327 C 
HETATM   19  N6  UNL     1      50.066  -0.103  38.419  1.00  0.00    -0.304 N 
HETATM   20  N7  UNL     1      49.024  -0.636  36.815  1.00  0.00     0.036 N 
HETATM   21  C14 UNL     1      49.736  -1.346  37.837  1.00  0.00     0.418 C 
ATOM     22  H6  UNL     1      50.781   0.241  39.060  1.00  0.00     0.166 HD
HETATM   23  O1  UNL     1      49.915  -2.538  38.023  1.00  0.00    -0.239 OA
HETATM   24  C15 UNL     1      49.929  -0.379  35.712  1.00  0.00     0.288 C 
HETATM   25  C16 UNL     1      47.781  -1.228  36.424  1.00  0.00     0.281 C 
ENDBRANCH  13  15
BRANCH   1  26
HETATM   26  C6  UNL     1      42.203  -0.190  34.841  1.00  0.00     0.234 C 
BRANCH  26  27
HETATM   27  C5  UNL     1      41.590  -0.129  33.488  1.00  0.00    -0.086 C 
HETATM   28  C4  UNL     1      41.107  -0.097  32.382  1.00  0.00    -0.105 C 
BRANCH  28  29
HETATM   29  C3  UNL     1      40.541  -0.080  31.033  1.00  0.00     0.093 C 
BRANCH  29  30
HETATM   30  C2  UNL     1      39.229   0.697  31.013  1.00  0.00     0.007 C 
HETATM   31  C1  UNL     1      38.147  -0.066  31.754  1.00  0.00     0.006 C 
ENDBRANCH  29  30
ENDBRANCH  28  29
ENDBRANCH  26  27
ENDBRANCH   1  26
TORSDOF 5
ENDMDL
