MODEL 1
REMARK VINA RESULT: -5.378539582      0.000      0.000
REMARK  13 active torsions:
REMARK  status: ('A' for Active; 'I' for Inactive)
REMARK    1  A    between atoms: N3_4  and  C2_6 
REMARK    2  A    between atoms: C2_6  and  C3_7 
REMARK    3  A    between atoms: C3_7  and  C4_8 
REMARK    4  A    between atoms: C4_8  and  C5_9 
REMARK    5  A    between atoms: C5_9  and  C6_10 
REMARK    6  A    between atoms: C6_10  and  C7_11 
REMARK    7  A    between atoms: C7_11  and  C8_12 
REMARK    8  A    between atoms: C8_12  and  C9_13 
REMARK    9  A    between atoms: C10_17  and  C11_18 
REMARK   10  A    between atoms: C11_18  and  O1_19 
REMARK   11  A    between atoms: C12_21  and  O2_22 
REMARK   12  A    between atoms: C13_24  and  O3_25 
REMARK   13  A    between atoms: C14_27  and  O4_28 
ROOT
HETATM    1  C9  UNL     1     -10.278  12.295  72.503  1.00  0.00     0.217 C 
HETATM    2  N4  UNL     1     -11.053  12.765  71.390  1.00  0.00    -0.060 N 
ATOM      3  H41 UNL     1     -10.500  13.400  70.814  1.00  0.00     0.278 HD
ATOM      4  H42 UNL     1     -11.781  13.406  71.708  1.00  0.00     0.278 HD
HETATM    5  C10 UNL     1     -11.623  11.724  70.581  1.00  0.00     0.240 C 
HETATM    6  C12 UNL     1     -10.628  10.764  70.026  1.00  0.00     0.182 C 
HETATM    7  C13 UNL     1      -9.388  10.607  70.864  1.00  0.00     0.179 C 
HETATM    8  C14 UNL     1      -9.578  11.010  72.295  1.00  0.00     0.180 C 
ENDROOT
BRANCH   1   9
HETATM    9  C8  UNL     1      -9.402  13.424  73.001  1.00  0.00     0.036 C 
BRANCH   9  10
HETATM   10  C7  UNL     1      -9.804  14.761  72.444  1.00  0.00     0.002 C 
BRANCH  10  11
HETATM   11  C6  UNL     1      -8.778  15.805  72.714  1.00  0.00     0.000 C 
BRANCH  11  12
HETATM   12  C5  UNL     1      -7.415  15.251  73.025  1.00  0.00     0.000 C 
BRANCH  12  13
HETATM   13  C4  UNL     1      -6.361  15.881  72.146  1.00  0.00     0.002 C 
BRANCH  13  14
HETATM   14  C3  UNL     1      -6.256  15.205  70.807  1.00  0.00     0.020 C 
BRANCH  14  15
HETATM   15  C2  UNL     1      -6.419  13.698  70.929  1.00  0.00     0.122 C 
BRANCH  15  16
HETATM   16  N3  UNL     1      -7.316  13.283  69.871  1.00  0.00    -0.367 N 
HETATM   17  C1  UNL     1      -6.930  12.543  68.869  1.00  0.00     0.196 C 
HETATM   18  N1  UNL     1      -5.555  12.154  68.865  1.00  0.00    -0.067 NA
HETATM   19  N2  UNL     1      -7.835  12.161  67.857  1.00  0.00    -0.067 NA
ATOM     20  H3  UNL     1      -8.290  13.581  69.911  1.00  0.00     0.161 HD
ENDBRANCH  15  16
ENDBRANCH  14  15
ENDBRANCH  13  14
ENDBRANCH  12  13
ENDBRANCH  11  12
ENDBRANCH  10  11
ENDBRANCH   9  10
ENDBRANCH   1   9
BRANCH   8  21
HETATM   21  O4  UNL     1      -8.318  11.038  72.902  1.00  0.00    -0.391 OA
ATOM     22  H4  UNL     1      -8.341  10.577  73.733  1.00  0.00     0.210 HD
ENDBRANCH   8  21
BRANCH   5  23
HETATM   23  C11 UNL     1     -12.741  10.984  71.300  1.00  0.00     0.199 C 
BRANCH  23  24
HETATM   24  O1  UNL     1     -12.805   9.655  70.885  1.00  0.00    -0.399 OA
ATOM     25  H1  UNL     1     -12.337   9.089  71.488  1.00  0.00     0.209 HD
ENDBRANCH  23  24
ENDBRANCH   5  23
BRANCH   7  26
HETATM   26  O3  UNL     1      -9.027   9.255  70.855  1.00  0.00    -0.390 OA
ATOM     27  H3  UNL     1      -8.143   9.189  70.510  1.00  0.00     0.210 HD
ENDBRANCH   7  26
BRANCH   6  28
HETATM   28  O2  UNL     1     -10.318  11.108  68.707  1.00  0.00    -0.391 OA
ATOM     29  H2  UNL     1     -11.108  11.358  68.242  1.00  0.00     0.210 HD
ENDBRANCH   6  28
TORSDOF 13
ENDMDL
MODEL 2
REMARK VINA RESULT: -5.376507147      6.439      9.013
REMARK  13 active torsions:
REMARK  status: ('A' for Active; 'I' for Inactive)
REMARK    1  A    between atoms: N3_4  and  C2_6 
REMARK    2  A    between atoms: C2_6  and  C3_7 
REMARK    3  A    between atoms: C3_7  and  C4_8 
REMARK    4  A    between atoms: C4_8  and  C5_9 
REMARK    5  A    between atoms: C5_9  and  C6_10 
REMARK    6  A    between atoms: C6_10  and  C7_11 
REMARK    7  A    between atoms: C7_11  and  C8_12 
REMARK    8  A    between atoms: C8_12  and  C9_13 
REMARK    9  A    between atoms: C10_17  and  C11_18 
REMARK   10  A    between atoms: C11_18  and  O1_19 
REMARK   11  A    between atoms: C12_21  and  O2_22 
REMARK   12  A    between atoms: C13_24  and  O3_25 
REMARK   13  A    between atoms: C14_27  and  O4_28 
ROOT
HETATM    1  C9  UNL     1      -6.856   8.406  75.887  1.00  0.00     0.217 C 
HETATM    2  N4  UNL     1      -6.284   7.680  74.788  1.00  0.00    -0.060 N 
ATOM      3  H41 UNL     1      -6.155   8.295  73.984  1.00  0.00     0.278 HD
ATOM      4  H42 UNL     1      -6.964   7.026  74.400  1.00  0.00     0.278 HD
HETATM    5  C10 UNL     1      -5.058   7.000  75.099  1.00  0.00     0.240 C 
HETATM    6  C12 UNL     1      -3.982   7.885  75.626  1.00  0.00     0.182 C 
HETATM    7  C13 UNL     1      -4.485   9.105  76.350  1.00  0.00     0.179 C 
HETATM    8  C14 UNL     1      -5.889   8.963  76.854  1.00  0.00     0.180 C 
ENDROOT
BRANCH   1   9
HETATM    9  C8  UNL     1      -7.863   9.398  75.347  1.00  0.00     0.036 C 
BRANCH   9  10
HETATM   10  C7  UNL     1      -8.835   8.776  74.384  1.00  0.00     0.002 C 
BRANCH  10  11
HETATM   11  C6  UNL     1     -10.230   8.812  74.904  1.00  0.00     0.000 C 
BRANCH  11  12
HETATM   12  C5  UNL     1     -11.222   9.397  73.937  1.00  0.00     0.000 C 
BRANCH  12  13
HETATM   13  C4  UNL     1     -12.245   8.367  73.521  1.00  0.00     0.002 C 
BRANCH  13  14
HETATM   14  C3  UNL     1     -11.622   7.032  73.221  1.00  0.00     0.020 C 
BRANCH  14  15
HETATM   15  C2  UNL     1     -12.418   5.893  73.840  1.00  0.00     0.122 C 
BRANCH  15  16
HETATM   16  N3  UNL     1     -12.005   5.791  75.223  1.00  0.00    -0.367 N 
HETATM   17  C1  UNL     1     -12.852   5.793  76.213  1.00  0.00     0.196 C 
HETATM   18  N1  UNL     1     -14.234   5.904  75.863  1.00  0.00    -0.067 NA
HETATM   19  N2  UNL     1     -12.410   5.693  77.549  1.00  0.00    -0.067 NA
ATOM     20  H3  UNL     1     -11.010   5.713  75.432  1.00  0.00     0.161 HD
ENDBRANCH  15  16
ENDBRANCH  14  15
ENDBRANCH  13  14
ENDBRANCH  12  13
ENDBRANCH  11  12
ENDBRANCH  10  11
ENDBRANCH   9  10
ENDBRANCH   1   9
BRANCH   8  21
HETATM   21  O4  UNL     1      -6.313  10.222  77.295  1.00  0.00    -0.391 OA
ATOM     22  H4  UNL     1      -6.850  10.136  78.074  1.00  0.00     0.210 HD
ENDBRANCH   8  21
BRANCH   5  23
HETATM   23  C11 UNL     1      -5.279   5.812  76.024  1.00  0.00     0.199 C 
BRANCH  23  24
HETATM   24  O1  UNL     1      -5.575   4.662  75.295  1.00  0.00    -0.399 OA
ATOM     25  H1  UNL     1      -4.781   4.251  74.973  1.00  0.00     0.209 HD
ENDBRANCH  23  24
ENDBRANCH   5  23
BRANCH   7  26
HETATM   26  O3  UNL     1      -3.661   9.320  77.461  1.00  0.00    -0.390 OA
ATOM     27  H3  UNL     1      -3.396  10.233  77.458  1.00  0.00     0.210 HD
ENDBRANCH   7  26
BRANCH   6  28
HETATM   28  O2  UNL     1      -3.098   8.225  74.598  1.00  0.00    -0.391 OA
ATOM     29  H2  UNL     1      -2.210   7.991  74.844  1.00  0.00     0.210 HD
ENDBRANCH   6  28
TORSDOF 13
ENDMDL
MODEL 3
REMARK VINA RESULT: -5.367019186      7.331      8.695
REMARK  13 active torsions:
REMARK  status: ('A' for Active; 'I' for Inactive)
REMARK    1  A    between atoms: N3_4  and  C2_6 
REMARK    2  A    between atoms: C2_6  and  C3_7 
REMARK    3  A    between atoms: C3_7  and  C4_8 
REMARK    4  A    between atoms: C4_8  and  C5_9 
REMARK    5  A    between atoms: C5_9  and  C6_10 
REMARK    6  A    between atoms: C6_10  and  C7_11 
REMARK    7  A    between atoms: C7_11  and  C8_12 
REMARK    8  A    between atoms: C8_12  and  C9_13 
REMARK    9  A    between atoms: C10_17  and  C11_18 
REMARK   10  A    between atoms: C11_18  and  O1_19 
REMARK   11  A    between atoms: C12_21  and  O2_22 
REMARK   12  A    between atoms: C13_24  and  O3_25 
REMARK   13  A    between atoms: C14_27  and  O4_28 
ROOT
HETATM    1  C9  UNL     1      -5.587  10.986  75.969  1.00  0.00     0.217 C 
HETATM    2  N4  UNL     1      -4.719  10.402  76.953  1.00  0.00    -0.060 N 
ATOM      3  H41 UNL     1      -5.144  10.454  77.878  1.00  0.00     0.278 HD
ATOM      4  H42 UNL     1      -3.902  10.994  77.102  1.00  0.00     0.278 HD
HETATM    5  C10 UNL     1      -4.315   9.055  76.663  1.00  0.00     0.240 C 
HETATM    6  C12 UNL     1      -5.444   8.101  76.479  1.00  0.00     0.182 C 
HETATM    7  C13 UNL     1      -6.711   8.735  75.971  1.00  0.00     0.179 C 
HETATM    8  C14 UNL     1      -6.487  10.042  75.274  1.00  0.00     0.180 C 
ENDROOT
BRANCH   1   9
HETATM    9  C8  UNL     1      -6.272  12.191  76.574  1.00  0.00     0.036 C 
BRANCH   9  10
HETATM   10  C7  UNL     1      -6.646  11.985  78.016  1.00  0.00     0.002 C 
BRANCH  10  11
HETATM   11  C6  UNL     1      -6.244  13.141  78.864  1.00  0.00     0.000 C 
BRANCH  11  12
HETATM   12  C5  UNL     1      -5.167  13.995  78.254  1.00  0.00     0.000 C 
BRANCH  12  13
HETATM   13  C4  UNL     1      -3.950  14.050  79.147  1.00  0.00     0.002 C 
BRANCH  13  14
HETATM   14  C3  UNL     1      -2.677  13.786  78.393  1.00  0.00     0.020 C 
BRANCH  14  15
HETATM   15  C2  UNL     1      -1.759  12.846  79.161  1.00  0.00     0.122 C 
BRANCH  15  16
HETATM   16  N3  UNL     1      -1.664  11.624  78.391  1.00  0.00    -0.367 N 
HETATM   17  C1  UNL     1      -0.850  10.656  78.704  1.00  0.00     0.196 C 
HETATM   18  N1  UNL     1      -0.040  10.861  79.864  1.00  0.00    -0.067 NA
HETATM   19  N2  UNL     1      -0.787   9.480  77.927  1.00  0.00    -0.067 NA
ATOM     20  H3  UNL     1      -2.260  11.516  77.571  1.00  0.00     0.161 HD
ENDBRANCH  15  16
ENDBRANCH  14  15
ENDBRANCH  13  14
ENDBRANCH  12  13
ENDBRANCH  11  12
ENDBRANCH  10  11
ENDBRANCH   9  10
ENDBRANCH   1   9
BRANCH   8  21
HETATM   21  O4  UNL     1      -7.738  10.631  75.060  1.00  0.00    -0.391 OA
ATOM     22  H4  UNL     1      -8.072  10.396  74.202  1.00  0.00     0.210 HD
ENDBRANCH   8  21
BRANCH   5  23
HETATM   23  C11 UNL     1      -3.353   8.984  75.486  1.00  0.00     0.199 C 
BRANCH  23  24
HETATM   24  O1  UNL     1      -2.410   7.974  75.674  1.00  0.00    -0.399 OA
ATOM     25  H1  UNL     1      -1.861   7.876  74.905  1.00  0.00     0.209 HD
ENDBRANCH  23  24
ENDBRANCH   5  23
BRANCH   7  26
HETATM   26  O3  UNL     1      -7.293   7.861  75.047  1.00  0.00    -0.390 OA
ATOM     27  H3  UNL     1      -7.061   8.158  74.174  1.00  0.00     0.210 HD
ENDBRANCH   7  26
BRANCH   6  28
HETATM   28  O2  UNL     1      -5.662   7.385  77.659  1.00  0.00    -0.391 OA
ATOM     29  H2  UNL     1      -5.470   6.465  77.521  1.00  0.00     0.210 HD
ENDBRANCH   6  28
TORSDOF 13
ENDMDL
MODEL 4
REMARK VINA RESULT: -5.365712844      4.187      5.583
REMARK  13 active torsions:
REMARK  status: ('A' for Active; 'I' for Inactive)
REMARK    1  A    between atoms: N3_4  and  C2_6 
REMARK    2  A    between atoms: C2_6  and  C3_7 
REMARK    3  A    between atoms: C3_7  and  C4_8 
REMARK    4  A    between atoms: C4_8  and  C5_9 
REMARK    5  A    between atoms: C5_9  and  C6_10 
REMARK    6  A    between atoms: C6_10  and  C7_11 
REMARK    7  A    between atoms: C7_11  and  C8_12 
REMARK    8  A    between atoms: C8_12  and  C9_13 
REMARK    9  A    between atoms: C10_17  and  C11_18 
REMARK   10  A    between atoms: C11_18  and  O1_19 
REMARK   11  A    between atoms: C12_21  and  O2_22 
REMARK   12  A    between atoms: C13_24  and  O3_25 
REMARK   13  A    between atoms: C14_27  and  O4_28 
ROOT
HETATM    1  C9  UNL     1      -6.454  10.978  75.530  1.00  0.00     0.217 C 
HETATM    2  N4  UNL     1      -7.465  10.081  75.043  1.00  0.00    -0.060 N 
ATOM      3  H41 UNL     1      -7.234   9.761  74.103  1.00  0.00     0.278 HD
ATOM      4  H42 UNL     1      -8.328  10.590  74.848  1.00  0.00     0.278 HD
HETATM    5  C10 UNL     1      -7.729   8.961  75.903  1.00  0.00     0.240 C 
HETATM    6  C12 UNL     1      -6.534   8.124  76.205  1.00  0.00     0.182 C 
HETATM    7  C13 UNL     1      -5.229   8.874  76.161  1.00  0.00     0.179 C 
HETATM    8  C14 UNL     1      -5.384  10.354  76.334  1.00  0.00     0.180 C 
ENDROOT
BRANCH   1   9
HETATM    9  C8  UNL     1      -5.970  11.839  74.383  1.00  0.00     0.036 C 
BRANCH   9  10
HETATM   10  C7  UNL     1      -7.098  12.468  73.613  1.00  0.00     0.002 C 
BRANCH  10  11
HETATM   11  C6  UNL     1      -6.651  13.673  72.862  1.00  0.00     0.000 C 
BRANCH  11  12
HETATM   12  C5  UNL     1      -5.945  13.358  71.573  1.00  0.00     0.000 C 
BRANCH  12  13
HETATM   13  C4  UNL     1      -6.742  13.845  70.386  1.00  0.00     0.002 C 
BRANCH  13  14
HETATM   14  C3  UNL     1      -7.039  12.743  69.407  1.00  0.00     0.020 C 
BRANCH  14  15
HETATM   15  C2  UNL     1      -7.847  11.627  70.053  1.00  0.00     0.122 C 
BRANCH  15  16
HETATM   16  N3  UNL     1      -9.212  12.096  70.153  1.00  0.00    -0.367 N 
HETATM   17  C1  UNL     1     -10.235  11.371  69.796  1.00  0.00     0.196 C 
HETATM   18  N1  UNL     1      -9.939  10.066  69.293  1.00  0.00    -0.067 NA
HETATM   19  N2  UNL     1     -11.552  11.866  69.908  1.00  0.00    -0.067 NA
ATOM     20  H3  UNL     1      -9.381  13.033  70.517  1.00  0.00     0.161 HD
ENDBRANCH  15  16
ENDBRANCH  14  15
ENDBRANCH  13  14
ENDBRANCH  12  13
ENDBRANCH  11  12
ENDBRANCH  10  11
ENDBRANCH   9  10
ENDBRANCH   1   9
BRANCH   8  21
HETATM   21  O4  UNL     1      -4.150  10.948  76.047  1.00  0.00    -0.391 OA
ATOM     22  H4  UNL     1      -3.795  10.599  75.237  1.00  0.00     0.210 HD
ENDBRANCH   8  21
BRANCH   5  23
HETATM   23  C11 UNL     1      -8.434   9.375  77.186  1.00  0.00     0.199 C 
BRANCH  23  24
HETATM   24  O1  UNL     1      -7.896   8.709  78.286  1.00  0.00    -0.399 OA
ATOM     25  H1  UNL     1      -7.653   9.323  78.969  1.00  0.00     0.209 HD
ENDBRANCH  23  24
ENDBRANCH   5  23
BRANCH   7  26
HETATM   26  O3  UNL     1      -4.428   8.410  77.210  1.00  0.00    -0.390 OA
ATOM     27  H3  UNL     1      -4.138   9.163  77.714  1.00  0.00     0.210 HD
ENDBRANCH   7  26
BRANCH   6  28
HETATM   28  O2  UNL     1      -6.513   7.003  75.370  1.00  0.00    -0.391 OA
ATOM     29  H2  UNL     1      -5.615   6.767  75.167  1.00  0.00     0.210 HD
ENDBRANCH   6  28
TORSDOF 13
ENDMDL
MODEL 5
REMARK VINA RESULT: -5.352066114      1.588      2.291
REMARK  13 active torsions:
REMARK  status: ('A' for Active; 'I' for Inactive)
REMARK    1  A    between atoms: N3_4  and  C2_6 
REMARK    2  A    between atoms: C2_6  and  C3_7 
REMARK    3  A    between atoms: C3_7  and  C4_8 
REMARK    4  A    between atoms: C4_8  and  C5_9 
REMARK    5  A    between atoms: C5_9  and  C6_10 
REMARK    6  A    between atoms: C6_10  and  C7_11 
REMARK    7  A    between atoms: C7_11  and  C8_12 
REMARK    8  A    between atoms: C8_12  and  C9_13 
REMARK    9  A    between atoms: C10_17  and  C11_18 
REMARK   10  A    between atoms: C11_18  and  O1_19 
REMARK   11  A    between atoms: C12_21  and  O2_22 
REMARK   12  A    between atoms: C13_24  and  O3_25 
REMARK   13  A    between atoms: C14_27  and  O4_28 
ROOT
HETATM    1  C9  UNL     1      -9.885  10.119  72.642  1.00  0.00     0.217 C 
HETATM    2  N4  UNL     1     -10.980  10.817  73.254  1.00  0.00    -0.060 N 
ATOM      3  H41 UNL     1     -10.657  11.691  73.670  1.00  0.00     0.278 HD
ATOM      4  H42 UNL     1     -11.291  10.328  74.093  1.00  0.00     0.278 HD
HETATM    5  C10 UNL     1     -12.092  11.062  72.378  1.00  0.00     0.240 C 
HETATM    6  C12 UNL     1     -11.745  11.821  71.143  1.00  0.00     0.182 C 
HETATM    7  C13 UNL     1     -10.324  11.633  70.682  1.00  0.00     0.179 C 
HETATM    8  C14 UNL     1      -9.689  10.379  71.201  1.00  0.00     0.180 C 
ENDROOT
BRANCH   1   9
HETATM    9  C8  UNL     1      -8.650  10.301  73.497  1.00  0.00     0.036 C 
BRANCH   9  10
HETATM   10  C7  UNL     1      -8.733  11.507  74.390  1.00  0.00     0.002 C 
BRANCH  10  11
HETATM   11  C6  UNL     1      -7.920  12.640  73.869  1.00  0.00     0.000 C 
BRANCH  11  12
HETATM   12  C5  UNL     1      -6.500  12.267  73.542  1.00  0.00     0.000 C 
BRANCH  12  13
HETATM   13  C4  UNL     1      -6.042  12.943  72.272  1.00  0.00     0.002 C 
BRANCH  13  14
HETATM   14  C3  UNL     1      -7.103  13.829  71.682  1.00  0.00     0.020 C 
BRANCH  14  15
HETATM   15  C2  UNL     1      -6.805  14.167  70.229  1.00  0.00     0.122 C 
BRANCH  15  16
HETATM   16  N3  UNL     1      -7.556  13.234  69.415  1.00  0.00    -0.367 N 
HETATM   17  C1  UNL     1      -6.987  12.296  68.712  1.00  0.00     0.196 C 
HETATM   18  N1  UNL     1      -5.560  12.230  68.783  1.00  0.00    -0.067 NA
HETATM   19  N2  UNL     1      -7.754  11.407  67.930  1.00  0.00    -0.067 NA
ATOM     20  H3  UNL     1      -8.572  13.314  69.392  1.00  0.00     0.161 HD
ENDBRANCH  15  16
ENDBRANCH  14  15
ENDBRANCH  13  14
ENDBRANCH  12  13
ENDBRANCH  11  12
ENDBRANCH  10  11
ENDBRANCH   9  10
ENDBRANCH   1   9
BRANCH   8  21
HETATM   21  O4  UNL     1      -8.324  10.436  70.899  1.00  0.00    -0.391 OA
ATOM     22  H4  UNL     1      -8.083   9.720  70.323  1.00  0.00     0.210 HD
ENDBRANCH   8  21
BRANCH   5  23
HETATM   23  C11 UNL     1     -12.843   9.785  72.031  1.00  0.00     0.199 C 
BRANCH  23  24
HETATM   24  O1  UNL     1     -13.239   9.788  70.695  1.00  0.00    -0.399 OA
ATOM     25  H1  UNL     1     -13.786   9.036  70.502  1.00  0.00     0.209 HD
ENDBRANCH  23  24
ENDBRANCH   5  23
BRANCH   7  26
HETATM   26  O3  UNL     1     -10.329  11.552  69.285  1.00  0.00    -0.390 OA
ATOM     27  H3  UNL     1      -9.426  11.517  68.989  1.00  0.00     0.210 HD
ENDBRANCH   7  26
BRANCH   6  28
HETATM   28  O2  UNL     1     -12.058  13.173  71.310  1.00  0.00    -0.391 OA
ATOM     29  H2  UNL     1     -11.943  13.636  70.488  1.00  0.00     0.210 HD
ENDBRANCH   6  28
TORSDOF 13
ENDMDL
