MODEL 1
REMARK VINA RESULT: -6.237639565      0.000      0.000
REMARK  15 active torsions:
REMARK  status: ('A' for Active; 'I' for Inactive)
REMARK    1  A    between atoms: C2_2  and  C3_3 
REMARK    2  A    between atoms: C3_3  and  C4_4 
REMARK    3  A    between atoms: C4_4  and  N1_5 
REMARK    4  A    between atoms: N1_5  and  C5_7 
REMARK    5  A    between atoms: C6_10  and  N3_11 
REMARK    6  A    between atoms: N3_11  and  C7_13 
REMARK    7  A    between atoms: C7_13  and  C8_14 
REMARK    8  A    between atoms: C8_14  and  C9_15 
REMARK    9  A    between atoms: C9_15  and  O1_16 
REMARK   10  A    between atoms: C10_20  and  N5_21 
REMARK   11  A    between atoms: N5_21  and  C11_23 
REMARK   12  A    between atoms: C11_23  and  C12_24 
REMARK   13  A    between atoms: C11_23  and  C13_27 
REMARK   14  A    between atoms: C12_24  and  O2_25 
REMARK   15  A    between atoms: C13_27  and  O3_28 
ROOT
HETATM    1  C5  UNL     1      -2.546  11.893  77.942  1.00  0.00     0.707 A 
HETATM    2  N2  UNL     1      -2.938  10.866  77.185  1.00  0.00    -0.022 N 
ATOM      3  H2  UNL     1      -3.764  10.978  76.598  1.00  0.00     0.203 HD
HETATM    4  C6  UNL     1      -2.279   9.677  77.165  1.00  0.00     0.707 A 
HETATM    5  N4  UNL     1      -1.199   9.572  77.952  1.00  0.00    -0.022 N 
ATOM      6  H4  UNL     1      -0.674   8.698  77.968  1.00  0.00     0.203 HD
HETATM    7  C10 UNL     1      -0.785  10.619  78.736  1.00  0.00     0.707 A 
HETATM    8  N6  UNL     1      -1.458  11.782  78.733  1.00  0.00    -0.022 N 
ATOM      9  H6  UNL     1      -1.153  12.562  79.314  1.00  0.00     0.203 HD
ENDROOT
BRANCH   7  10
HETATM   10  N5  UNL     1       0.262  10.404  79.448  1.00  0.00    -0.216 N 
ATOM     11  H5  UNL     1       0.436   9.444  79.742  1.00  0.00     0.178 HD
BRANCH  10  12
HETATM   12  C11 UNL     1       1.211  11.402  79.865  1.00  0.00     0.146 C 
BRANCH  12  13
HETATM   13  C12 UNL     1       2.160  11.733  78.749  1.00  0.00     0.192 C 
BRANCH  13  14
HETATM   14  O2  UNL     1       3.025  10.713  78.429  1.00  0.00    -0.399 OA
ATOM     15  H2  UNL     1       3.656  10.938  77.754  1.00  0.00     0.209 HD
ENDBRANCH  13  14
ENDBRANCH  12  13
BRANCH  12  16
HETATM   16  C13 UNL     1       1.889  10.985  81.135  1.00  0.00     0.192 C 
BRANCH  16  17
HETATM   17  O3  UNL     1       2.659   9.841  81.000  1.00  0.00    -0.399 OA
ATOM     18  H3  UNL     1       2.230   9.153  80.506  1.00  0.00     0.209 HD
ENDBRANCH  16  17
ENDBRANCH  12  16
ENDBRANCH  10  12
ENDBRANCH   7  10
BRANCH   4  19
HETATM   19  N3  UNL     1      -2.685   8.707  76.422  1.00  0.00    -0.225 N 
ATOM     20  H3  UNL     1      -2.128   7.853  76.448  1.00  0.00     0.177 HD
BRANCH  19  21
HETATM   21  C7  UNL     1      -3.822   8.694  75.569  1.00  0.00     0.140 C 
BRANCH  21  22
HETATM   22  C8  UNL     1      -4.203   7.294  75.097  1.00  0.00     0.046 C 
BRANCH  22  23
HETATM   23  C9  UNL     1      -5.173   6.676  76.044  1.00  0.00     0.165 C 
BRANCH  23  24
HETATM   24  O1  UNL     1      -5.266   7.509  77.166  1.00  0.00    -0.401 OA
ATOM     25  H1  UNL     1      -5.801   7.066  77.814  1.00  0.00     0.209 HD
ENDBRANCH  23  24
ENDBRANCH  22  23
ENDBRANCH  21  22
ENDBRANCH  19  21
ENDBRANCH   4  19
BRANCH   1  26
HETATM   26  N1  UNL     1      -3.160  13.027  77.972  1.00  0.00    -0.225 N 
ATOM     27  H1  UNL     1      -3.822  13.235  77.225  1.00  0.00     0.177 HD
BRANCH  26  28
HETATM   28  C4  UNL     1      -2.962  14.017  79.005  1.00  0.00     0.138 C 
BRANCH  28  29
HETATM   29  C3  UNL     1      -4.166  14.939  79.050  1.00  0.00     0.020 C 
BRANCH  29  30
HETATM   30  C2  UNL     1      -5.427  14.105  78.808  1.00  0.00    -0.003 C 
HETATM   31  C1  UNL     1      -6.079  13.735  80.121  1.00  0.00     0.005 C 
ENDBRANCH  29  30
ENDBRANCH  28  29
ENDBRANCH  26  28
ENDBRANCH   1  26
TORSDOF 15
ENDMDL
MODEL 2
REMARK VINA RESULT: -6.199593287      2.054      4.831
REMARK  15 active torsions:
REMARK  status: ('A' for Active; 'I' for Inactive)
REMARK    1  A    between atoms: C2_2  and  C3_3 
REMARK    2  A    between atoms: C3_3  and  C4_4 
REMARK    3  A    between atoms: C4_4  and  N1_5 
REMARK    4  A    between atoms: N1_5  and  C5_7 
REMARK    5  A    between atoms: C6_10  and  N3_11 
REMARK    6  A    between atoms: N3_11  and  C7_13 
REMARK    7  A    between atoms: C7_13  and  C8_14 
REMARK    8  A    between atoms: C8_14  and  C9_15 
REMARK    9  A    between atoms: C9_15  and  O1_16 
REMARK   10  A    between atoms: C10_20  and  N5_21 
REMARK   11  A    between atoms: N5_21  and  C11_23 
REMARK   12  A    between atoms: C11_23  and  C12_24 
REMARK   13  A    between atoms: C11_23  and  C13_27 
REMARK   14  A    between atoms: C12_24  and  O2_25 
REMARK   15  A    between atoms: C13_27  and  O3_28 
ROOT
HETATM    1  C5  UNL     1      -0.667  10.553  78.995  1.00  0.00     0.707 A 
HETATM    2  N2  UNL     1      -1.123   9.606  78.172  1.00  0.00    -0.022 N 
ATOM      3  H2  UNL     1      -0.666   8.694  78.174  1.00  0.00     0.203 HD
HETATM    4  C6  UNL     1      -2.171   9.809  77.331  1.00  0.00     0.707 A 
HETATM    5  N4  UNL     1      -2.742  11.022  77.359  1.00  0.00    -0.022 N 
ATOM      6  H4  UNL     1      -3.531  11.218  76.745  1.00  0.00     0.203 HD
HETATM    7  C10 UNL     1      -2.283  12.004  78.200  1.00  0.00     0.707 A 
HETATM    8  N6  UNL     1      -1.245  11.772  79.020  1.00  0.00    -0.022 N 
ATOM      9  H6  UNL     1      -0.902  12.500  79.646  1.00  0.00     0.203 HD
ENDROOT
BRANCH   7  10
HETATM   10  N5  UNL     1      -2.907  13.125  78.141  1.00  0.00    -0.216 N 
ATOM     11  H5  UNL     1      -3.295  13.396  77.238  1.00  0.00     0.178 HD
BRANCH  10  12
HETATM   12  C11 UNL     1      -3.107  14.032  79.241  1.00  0.00     0.146 C 
BRANCH  12  13
HETATM   13  C12 UNL     1      -4.555  14.411  79.361  1.00  0.00     0.192 C 
BRANCH  13  14
HETATM   14  O2  UNL     1      -5.303  13.535  80.113  1.00  0.00    -0.399 OA
ATOM     15  H2  UNL     1      -5.683  13.921  80.894  1.00  0.00     0.209 HD
ENDBRANCH  13  14
ENDBRANCH  12  13
BRANCH  12  16
HETATM   16  C13 UNL     1      -2.180  15.204  79.132  1.00  0.00     0.192 C 
BRANCH  16  17
HETATM   17  O3  UNL     1      -0.862  14.896  79.433  1.00  0.00    -0.399 OA
ATOM     18  H3  UNL     1      -0.695  14.820  80.365  1.00  0.00     0.209 HD
ENDBRANCH  16  17
ENDBRANCH  12  16
ENDBRANCH  10  12
ENDBRANCH   7  10
BRANCH   4  19
HETATM   19  N3  UNL     1      -2.585   8.873  76.550  1.00  0.00    -0.225 N 
ATOM     20  H3  UNL     1      -1.993   8.045  76.483  1.00  0.00     0.177 HD
BRANCH  19  21
HETATM   21  C7  UNL     1      -3.773   8.865  75.770  1.00  0.00     0.140 C 
BRANCH  21  22
HETATM   22  C8  UNL     1      -4.111   7.490  75.203  1.00  0.00     0.046 C 
BRANCH  22  23
HETATM   23  C9  UNL     1      -5.205   6.860  75.995  1.00  0.00     0.165 C 
BRANCH  23  24
HETATM   24  O1  UNL     1      -5.281   7.525  77.225  1.00  0.00    -0.401 OA
ATOM     25  H1  UNL     1      -5.952   7.098  77.745  1.00  0.00     0.209 HD
ENDBRANCH  23  24
ENDBRANCH  22  23
ENDBRANCH  21  22
ENDBRANCH  19  21
ENDBRANCH   4  19
BRANCH   1  26
HETATM   26  N1  UNL     1       0.326  10.375  79.799  1.00  0.00    -0.225 N 
ATOM     27  H1  UNL     1       0.504   9.432  80.142  1.00  0.00     0.177 HD
BRANCH  26  28
HETATM   28  C4  UNL     1       1.200  11.438  80.238  1.00  0.00     0.138 C 
BRANCH  28  29
HETATM   29  C3  UNL     1       2.165  11.786  79.120  1.00  0.00     0.020 C 
BRANCH  29  30
HETATM   30  C2  UNL     1       2.351  13.306  79.093  1.00  0.00    -0.003 C 
HETATM   31  C1  UNL     1       2.601  13.835  80.488  1.00  0.00     0.005 C 
ENDBRANCH  29  30
ENDBRANCH  28  29
ENDBRANCH  26  28
ENDBRANCH   1  26
TORSDOF 15
ENDMDL
MODEL 3
REMARK VINA RESULT: -6.107959482      2.702      6.354
REMARK  15 active torsions:
REMARK  status: ('A' for Active; 'I' for Inactive)
REMARK    1  A    between atoms: C2_2  and  C3_3 
REMARK    2  A    between atoms: C3_3  and  C4_4 
REMARK    3  A    between atoms: C4_4  and  N1_5 
REMARK    4  A    between atoms: N1_5  and  C5_7 
REMARK    5  A    between atoms: C6_10  and  N3_11 
REMARK    6  A    between atoms: N3_11  and  C7_13 
REMARK    7  A    between atoms: C7_13  and  C8_14 
REMARK    8  A    between atoms: C8_14  and  C9_15 
REMARK    9  A    between atoms: C9_15  and  O1_16 
REMARK   10  A    between atoms: C10_20  and  N5_21 
REMARK   11  A    between atoms: N5_21  and  C11_23 
REMARK   12  A    between atoms: C11_23  and  C12_24 
REMARK   13  A    between atoms: C11_23  and  C13_27 
REMARK   14  A    between atoms: C12_24  and  O2_25 
REMARK   15  A    between atoms: C13_27  and  O3_28 
ROOT
HETATM    1  C5  UNL     1      -0.598  10.819  79.180  1.00  0.00     0.707 A 
HETATM    2  N2  UNL     1      -0.964  12.084  78.960  1.00  0.00    -0.022 N 
ATOM      3  H2  UNL     1      -0.395  12.834  79.353  1.00  0.00     0.203 HD
HETATM    4  C6  UNL     1      -2.065  12.411  78.233  1.00  0.00     0.707 A 
HETATM    5  N4  UNL     1      -2.785  11.395  77.735  1.00  0.00    -0.022 N 
ATOM      6  H4  UNL     1      -3.619  11.596  77.184  1.00  0.00     0.203 HD
HETATM    7  C10 UNL     1      -2.420  10.091  77.954  1.00  0.00     0.707 A 
HETATM    8  N6  UNL     1      -1.326   9.800  78.677  1.00  0.00    -0.022 N 
ATOM      9  H6  UNL     1      -1.052   8.832  78.841  1.00  0.00     0.203 HD
ENDROOT
BRANCH   7  10
HETATM   10  N5  UNL     1      -3.184   9.202  77.429  1.00  0.00    -0.216 N 
ATOM     11  H5  UNL     1      -3.187   8.278  77.858  1.00  0.00     0.178 HD
BRANCH  10  12
HETATM   12  C11 UNL     1      -4.036   9.399  76.286  1.00  0.00     0.146 C 
BRANCH  12  13
HETATM   13  C12 UNL     1      -5.408   8.847  76.544  1.00  0.00     0.192 C 
BRANCH  13  14
HETATM   14  O2  UNL     1      -5.414   7.680  77.273  1.00  0.00    -0.399 OA
ATOM     15  H2  UNL     1      -4.739   7.061  77.019  1.00  0.00     0.209 HD
ENDBRANCH  13  14
ENDBRANCH  12  13
BRANCH  12  16
HETATM   16  C13 UNL     1      -3.388   8.860  75.046  1.00  0.00     0.192 C 
BRANCH  16  17
HETATM   17  O3  UNL     1      -3.395   7.476  74.977  1.00  0.00    -0.399 OA
ATOM     18  H3  UNL     1      -2.769   7.065  75.562  1.00  0.00     0.209 HD
ENDBRANCH  16  17
ENDBRANCH  12  16
ENDBRANCH  10  12
ENDBRANCH   7  10
BRANCH   4  19
HETATM   19  N3  UNL     1      -2.390  13.642  78.040  1.00  0.00    -0.225 N 
ATOM     20  H3  UNL     1      -2.344  13.978  77.078  1.00  0.00     0.177 HD
BRANCH  19  21
HETATM   21  C7  UNL     1      -2.804  14.586  79.019  1.00  0.00     0.140 C 
BRANCH  21  22
HETATM   22  C8  UNL     1      -4.246  15.049  78.835  1.00  0.00     0.046 C 
BRANCH  22  23
HETATM   23  C9  UNL     1      -5.179  14.120  79.533  1.00  0.00     0.165 C 
BRANCH  23  24
HETATM   24  O1  UNL     1      -5.381  13.011  78.703  1.00  0.00    -0.401 OA
ATOM     25  H1  UNL     1      -5.386  13.317  77.804  1.00  0.00     0.209 HD
ENDBRANCH  23  24
ENDBRANCH  22  23
ENDBRANCH  21  22
ENDBRANCH  19  21
ENDBRANCH   4  19
BRANCH   1  26
HETATM   26  N1  UNL     1       0.444  10.492  79.867  1.00  0.00    -0.225 N 
ATOM     27  H1  UNL     1       0.566   9.512  80.119  1.00  0.00     0.177 HD
BRANCH  26  28
HETATM   28  C4  UNL     1       1.447  11.439  80.298  1.00  0.00     0.138 C 
BRANCH  28  29
HETATM   29  C3  UNL     1       2.276  11.867  79.103  1.00  0.00     0.020 C 
BRANCH  29  30
HETATM   30  C2  UNL     1       2.387  13.394  79.109  1.00  0.00    -0.003 C 
HETATM   31  C1  UNL     1       2.672  13.900  80.505  1.00  0.00     0.005 C 
ENDBRANCH  29  30
ENDBRANCH  28  29
ENDBRANCH  26  28
ENDBRANCH   1  26
TORSDOF 15
ENDMDL
MODEL 4
REMARK VINA RESULT: -6.041250710      1.264      5.714
REMARK  15 active torsions:
REMARK  status: ('A' for Active; 'I' for Inactive)
REMARK    1  A    between atoms: C2_2  and  C3_3 
REMARK    2  A    between atoms: C3_3  and  C4_4 
REMARK    3  A    between atoms: C4_4  and  N1_5 
REMARK    4  A    between atoms: N1_5  and  C5_7 
REMARK    5  A    between atoms: C6_10  and  N3_11 
REMARK    6  A    between atoms: N3_11  and  C7_13 
REMARK    7  A    between atoms: C7_13  and  C8_14 
REMARK    8  A    between atoms: C8_14  and  C9_15 
REMARK    9  A    between atoms: C9_15  and  O1_16 
REMARK   10  A    between atoms: C10_20  and  N5_21 
REMARK   11  A    between atoms: N5_21  and  C11_23 
REMARK   12  A    between atoms: C11_23  and  C12_24 
REMARK   13  A    between atoms: C11_23  and  C13_27 
REMARK   14  A    between atoms: C12_24  and  O2_25 
REMARK   15  A    between atoms: C13_27  and  O3_28 
ROOT
HETATM    1  C5  UNL     1      -2.795  12.702  78.032  1.00  0.00     0.707 A 
HETATM    2  N2  UNL     1      -1.717  12.148  78.591  1.00  0.00    -0.022 N 
ATOM      3  H2  UNL     1      -1.164  12.703  79.244  1.00  0.00     0.203 HD
HETATM    4  C6  UNL     1      -1.326  10.874  78.323  1.00  0.00     0.707 A 
HETATM    5  N4  UNL     1      -2.080  10.180  77.457  1.00  0.00    -0.022 N 
ATOM      6  H4  UNL     1      -1.823   9.221  77.227  1.00  0.00     0.203 HD
HETATM    7  C10 UNL     1      -3.190  10.738  76.875  1.00  0.00     0.707 A 
HETATM    8  N6  UNL     1      -3.550  12.000  77.162  1.00  0.00    -0.022 N 
ATOM      9  H6  UNL     1      -4.376  12.417  76.731  1.00  0.00     0.203 HD
ENDROOT
BRANCH   7  10
HETATM   10  N5  UNL     1      -3.835   9.980  76.064  1.00  0.00    -0.216 N 
ATOM     11  H5  UNL     1      -3.870  10.267  75.086  1.00  0.00     0.178 HD
BRANCH  10  12
HETATM   12  C11 UNL     1      -4.512   8.759  76.415  1.00  0.00     0.146 C 
BRANCH  12  13
HETATM   13  C12 UNL     1      -3.935   7.596  75.662  1.00  0.00     0.192 C 
BRANCH  13  14
HETATM   14  O2  UNL     1      -2.571   7.467  75.788  1.00  0.00    -0.399 OA
ATOM     15  H2  UNL     1      -2.227   6.647  75.451  1.00  0.00     0.209 HD
ENDBRANCH  13  14
ENDBRANCH  12  13
BRANCH  12  16
HETATM   16  C13 UNL     1      -5.994   8.913  76.252  1.00  0.00     0.192 C 
BRANCH  16  17
HETATM   17  O3  UNL     1      -6.725   8.338  77.280  1.00  0.00    -0.399 OA
ATOM     18  H3  UNL     1      -6.339   8.471  78.138  1.00  0.00     0.209 HD
ENDBRANCH  16  17
ENDBRANCH  12  16
ENDBRANCH  10  12
ENDBRANCH   7  10
BRANCH   4  19
HETATM   19  N3  UNL     1      -0.280  10.371  78.879  1.00  0.00    -0.225 N 
ATOM     20  H3  UNL     1       0.249   9.697  78.325  1.00  0.00     0.177 HD
BRANCH  19  21
HETATM   21  C7  UNL     1       0.220  10.649  80.180  1.00  0.00     0.140 C 
BRANCH  21  22
HETATM   22  C8  UNL     1       1.472  11.522  80.169  1.00  0.00     0.046 C 
BRANCH  22  23
HETATM   23  C9  UNL     1       2.138  11.452  78.838  1.00  0.00     0.165 C 
BRANCH  23  24
HETATM   24  O1  UNL     1       2.988  10.340  78.842  1.00  0.00    -0.401 OA
ATOM     25  H1  UNL     1       3.312  10.218  77.957  1.00  0.00     0.209 HD
ENDBRANCH  23  24
ENDBRANCH  22  23
ENDBRANCH  21  22
ENDBRANCH  19  21
ENDBRANCH   4  19
BRANCH   1  26
HETATM   26  N1  UNL     1      -3.179  13.909  78.277  1.00  0.00    -0.225 N 
ATOM     27  H1  UNL     1      -2.940  14.636  77.602  1.00  0.00     0.177 HD
BRANCH  26  28
HETATM   28  C4  UNL     1      -3.928  14.288  79.452  1.00  0.00     0.138 C 
BRANCH  28  29
HETATM   29  C3  UNL     1      -5.407  14.313  79.116  1.00  0.00     0.020 C 
BRANCH  29  30
HETATM   30  C2  UNL     1      -6.183  13.705  80.288  1.00  0.00    -0.003 C 
HETATM   31  C1  UNL     1      -7.251  12.761  79.783  1.00  0.00     0.005 C 
ENDBRANCH  29  30
ENDBRANCH  28  29
ENDBRANCH  26  28
ENDBRANCH   1  26
TORSDOF 15
ENDMDL
MODEL 5
REMARK VINA RESULT: -5.991346399      1.533      4.874
REMARK  15 active torsions:
REMARK  status: ('A' for Active; 'I' for Inactive)
REMARK    1  A    between atoms: C2_2  and  C3_3 
REMARK    2  A    between atoms: C3_3  and  C4_4 
REMARK    3  A    between atoms: C4_4  and  N1_5 
REMARK    4  A    between atoms: N1_5  and  C5_7 
REMARK    5  A    between atoms: C6_10  and  N3_11 
REMARK    6  A    between atoms: N3_11  and  C7_13 
REMARK    7  A    between atoms: C7_13  and  C8_14 
REMARK    8  A    between atoms: C8_14  and  C9_15 
REMARK    9  A    between atoms: C9_15  and  O1_16 
REMARK   10  A    between atoms: C10_20  and  N5_21 
REMARK   11  A    between atoms: N5_21  and  C11_23 
REMARK   12  A    between atoms: C11_23  and  C12_24 
REMARK   13  A    between atoms: C11_23  and  C13_27 
REMARK   14  A    between atoms: C12_24  and  O2_25 
REMARK   15  A    between atoms: C13_27  and  O3_28 
ROOT
HETATM    1  C5  UNL     1      -2.349   9.645  77.131  1.00  0.00     0.707 A 
HETATM    2  N2  UNL     1      -2.965  10.830  77.144  1.00  0.00    -0.022 N 
ATOM      3  H2  UNL     1      -3.779  10.965  76.544  1.00  0.00     0.203 HD
HETATM    4  C6  UNL     1      -2.550  11.862  77.925  1.00  0.00     0.707 A 
HETATM    5  N4  UNL     1      -1.476  11.642  78.697  1.00  0.00    -0.022 N 
ATOM      6  H4  UNL     1      -1.131  12.390  79.299  1.00  0.00     0.203 HD
HETATM    7  C10 UNL     1      -0.834  10.431  78.693  1.00  0.00     0.707 A 
HETATM    8  N6  UNL     1      -1.269   9.429  77.911  1.00  0.00    -0.022 N 
ATOM      9  H6  UNL     1      -0.793   8.527  77.906  1.00  0.00     0.203 HD
ENDROOT
BRANCH   7  10
HETATM   10  N5  UNL     1       0.182  10.335  79.473  1.00  0.00    -0.216 N 
ATOM     11  H5  UNL     1       0.276   9.475  80.013  1.00  0.00     0.178 HD
BRANCH  10  12
HETATM   12  C11 UNL     1       1.199  11.337  79.651  1.00  0.00     0.146 C 
BRANCH  12  13
HETATM   13  C12 UNL     1       2.168  11.322  78.504  1.00  0.00     0.192 C 
BRANCH  13  14
HETATM   14  O2  UNL     1       3.221  10.452  78.671  1.00  0.00    -0.399 OA
ATOM     15  H2  UNL     1       3.944  10.601  78.073  1.00  0.00     0.209 HD
ENDBRANCH  13  14
ENDBRANCH  12  13
BRANCH  12  16
HETATM   16  C13 UNL     1       1.848  11.196  80.995  1.00  0.00     0.192 C 
BRANCH  16  17
HETATM   17  O3  UNL     1       1.919   9.885  81.439  1.00  0.00    -0.399 OA
ATOM     18  H3  UNL     1       1.902   9.805  82.386  1.00  0.00     0.209 HD
ENDBRANCH  16  17
ENDBRANCH  12  16
ENDBRANCH  10  12
ENDBRANCH   7  10
BRANCH   4  19
HETATM   19  N3  UNL     1      -3.168  12.992  77.913  1.00  0.00    -0.225 N 
ATOM     20  H3  UNL     1      -3.925  13.087  77.235  1.00  0.00     0.177 HD
BRANCH  19  21
HETATM   21  C7  UNL     1      -2.913  14.121  78.737  1.00  0.00     0.140 C 
BRANCH  21  22
HETATM   22  C8  UNL     1      -4.078  15.105  78.786  1.00  0.00     0.046 C 
BRANCH  22  23
HETATM   23  C9  UNL     1      -5.338  14.396  79.147  1.00  0.00     0.165 C 
BRANCH  23  24
HETATM   24  O1  UNL     1      -5.062  13.559  80.234  1.00  0.00    -0.401 OA
ATOM     25  H1  UNL     1      -4.686  14.092  80.925  1.00  0.00     0.209 HD
ENDBRANCH  23  24
ENDBRANCH  22  23
ENDBRANCH  21  22
ENDBRANCH  19  21
ENDBRANCH   4  19
BRANCH   1  26
HETATM   26  N1  UNL     1      -2.731   8.657  76.397  1.00  0.00    -0.225 N 
ATOM     27  H1  UNL     1      -2.325   7.738  76.577  1.00  0.00     0.177 HD
BRANCH  26  28
HETATM   28  C4  UNL     1      -3.701   8.778  75.333  1.00  0.00     0.138 C 
BRANCH  28  29
HETATM   29  C3  UNL     1      -4.159   7.394  74.915  1.00  0.00     0.020 C 
BRANCH  29  30
HETATM   30  C2  UNL     1      -5.353   6.992  75.786  1.00  0.00    -0.003 C 
HETATM   31  C1  UNL     1      -6.400   8.082  75.787  1.00  0.00     0.005 C 
ENDBRANCH  29  30
ENDBRANCH  28  29
ENDBRANCH  26  28
ENDBRANCH   1  26
TORSDOF 15
ENDMDL
