MODEL 1
REMARK VINA RESULT: -8.497039310      0.000      0.000
REMARK  6 active torsions:
REMARK  status: ('A' for Active; 'I' for Inactive)
REMARK    1  A    between atoms: C2_2  and  C3_3 
REMARK    2  A    between atoms: C3_3  and  N1_6 
REMARK       I    between atoms: N1_6  and  C6_8 
REMARK       I    between atoms: C6_8  and  N2_10 
REMARK    3  A    between atoms: N2_10  and  C7_12 
REMARK    4  A    between atoms: C7_12  and  C8_13 
REMARK       I    between atoms: C8_13  and  N3_15 
REMARK    5  A    between atoms: N3_15  and  C9_17 
REMARK    6  A    between atoms: C9_17  and  C10_18 
REMARK       I    between atoms: C10_18  and  N4_20 
ROOT
HETATM    1  C8  UNL     1     -20.839 -38.302   0.520  1.00  0.00     0.246 C 
HETATM    2  O2  UNL     1     -21.033 -37.070   0.409  1.00  0.00    -0.271 OA
HETATM    3  N3  UNL     1     -20.798 -39.183  -0.568  1.00  0.00    -0.350 N 
ATOM      4  H3  UNL     1     -20.640 -40.178  -0.404  1.00  0.00     0.163 HD
ENDROOT
BRANCH   1   5
HETATM    5  C7  UNL     1     -20.645 -38.806   1.929  1.00  0.00     0.115 C 
HETATM    6  C20 UNL     1     -21.994 -39.046   2.582  1.00  0.00     0.041 C 
HETATM    7  C21 UNL     1     -22.195 -40.520   2.702  1.00  0.00     0.003 C 
HETATM    8  C22 UNL     1     -20.918 -41.186   2.303  1.00  0.00     0.003 C 
HETATM    9  C23 UNL     1     -19.936 -40.117   1.900  1.00  0.00     0.041 C 
BRANCH   5  10
HETATM   10  N2  UNL     1     -19.996 -37.775   2.684  1.00  0.00    -0.325 N 
HETATM   11  C6  UNL     1     -18.582 -37.664   2.703  1.00  0.00     0.318 C 
HETATM   12  N1  UNL     1     -17.992 -36.653   3.514  1.00  0.00    -0.331 N 
HETATM   13  O1  UNL     1     -17.847 -38.432   2.029  1.00  0.00    -0.247 OA
ATOM     14  H1  UNL     1     -18.596 -36.049   4.073  1.00  0.00     0.165 HD
ATOM     15  H2  UNL     1     -20.559 -37.111   3.215  1.00  0.00     0.165 HD
BRANCH  12  16
HETATM   16  C3  UNL     1     -16.565 -36.459   3.566  1.00  0.00     0.044 C 
HETATM   17  C4  UNL     1     -16.159 -35.613   4.747  1.00  0.00     0.042 C 
HETATM   18  C5  UNL     1     -15.828 -37.779   3.664  1.00  0.00     0.042 C 
BRANCH  16  19
HETATM   19  C2  UNL     1     -16.182 -35.789   2.278  1.00  0.00    -0.007 C 
HETATM   20  C1  UNL     1     -14.876 -35.778   1.939  1.00  0.00     0.009 C 
ENDBRANCH  16  19
ENDBRANCH  12  16
ENDBRANCH   5  10
ENDBRANCH   1   5
BRANCH   3  21
HETATM   21  C9  UNL     1     -20.975 -38.704  -1.910  1.00  0.00     0.225 C 
BRANCH  21  22
HETATM   22  C10 UNL     1     -19.766 -38.839  -2.745  1.00  0.00     0.237 C 
HETATM   23  O3  UNL     1     -19.231 -39.936  -3.036  1.00  0.00    -0.272 OA
HETATM   24  N4  UNL     1     -19.155 -37.677  -3.264  1.00  0.00    -0.351 N 
HETATM   25  C11 UNL     1     -18.004 -37.680  -4.130  1.00  0.00     0.126 C 
HETATM   26  C19 UNL     1     -19.687 -36.369  -2.905  1.00  0.00     0.126 C 
HETATM   27  C12 UNL     1     -17.362 -36.341  -4.284  1.00  0.00     0.029 C 
HETATM   28  C13 UNL     1     -17.347 -35.503  -3.048  1.00  0.00    -0.037 C 
HETATM   29  C14 UNL     1     -16.097 -35.794  -2.250  1.00  0.00     0.010 C 
HETATM   30  C17 UNL     1     -17.197 -34.030  -3.356  1.00  0.00     0.010 C 
HETATM   31  C18 UNL     1     -18.531 -35.687  -2.155  1.00  0.00     0.029 C 
HETATM   32  C15 UNL     1     -15.952 -34.603  -1.363  1.00  0.00     0.001 C 
HETATM   33  C16 UNL     1     -16.557 -33.463  -2.113  1.00  0.00     0.001 C 
ENDBRANCH  21  22
ENDBRANCH   3  21
TORSDOF 6
ENDMDL
MODEL 2
REMARK VINA RESULT: -8.146950260      2.006      2.370
REMARK  6 active torsions:
REMARK  status: ('A' for Active; 'I' for Inactive)
REMARK    1  A    between atoms: C2_2  and  C3_3 
REMARK    2  A    between atoms: C3_3  and  N1_6 
REMARK       I    between atoms: N1_6  and  C6_8 
REMARK       I    between atoms: C6_8  and  N2_10 
REMARK    3  A    between atoms: N2_10  and  C7_12 
REMARK    4  A    between atoms: C7_12  and  C8_13 
REMARK       I    between atoms: C8_13  and  N3_15 
REMARK    5  A    between atoms: N3_15  and  C9_17 
REMARK    6  A    between atoms: C9_17  and  C10_18 
REMARK       I    between atoms: C10_18  and  N4_20 
ROOT
HETATM    1  C8  UNL     1     -20.059 -39.318   3.163  1.00  0.00     0.246 C 
HETATM    2  O2  UNL     1     -20.974 -38.667   3.716  1.00  0.00    -0.271 OA
HETATM    3  N3  UNL     1     -19.934 -39.458   1.775  1.00  0.00    -0.350 N 
ATOM      4  H3  UNL     1     -19.165 -40.008   1.392  1.00  0.00     0.163 HD
ENDROOT
BRANCH   1   5
HETATM    5  C7  UNL     1     -19.065 -39.966   4.096  1.00  0.00     0.115 C 
HETATM    6  C20 UNL     1     -19.280 -39.462   5.511  1.00  0.00     0.041 C 
HETATM    7  C21 UNL     1     -19.877 -40.571   6.312  1.00  0.00     0.003 C 
HETATM    8  C22 UNL     1     -19.861 -41.802   5.464  1.00  0.00     0.003 C 
HETATM    9  C23 UNL     1     -19.286 -41.440   4.119  1.00  0.00     0.041 C 
BRANCH   5  10
HETATM   10  N2  UNL     1     -17.751 -39.549   3.702  1.00  0.00    -0.325 N 
HETATM   11  C6  UNL     1     -17.355 -38.190   3.806  1.00  0.00     0.318 C 
HETATM   12  N1  UNL     1     -16.056 -37.826   3.349  1.00  0.00    -0.331 N 
HETATM   13  O1  UNL     1     -18.117 -37.311   4.286  1.00  0.00    -0.247 OA
ATOM     14  H1  UNL     1     -15.453 -38.543   2.943  1.00  0.00     0.165 HD
ATOM     15  H2  UNL     1     -17.092 -40.239   3.342  1.00  0.00     0.165 HD
BRANCH  12  16
HETATM   16  C3  UNL     1     -15.570 -36.473   3.445  1.00  0.00     0.044 C 
HETATM   17  C4  UNL     1     -16.052 -35.794   4.703  1.00  0.00     0.042 C 
HETATM   18  C5  UNL     1     -14.056 -36.424   3.440  1.00  0.00     0.042 C 
BRANCH  16  19
HETATM   19  C2  UNL     1     -16.078 -35.755   2.228  1.00  0.00    -0.007 C 
HETATM   20  C1  UNL     1     -15.171 -35.328   1.326  1.00  0.00     0.009 C 
ENDBRANCH  16  19
ENDBRANCH  12  16
ENDBRANCH   5  10
ENDBRANCH   1   5
BRANCH   3  21
HETATM   21  C9  UNL     1     -20.875 -38.836   0.885  1.00  0.00     0.225 C 
BRANCH  21  22
HETATM   22  C10 UNL     1     -20.541 -39.017  -0.540  1.00  0.00     0.237 C 
HETATM   23  O3  UNL     1     -20.549 -40.124  -1.130  1.00  0.00    -0.272 OA
HETATM   24  N4  UNL     1     -20.188 -37.889  -1.313  1.00  0.00    -0.351 N 
HETATM   25  C11 UNL     1     -19.891 -37.928  -2.721  1.00  0.00     0.126 C 
HETATM   26  C19 UNL     1     -20.092 -36.585  -0.671  1.00  0.00     0.126 C 
HETATM   27  C12 UNL     1     -19.247 -36.684  -3.237  1.00  0.00     0.029 C 
HETATM   28  C13 UNL     1     -18.277 -36.042  -2.300  1.00  0.00    -0.037 C 
HETATM   29  C14 UNL     1     -16.896 -36.616  -2.524  1.00  0.00     0.010 C 
HETATM   30  C17 UNL     1     -18.068 -34.576  -2.605  1.00  0.00     0.010 C 
HETATM   31  C18 UNL     1     -18.618 -36.186  -0.852  1.00  0.00     0.029 C 
HETATM   32  C15 UNL     1     -15.983 -35.597  -1.929  1.00  0.00     0.001 C 
HETATM   33  C16 UNL     1     -16.685 -34.288  -2.078  1.00  0.00     0.001 C 
ENDBRANCH  21  22
ENDBRANCH   3  21
TORSDOF 6
ENDMDL
MODEL 3
REMARK VINA RESULT: -7.948848459      2.296      5.241
REMARK  6 active torsions:
REMARK  status: ('A' for Active; 'I' for Inactive)
REMARK    1  A    between atoms: C2_2  and  C3_3 
REMARK    2  A    between atoms: C3_3  and  N1_6 
REMARK       I    between atoms: N1_6  and  C6_8 
REMARK       I    between atoms: C6_8  and  N2_10 
REMARK    3  A    between atoms: N2_10  and  C7_12 
REMARK    4  A    between atoms: C7_12  and  C8_13 
REMARK       I    between atoms: C8_13  and  N3_15 
REMARK    5  A    between atoms: N3_15  and  C9_17 
REMARK    6  A    between atoms: C9_17  and  C10_18 
REMARK       I    between atoms: C10_18  and  N4_20 
ROOT
HETATM    1  C8  UNL     1     -15.904 -36.672   3.074  1.00  0.00     0.246 C 
HETATM    2  O2  UNL     1     -14.798 -37.044   2.620  1.00  0.00    -0.271 OA
HETATM    3  N3  UNL     1     -16.825 -35.907   2.347  1.00  0.00    -0.350 N 
ATOM      4  H3  UNL     1     -17.707 -35.634   2.781  1.00  0.00     0.163 HD
ENDROOT
BRANCH   1   5
HETATM    5  C7  UNL     1     -16.206 -37.103   4.488  1.00  0.00     0.115 C 
HETATM    6  C20 UNL     1     -14.926 -37.137   5.302  1.00  0.00     0.041 C 
HETATM    7  C21 UNL     1     -14.956 -35.994   6.261  1.00  0.00     0.003 C 
HETATM    8  C22 UNL     1     -16.310 -35.369   6.178  1.00  0.00     0.003 C 
HETATM    9  C23 UNL     1     -17.107 -36.108   5.135  1.00  0.00     0.041 C 
BRANCH   5  10
HETATM   10  N2  UNL     1     -16.706 -38.446   4.445  1.00  0.00    -0.325 N 
HETATM   11  C6  UNL     1     -18.045 -38.714   4.060  1.00  0.00     0.318 C 
HETATM   12  N1  UNL     1     -18.501 -40.063   4.088  1.00  0.00    -0.331 N 
HETATM   13  O1  UNL     1     -18.829 -37.797   3.700  1.00  0.00    -0.247 OA
ATOM     14  H1  UNL     1     -17.865 -40.796   4.401  1.00  0.00     0.165 HD
ATOM     15  H2  UNL     1     -16.091 -39.220   4.696  1.00  0.00     0.165 HD
BRANCH  12  16
HETATM   16  C3  UNL     1     -19.839 -40.420   3.687  1.00  0.00     0.044 C 
HETATM   17  C4  UNL     1     -20.061 -41.910   3.748  1.00  0.00     0.042 C 
HETATM   18  C5  UNL     1     -20.879 -39.757   4.565  1.00  0.00     0.042 C 
BRANCH  16  19
HETATM   19  C2  UNL     1     -20.006 -39.917   2.281  1.00  0.00    -0.007 C 
HETATM   20  C1  UNL     1     -20.902 -40.544   1.492  1.00  0.00     0.009 C 
ENDBRANCH  16  19
ENDBRANCH  12  16
ENDBRANCH   5  10
ENDBRANCH   1   5
BRANCH   3  21
HETATM   21  C9  UNL     1     -16.543 -35.502   0.998  1.00  0.00     0.225 C 
BRANCH  21  22
HETATM   22  C10 UNL     1     -17.715 -35.580   0.105  1.00  0.00     0.237 C 
HETATM   23  O3  UNL     1     -18.821 -36.070   0.437  1.00  0.00    -0.272 OA
HETATM   24  N4  UNL     1     -17.613 -35.077  -1.210  1.00  0.00    -0.351 N 
HETATM   25  C11 UNL     1     -18.697 -35.050  -2.157  1.00  0.00     0.126 C 
HETATM   26  C19 UNL     1     -16.335 -34.558  -1.679  1.00  0.00     0.126 C 
HETATM   27  C12 UNL     1     -18.267 -34.768  -3.559  1.00  0.00     0.029 C 
HETATM   28  C13 UNL     1     -16.964 -35.383  -3.953  1.00  0.00    -0.037 C 
HETATM   29  C14 UNL     1     -17.201 -36.768  -4.511  1.00  0.00     0.010 C 
HETATM   30  C17 UNL     1     -16.324 -34.670  -5.123  1.00  0.00     0.010 C 
HETATM   31  C18 UNL     1     -15.962 -35.484  -2.848  1.00  0.00     0.029 C 
HETATM   32  C15 UNL     1     -15.965 -37.056  -5.295  1.00  0.00     0.001 C 
HETATM   33  C16 UNL     1     -15.469 -35.731  -5.771  1.00  0.00     0.001 C 
ENDBRANCH  21  22
ENDBRANCH   3  21
TORSDOF 6
ENDMDL
MODEL 4
REMARK VINA RESULT: -7.921450594      3.377      7.418
REMARK  6 active torsions:
REMARK  status: ('A' for Active; 'I' for Inactive)
REMARK    1  A    between atoms: C2_2  and  C3_3 
REMARK    2  A    between atoms: C3_3  and  N1_6 
REMARK       I    between atoms: N1_6  and  C6_8 
REMARK       I    between atoms: C6_8  and  N2_10 
REMARK    3  A    between atoms: N2_10  and  C7_12 
REMARK    4  A    between atoms: C7_12  and  C8_13 
REMARK       I    between atoms: C8_13  and  N3_15 
REMARK    5  A    between atoms: N3_15  and  C9_17 
REMARK    6  A    between atoms: C9_17  and  C10_18 
REMARK       I    between atoms: C10_18  and  N4_20 
ROOT
HETATM    1  C8  UNL     1     -17.074 -37.319   2.616  1.00  0.00     0.246 C 
HETATM    2  O2  UNL     1     -16.893 -38.460   3.097  1.00  0.00    -0.271 OA
HETATM    3  N3  UNL     1     -16.169 -36.260   2.764  1.00  0.00    -0.350 N 
ATOM      4  H3  UNL     1     -16.383 -35.353   2.349  1.00  0.00     0.163 HD
ENDROOT
BRANCH   1   5
HETATM    5  C7  UNL     1     -18.357 -37.134   1.844  1.00  0.00     0.115 C 
HETATM    6  C20 UNL     1     -19.383 -38.158   2.293  1.00  0.00     0.041 C 
HETATM    7  C21 UNL     1     -20.434 -37.447   3.079  1.00  0.00     0.003 C 
HETATM    8  C22 UNL     1     -20.171 -35.981   2.965  1.00  0.00     0.003 C 
HETATM    9  C23 UNL     1     -18.928 -35.788   2.134  1.00  0.00     0.041 C 
BRANCH   5  10
HETATM   10  N2  UNL     1     -18.085 -37.399   0.462  1.00  0.00    -0.325 N 
HETATM   11  C6  UNL     1     -17.729 -36.351  -0.426  1.00  0.00     0.318 C 
HETATM   12  N1  UNL     1     -17.523 -36.667  -1.800  1.00  0.00    -0.331 N 
HETATM   13  O1  UNL     1     -17.595 -35.163  -0.032  1.00  0.00    -0.247 OA
ATOM     14  H1  UNL     1     -17.654 -37.629  -2.113  1.00  0.00     0.165 HD
ATOM     15  H2  UNL     1     -18.148 -38.355   0.111  1.00  0.00     0.165 HD
BRANCH  12  16
HETATM   16  C3  UNL     1     -17.134 -35.663  -2.758  1.00  0.00     0.044 C 
HETATM   17  C4  UNL     1     -16.705 -36.278  -4.067  1.00  0.00     0.042 C 
HETATM   18  C5  UNL     1     -18.266 -34.699  -3.045  1.00  0.00     0.042 C 
BRANCH  16  19
HETATM   19  C2  UNL     1     -15.999 -34.901  -2.135  1.00  0.00    -0.007 C 
HETATM   20  C1  UNL     1     -15.724 -33.674  -2.622  1.00  0.00     0.009 C 
ENDBRANCH  16  19
ENDBRANCH  12  16
ENDBRANCH   5  10
ENDBRANCH   1   5
BRANCH   3  21
HETATM   21  C9  UNL     1     -14.943 -36.436   3.493  1.00  0.00     0.225 C 
BRANCH  21  22
HETATM   22  C10 UNL     1     -14.765 -35.460   4.584  1.00  0.00     0.237 C 
HETATM   23  O3  UNL     1     -15.663 -35.147   5.402  1.00  0.00    -0.272 OA
HETATM   24  N4  UNL     1     -13.514 -34.825   4.742  1.00  0.00    -0.351 N 
HETATM   25  C11 UNL     1     -13.200 -33.894   5.795  1.00  0.00     0.126 C 
HETATM   26  C19 UNL     1     -12.451 -35.093   3.782  1.00  0.00     0.126 C 
HETATM   27  C12 UNL     1     -11.938 -33.130   5.568  1.00  0.00     0.029 C 
HETATM   28  C13 UNL     1     -11.682 -32.744   4.148  1.00  0.00    -0.037 C 
HETATM   29  C14 UNL     1     -12.317 -31.401   3.862  1.00  0.00     0.010 C 
HETATM   30  C17 UNL     1     -10.219 -32.470   3.883  1.00  0.00     0.010 C 
HETATM   31  C18 UNL     1     -12.176 -33.726   3.135  1.00  0.00     0.029 C 
HETATM   32  C15 UNL     1     -11.600 -30.918   2.646  1.00  0.00     0.001 C 
HETATM   33  C16 UNL     1     -10.233 -31.513   2.718  1.00  0.00     0.001 C 
ENDBRANCH  21  22
ENDBRANCH   3  21
TORSDOF 6
ENDMDL
MODEL 5
REMARK VINA RESULT: -7.911780510      2.661      5.246
REMARK  6 active torsions:
REMARK  status: ('A' for Active; 'I' for Inactive)
REMARK    1  A    between atoms: C2_2  and  C3_3 
REMARK    2  A    between atoms: C3_3  and  N1_6 
REMARK       I    between atoms: N1_6  and  C6_8 
REMARK       I    between atoms: C6_8  and  N2_10 
REMARK    3  A    between atoms: N2_10  and  C7_12 
REMARK    4  A    between atoms: C7_12  and  C8_13 
REMARK       I    between atoms: C8_13  and  N3_15 
REMARK    5  A    between atoms: N3_15  and  C9_17 
REMARK    6  A    between atoms: C9_17  and  C10_18 
REMARK       I    between atoms: C10_18  and  N4_20 
ROOT
HETATM    1  C8  UNL     1     -17.584 -38.139   3.753  1.00  0.00     0.246 C 
HETATM    2  O2  UNL     1     -16.386 -38.499   3.742  1.00  0.00    -0.271 OA
HETATM    3  N3  UNL     1     -18.392 -38.095   2.610  1.00  0.00    -0.350 N 
ATOM      4  H3  UNL     1     -19.361 -37.786   2.690  1.00  0.00     0.163 HD
ENDROOT
BRANCH   1   5
HETATM    5  C7  UNL     1     -18.134 -37.744   5.101  1.00  0.00     0.115 C 
HETATM    6  C20 UNL     1     -17.073 -37.002   5.894  1.00  0.00     0.041 C 
HETATM    7  C21 UNL     1     -17.466 -35.563   5.959  1.00  0.00     0.003 C 
HETATM    8  C22 UNL     1     -18.838 -35.441   5.380  1.00  0.00     0.003 C 
HETATM    9  C23 UNL     1     -19.279 -36.807   4.922  1.00  0.00     0.041 C 
BRANCH   5  10
HETATM   10  N2  UNL     1     -18.431 -38.943   5.828  1.00  0.00    -0.325 N 
HETATM   11  C6  UNL     1     -19.485 -39.801   5.420  1.00  0.00     0.318 C 
HETATM   12  N1  UNL     1     -19.769 -40.950   6.213  1.00  0.00    -0.331 N 
HETATM   13  O1  UNL     1     -20.167 -39.571   4.388  1.00  0.00    -0.247 OA
ATOM     14  H1  UNL     1     -19.223 -41.117   7.059  1.00  0.00     0.165 HD
ATOM     15  H2  UNL     1     -17.877 -39.183   6.650  1.00  0.00     0.165 HD
BRANCH  12  16
HETATM   16  C3  UNL     1     -20.805 -41.884   5.851  1.00  0.00     0.044 C 
HETATM   17  C4  UNL     1     -22.175 -41.261   5.946  1.00  0.00     0.042 C 
HETATM   18  C5  UNL     1     -20.623 -42.398   4.438  1.00  0.00     0.042 C 
BRANCH  16  19
HETATM   19  C2  UNL     1     -20.682 -43.040   6.802  1.00  0.00    -0.007 C 
HETATM   20  C1  UNL     1     -21.797 -43.749   7.077  1.00  0.00     0.009 C 
ENDBRANCH  16  19
ENDBRANCH  12  16
ENDBRANCH   5  10
ENDBRANCH   1   5
BRANCH   3  21
HETATM   21  C9  UNL     1     -17.874 -38.478   1.326  1.00  0.00     0.225 C 
BRANCH  21  22
HETATM   22  C10 UNL     1     -18.868 -38.384   0.240  1.00  0.00     0.237 C 
HETATM   23  O3  UNL     1     -19.766 -39.235   0.032  1.00  0.00    -0.272 OA
HETATM   24  N4  UNL     1     -18.831 -37.274  -0.632  1.00  0.00    -0.351 N 
HETATM   25  C11 UNL     1     -19.774 -37.043  -1.696  1.00  0.00     0.126 C 
HETATM   26  C19 UNL     1     -17.771 -36.286  -0.487  1.00  0.00     0.126 C 
HETATM   27  C12 UNL     1     -19.347 -35.990  -2.663  1.00  0.00     0.029 C 
HETATM   28  C13 UNL     1     -17.884 -35.966  -2.963  1.00  0.00    -0.037 C 
HETATM   29  C14 UNL     1     -17.587 -36.882  -4.129  1.00  0.00     0.010 C 
HETATM   30  C17 UNL     1     -17.427 -34.623  -3.485  1.00  0.00     0.010 C 
HETATM   31  C18 UNL     1     -17.006 -36.359  -1.819  1.00  0.00     0.029 C 
HETATM   32  C15 UNL     1     -16.264 -36.408  -4.630  1.00  0.00     0.001 C 
HETATM   33  C16 UNL     1     -16.211 -34.950  -4.314  1.00  0.00     0.001 C 
ENDBRANCH  21  22
ENDBRANCH   3  21
TORSDOF 6
ENDMDL
