MODEL 1
REMARK VINA RESULT: -8.279033299      0.000      0.000
REMARK  7 active torsions:
REMARK  status: ('A' for Active; 'I' for Inactive)
REMARK    1  A    between atoms: C2_2  and  N1_4 
REMARK    2  A    between atoms: N1_4  and  C4_6 
REMARK    3  A    between atoms: C4_6  and  C6_8 
REMARK       I    between atoms: C6_8  and  N2_10 
REMARK    4  A    between atoms: N2_10  and  C7_12 
REMARK    5  A    between atoms: C13_18  and  N3_19 
REMARK       I    between atoms: N3_19  and  C14_21 
REMARK    6  A    between atoms: C14_21  and  C15_23 
REMARK    7  A    between atoms: C15_23  and  N4_24 
ROOT
HETATM    1  C7  UNL     1     -19.044 -36.152  -1.335  1.00  0.00     0.116 C 
HETATM    2  C8  UNL     1     -19.231 -35.649  -2.725  1.00  0.00     0.012 C 
HETATM    3  C9  UNL     1     -18.616 -34.315  -3.015  1.00  0.00     0.011 C 
HETATM    4  C10 UNL     1     -17.148 -34.314  -3.198  1.00  0.00    -0.014 C 
HETATM    5  C11 UNL     1     -16.358 -34.219  -1.911  1.00  0.00     0.007 C 
HETATM    6  C12 UNL     1     -17.091 -34.808  -0.745  1.00  0.00     0.033 C 
HETATM    7  C13 UNL     1     -17.577 -36.215  -0.960  1.00  0.00     0.054 C 
HETATM    8  C21 UNL     1     -16.806 -36.981  -1.992  1.00  0.00     0.038 C 
HETATM    9  C22 UNL     1     -17.200 -36.755  -3.406  1.00  0.00    -0.011 C 
HETATM   10  C23 UNL     1     -16.587 -35.470  -3.975  1.00  0.00     0.009 C 
HETATM   11  C24 UNL     1     -18.660 -36.668  -3.686  1.00  0.00     0.011 C 
ENDROOT
BRANCH   1  12
HETATM   12  N2  UNL     1     -19.566 -37.499  -1.274  1.00  0.00    -0.352 N 
HETATM   13  C6  UNL     1     -20.662 -37.874  -0.463  1.00  0.00     0.240 C 
HETATM   14  O1  UNL     1     -21.217 -37.002   0.241  1.00  0.00    -0.271 OA
ATOM     15  H2  UNL     1     -19.120 -38.216  -1.846  1.00  0.00     0.163 HD
BRANCH  13  16
HETATM   16  C4  UNL     1     -21.182 -39.263  -0.414  1.00  0.00     0.165 C 
HETATM   17  C5  UNL     1     -21.107 -39.810  -1.821  1.00  0.00     0.042 C 
BRANCH  16  18
HETATM   18  N1  UNL     1     -20.455 -40.040   0.517  1.00  0.00    -0.406 N 
ATOM     19  H1  UNL     1     -19.439 -40.103   0.447  1.00  0.00     0.154 HD
BRANCH  18  20
HETATM   20  C2  UNL     1     -21.131 -40.725   1.537  1.00  0.00     0.069 C 
HETATM   21  C1  UNL     1     -20.364 -40.808   2.844  1.00  0.00     0.031 C 
HETATM   22  C3  UNL     1     -22.533 -40.341   1.854  1.00  0.00     0.031 C 
ENDBRANCH  18  20
ENDBRANCH  16  18
ENDBRANCH  13  16
ENDBRANCH   1  12
BRANCH   7  23
HETATM   23  N3  UNL     1     -17.470 -36.910   0.296  1.00  0.00    -0.348 N 
HETATM   24  C14 UNL     1     -17.993 -36.448   1.534  1.00  0.00     0.244 C 
HETATM   25  O2  UNL     1     -18.596 -35.347   1.532  1.00  0.00    -0.272 OA
ATOM     26  H3  UNL     1     -16.982 -37.806   0.298  1.00  0.00     0.163 HD
BRANCH  24  27
HETATM   27  C15 UNL     1     -17.812 -37.266   2.761  1.00  0.00     0.339 C 
BRANCH  27  28
HETATM   28  N4  UNL     1     -16.828 -36.687   3.638  1.00  0.00    -0.063 N 
HETATM   29  C16 UNL     1     -17.404 -35.839   4.644  1.00  0.00     0.273 C 
HETATM   30  C17 UNL     1     -16.041 -37.726   4.283  1.00  0.00     0.237 C 
HETATM   31  C18 UNL     1     -14.823 -36.976   4.751  1.00  0.00     0.029 C 
HETATM   32  C19 UNL     1     -14.549 -36.009   3.647  1.00  0.00     0.029 C 
HETATM   33  C20 UNL     1     -15.831 -36.014   2.826  1.00  0.00     0.237 C 
ENDBRANCH  27  28
ENDBRANCH  24  27
ENDBRANCH   7  23
TORSDOF 7
ENDMDL
MODEL 2
REMARK VINA RESULT: -8.263082780      2.141      7.697
REMARK  7 active torsions:
REMARK  status: ('A' for Active; 'I' for Inactive)
REMARK    1  A    between atoms: C2_2  and  N1_4 
REMARK    2  A    between atoms: N1_4  and  C4_6 
REMARK    3  A    between atoms: C4_6  and  C6_8 
REMARK       I    between atoms: C6_8  and  N2_10 
REMARK    4  A    between atoms: N2_10  and  C7_12 
REMARK    5  A    between atoms: C13_18  and  N3_19 
REMARK       I    between atoms: N3_19  and  C14_21 
REMARK    6  A    between atoms: C14_21  and  C15_23 
REMARK    7  A    between atoms: C15_23  and  N4_24 
ROOT
HETATM    1  C7  UNL     1     -20.332 -38.958   4.296  1.00  0.00     0.116 C 
HETATM    2  C8  UNL     1     -20.281 -39.948   5.408  1.00  0.00     0.012 C 
HETATM    3  C9  UNL     1     -21.599 -40.534   5.808  1.00  0.00     0.011 C 
HETATM    4  C10 UNL     1     -22.142 -41.566   4.897  1.00  0.00    -0.014 C 
HETATM    5  C11 UNL     1     -22.926 -41.015   3.726  1.00  0.00     0.007 C 
HETATM    6  C12 UNL     1     -22.462 -39.650   3.320  1.00  0.00     0.033 C 
HETATM    7  C13 UNL     1     -20.984 -39.544   3.060  1.00  0.00     0.054 C 
HETATM    8  C21 UNL     1     -20.330 -40.841   2.689  1.00  0.00     0.038 C 
HETATM    9  C22 UNL     1     -19.949 -41.728   3.816  1.00  0.00    -0.011 C 
HETATM   10  C23 UNL     1     -21.142 -42.537   4.341  1.00  0.00     0.009 C 
HETATM   11  C24 UNL     1     -19.348 -41.071   5.010  1.00  0.00     0.011 C 
ENDROOT
BRANCH   1  12
HETATM   12  N2  UNL     1     -18.973 -38.611   3.945  1.00  0.00    -0.352 N 
HETATM   13  C6  UNL     1     -18.359 -37.392   4.320  1.00  0.00     0.240 C 
HETATM   14  O1  UNL     1     -19.017 -36.567   4.990  1.00  0.00    -0.271 OA
ATOM     15  H2  UNL     1     -18.428 -39.278   3.399  1.00  0.00     0.163 HD
BRANCH  13  16
HETATM   16  C4  UNL     1     -16.962 -37.054   3.949  1.00  0.00     0.165 C 
HETATM   17  C5  UNL     1     -16.391 -38.262   3.243  1.00  0.00     0.042 C 
BRANCH  16  18
HETATM   18  N1  UNL     1     -16.921 -35.884   3.157  1.00  0.00    -0.406 N 
ATOM     19  H1  UNL     1     -16.862 -34.968   3.601  1.00  0.00     0.154 HD
BRANCH  18  20
HETATM   20  C2  UNL     1     -16.961 -35.984   1.757  1.00  0.00     0.069 C 
HETATM   21  C1  UNL     1     -18.284 -35.563   1.143  1.00  0.00     0.031 C 
HETATM   22  C3  UNL     1     -15.869 -35.363   0.961  1.00  0.00     0.031 C 
ENDBRANCH  18  20
ENDBRANCH  16  18
ENDBRANCH  13  16
ENDBRANCH   1  12
BRANCH   7  23
HETATM   23  N3  UNL     1     -20.796 -38.615   1.976  1.00  0.00    -0.348 N 
HETATM   24  C14 UNL     1     -21.207 -38.831   0.633  1.00  0.00     0.244 C 
HETATM   25  O2  UNL     1     -21.779 -39.918   0.371  1.00  0.00    -0.272 OA
ATOM     26  H3  UNL     1     -20.333 -37.731   2.189  1.00  0.00     0.163 HD
BRANCH  24  27
HETATM   27  C15 UNL     1     -20.951 -37.787  -0.393  1.00  0.00     0.339 C 
BRANCH  27  28
HETATM   28  N4  UNL     1     -19.896 -38.178  -1.290  1.00  0.00    -0.063 N 
HETATM   29  C16 UNL     1     -18.747 -38.704  -0.608  1.00  0.00     0.273 C 
HETATM   30  C17 UNL     1     -20.374 -39.163  -2.246  1.00  0.00     0.237 C 
HETATM   31  C18 UNL     1     -19.342 -39.093  -3.339  1.00  0.00     0.029 C 
HETATM   32  C19 UNL     1     -19.013 -37.641  -3.431  1.00  0.00     0.029 C 
HETATM   33  C20 UNL     1     -19.584 -37.051  -2.149  1.00  0.00     0.237 C 
ENDBRANCH  27  28
ENDBRANCH  24  27
ENDBRANCH   7  23
TORSDOF 7
ENDMDL
MODEL 3
REMARK VINA RESULT: -8.097637798      1.059      1.858
REMARK  7 active torsions:
REMARK  status: ('A' for Active; 'I' for Inactive)
REMARK    1  A    between atoms: C2_2  and  N1_4 
REMARK    2  A    between atoms: N1_4  and  C4_6 
REMARK    3  A    between atoms: C4_6  and  C6_8 
REMARK       I    between atoms: C6_8  and  N2_10 
REMARK    4  A    between atoms: N2_10  and  C7_12 
REMARK    5  A    between atoms: C13_18  and  N3_19 
REMARK       I    between atoms: N3_19  and  C14_21 
REMARK    6  A    between atoms: C14_21  and  C15_23 
REMARK    7  A    between atoms: C15_23  and  N4_24 
ROOT
HETATM    1  C7  UNL     1     -19.078 -36.050  -1.447  1.00  0.00     0.116 C 
HETATM    2  C8  UNL     1     -19.161 -35.561  -2.851  1.00  0.00     0.012 C 
HETATM    3  C9  UNL     1     -18.510 -34.237  -3.111  1.00  0.00     0.011 C 
HETATM    4  C10 UNL     1     -17.033 -34.256  -3.191  1.00  0.00    -0.014 C 
HETATM    5  C11 UNL     1     -16.334 -34.155  -1.853  1.00  0.00     0.007 C 
HETATM    6  C12 UNL     1     -17.154 -34.723  -0.735  1.00  0.00     0.033 C 
HETATM    7  C13 UNL     1     -17.642 -36.127  -0.969  1.00  0.00     0.054 C 
HETATM    8  C21 UNL     1     -16.810 -36.914  -1.937  1.00  0.00     0.038 C 
HETATM    9  C22 UNL     1     -17.101 -36.699  -3.377  1.00  0.00    -0.011 C 
HETATM   10  C23 UNL     1     -16.434 -35.427  -3.915  1.00  0.00     0.009 C 
HETATM   11  C24 UNL     1     -18.537 -36.597  -3.760  1.00  0.00     0.011 C 
ENDROOT
BRANCH   1  12
HETATM   12  N2  UNL     1     -19.619 -37.391  -1.409  1.00  0.00    -0.352 N 
HETATM   13  C6  UNL     1     -20.588 -37.813  -0.468  1.00  0.00     0.240 C 
HETATM   14  O1  UNL     1     -21.004 -36.992   0.378  1.00  0.00    -0.271 OA
ATOM     15  H2  UNL     1     -19.285 -38.067  -2.096  1.00  0.00     0.163 HD
BRANCH  13  16
HETATM   16  C4  UNL     1     -21.130 -39.195  -0.445  1.00  0.00     0.165 C 
HETATM   17  C5  UNL     1     -20.965 -39.754  -1.839  1.00  0.00     0.042 C 
BRANCH  16  18
HETATM   18  N1  UNL     1     -20.481 -39.974   0.540  1.00  0.00    -0.406 N 
ATOM     19  H1  UNL     1     -19.464 -39.951   0.621  1.00  0.00     0.154 HD
BRANCH  18  20
HETATM   20  C2  UNL     1     -21.236 -40.779   1.406  1.00  0.00     0.069 C 
HETATM   21  C1  UNL     1     -20.529 -41.129   2.702  1.00  0.00     0.031 C 
HETATM   22  C3  UNL     1     -22.626 -40.366   1.741  1.00  0.00     0.031 C 
ENDBRANCH  18  20
ENDBRANCH  16  18
ENDBRANCH  13  16
ENDBRANCH   1  12
BRANCH   7  23
HETATM   23  N3  UNL     1     -17.632 -36.810   0.298  1.00  0.00    -0.348 N 
HETATM   24  C14 UNL     1     -16.802 -36.473   1.402  1.00  0.00     0.244 C 
HETATM   25  O2  UNL     1     -16.017 -35.503   1.261  1.00  0.00    -0.272 OA
ATOM     26  H3  UNL     1     -18.270 -37.596   0.414  1.00  0.00     0.163 HD
BRANCH  24  27
HETATM   27  C15 UNL     1     -16.890 -37.262   2.658  1.00  0.00     0.339 C 
BRANCH  27  28
HETATM   28  N4  UNL     1     -17.992 -36.827   3.476  1.00  0.00    -0.063 N 
HETATM   29  C16 UNL     1     -17.578 -36.356   4.767  1.00  0.00     0.273 C 
HETATM   30  C17 UNL     1     -18.747 -35.780   2.806  1.00  0.00     0.237 C 
HETATM   31  C18 UNL     1     -20.058 -35.793   3.543  1.00  0.00     0.029 C 
HETATM   32  C19 UNL     1     -20.310 -37.241   3.804  1.00  0.00     0.029 C 
HETATM   33  C20 UNL     1     -18.964 -37.902   3.543  1.00  0.00     0.237 C 
ENDBRANCH  27  28
ENDBRANCH  24  27
ENDBRANCH   7  23
TORSDOF 7
ENDMDL
MODEL 4
REMARK VINA RESULT: -7.937618116      1.383      2.157
REMARK  7 active torsions:
REMARK  status: ('A' for Active; 'I' for Inactive)
REMARK    1  A    between atoms: C2_2  and  N1_4 
REMARK    2  A    between atoms: N1_4  and  C4_6 
REMARK    3  A    between atoms: C4_6  and  C6_8 
REMARK       I    between atoms: C6_8  and  N2_10 
REMARK    4  A    between atoms: N2_10  and  C7_12 
REMARK    5  A    between atoms: C13_18  and  N3_19 
REMARK       I    between atoms: N3_19  and  C14_21 
REMARK    6  A    between atoms: C14_21  and  C15_23 
REMARK    7  A    between atoms: C15_23  and  N4_24 
ROOT
HETATM    1  C7  UNL     1     -18.692 -35.730  -0.913  1.00  0.00     0.116 C 
HETATM    2  C8  UNL     1     -19.001 -35.909  -2.360  1.00  0.00     0.012 C 
HETATM    3  C9  UNL     1     -18.711 -34.726  -3.231  1.00  0.00     0.011 C 
HETATM    4  C10 UNL     1     -17.284 -34.501  -3.550  1.00  0.00    -0.014 C 
HETATM    5  C11 UNL     1     -16.527 -33.713  -2.503  1.00  0.00     0.007 C 
HETATM    6  C12 UNL     1     -17.096 -33.893  -1.130  1.00  0.00     0.033 C 
HETATM    7  C13 UNL     1     -17.247 -35.327  -0.700  1.00  0.00     0.054 C 
HETATM    8  C21 UNL     1     -16.329 -36.280  -1.404  1.00  0.00     0.038 C 
HETATM    9  C22 UNL     1     -16.775 -36.756  -2.737  1.00  0.00    -0.011 C 
HETATM   10  C23 UNL     1     -16.479 -35.734  -3.841  1.00  0.00     0.009 C 
HETATM   11  C24 UNL     1     -18.219 -37.097  -2.875  1.00  0.00     0.011 C 
ENDROOT
BRANCH   1  12
HETATM   12  N2  UNL     1     -18.889 -37.002  -0.255  1.00  0.00    -0.352 N 
HETATM   13  C6  UNL     1     -19.808 -37.197   0.803  1.00  0.00     0.240 C 
HETATM   14  O1  UNL     1     -20.491 -36.226   1.195  1.00  0.00    -0.271 OA
ATOM     15  H2  UNL     1     -18.337 -37.800  -0.568  1.00  0.00     0.163 HD
BRANCH  13  16
HETATM   16  C4  UNL     1     -19.995 -38.511   1.468  1.00  0.00     0.165 C 
HETATM   17  C5  UNL     1     -21.249 -38.405   2.304  1.00  0.00     0.042 C 
BRANCH  16  18
HETATM   18  N1  UNL     1     -20.056 -39.553   0.515  1.00  0.00    -0.406 N 
ATOM     19  H1  UNL     1     -19.247 -40.157   0.365  1.00  0.00     0.154 HD
BRANCH  18  20
HETATM   20  C2  UNL     1     -21.231 -39.758  -0.225  1.00  0.00     0.069 C 
HETATM   21  C1  UNL     1     -21.077 -39.511  -1.714  1.00  0.00     0.031 C 
HETATM   22  C3  UNL     1     -21.978 -41.032  -0.047  1.00  0.00     0.031 C 
ENDBRANCH  18  20
ENDBRANCH  16  18
ENDBRANCH  13  16
ENDBRANCH   1  12
BRANCH   7  23
HETATM   23  N3  UNL     1     -16.973 -35.391   0.712  1.00  0.00    -0.348 N 
HETATM   24  C14 UNL     1     -15.701 -35.658   1.287  1.00  0.00     0.244 C 
HETATM   25  O2  UNL     1     -14.740 -35.853   0.502  1.00  0.00    -0.272 OA
ATOM     26  H3  UNL     1     -17.752 -35.232   1.350  1.00  0.00     0.163 HD
BRANCH  24  27
HETATM   27  C15 UNL     1     -15.554 -35.697   2.765  1.00  0.00     0.339 C 
BRANCH  27  28
HETATM   28  N4  UNL     1     -16.446 -36.659   3.357  1.00  0.00    -0.063 N 
HETATM   29  C16 UNL     1     -16.509 -37.890   2.621  1.00  0.00     0.273 C 
HETATM   30  C17 UNL     1     -16.058 -36.943   4.729  1.00  0.00     0.237 C 
HETATM   31  C18 UNL     1     -17.306 -37.552   5.307  1.00  0.00     0.029 C 
HETATM   32  C19 UNL     1     -18.412 -36.763   4.690  1.00  0.00     0.029 C 
HETATM   33  C20 UNL     1     -17.742 -36.032   3.534  1.00  0.00     0.237 C 
ENDBRANCH  27  28
ENDBRANCH  24  27
ENDBRANCH   7  23
TORSDOF 7
ENDMDL
MODEL 5
REMARK VINA RESULT: -7.864384350      1.535      5.479
REMARK  7 active torsions:
REMARK  status: ('A' for Active; 'I' for Inactive)
REMARK    1  A    between atoms: C2_2  and  N1_4 
REMARK    2  A    between atoms: N1_4  and  C4_6 
REMARK    3  A    between atoms: C4_6  and  C6_8 
REMARK       I    between atoms: C6_8  and  N2_10 
REMARK    4  A    between atoms: N2_10  and  C7_12 
REMARK    5  A    between atoms: C13_18  and  N3_19 
REMARK       I    between atoms: N3_19  and  C14_21 
REMARK    6  A    between atoms: C14_21  and  C15_23 
REMARK    7  A    between atoms: C15_23  and  N4_24 
ROOT
HETATM    1  C7  UNL     1     -17.562 -37.576   1.503  1.00  0.00     0.116 C 
HETATM    2  C8  UNL     1     -17.505 -38.456   2.703  1.00  0.00     0.012 C 
HETATM    3  C9  UNL     1     -16.221 -38.412   3.473  1.00  0.00     0.011 C 
HETATM    4  C10 UNL     1     -16.027 -37.217   4.323  1.00  0.00    -0.014 C 
HETATM    5  C11 UNL     1     -15.446 -36.022   3.598  1.00  0.00     0.007 C 
HETATM    6  C12 UNL     1     -15.801 -36.009   2.143  1.00  0.00     0.033 C 
HETATM    7  C13 UNL     1     -17.273 -36.132   1.858  1.00  0.00     0.054 C 
HETATM    8  C21 UNL     1     -18.157 -35.683   2.983  1.00  0.00     0.038 C 
HETATM    9  C22 UNL     1     -18.402 -36.676   4.060  1.00  0.00    -0.011 C 
HETATM   10  C23 UNL     1     -17.242 -36.737   5.061  1.00  0.00     0.009 C 
HETATM   11  C24 UNL     1     -18.641 -38.082   3.629  1.00  0.00     0.011 C 
ENDROOT
BRANCH   1  12
HETATM   12  N2  UNL     1     -18.907 -37.631   0.973  1.00  0.00    -0.352 N 
HETATM   13  C6  UNL     1     -19.260 -38.370  -0.180  1.00  0.00     0.240 C 
HETATM   14  O1  UNL     1     -18.370 -39.012  -0.780  1.00  0.00    -0.271 OA
ATOM     15  H2  UNL     1     -19.638 -37.110   1.456  1.00  0.00     0.163 HD
BRANCH  13  16
HETATM   16  C4  UNL     1     -20.646 -38.412  -0.709  1.00  0.00     0.165 C 
HETATM   17  C5  UNL     1     -20.636 -39.357  -1.889  1.00  0.00     0.042 C 
BRANCH  16  18
HETATM   18  N1  UNL     1     -21.558 -38.801   0.298  1.00  0.00    -0.406 N 
ATOM     19  H1  UNL     1     -22.101 -38.095   0.796  1.00  0.00     0.154 HD
BRANCH  18  20
HETATM   20  C2  UNL     1     -21.716 -40.159   0.614  1.00  0.00     0.069 C 
HETATM   21  C1  UNL     1     -20.849 -40.634   1.766  1.00  0.00     0.031 C 
HETATM   22  C3  UNL     1     -23.088 -40.693   0.825  1.00  0.00     0.031 C 
ENDBRANCH  18  20
ENDBRANCH  16  18
ENDBRANCH  13  16
ENDBRANCH   1  12
BRANCH   7  23
HETATM   23  N3  UNL     1     -17.563 -35.324   0.703  1.00  0.00    -0.348 N 
HETATM   24  C14 UNL     1     -16.684 -35.121  -0.396  1.00  0.00     0.244 C 
HETATM   25  O2  UNL     1     -15.567 -35.693  -0.355  1.00  0.00    -0.272 OA
ATOM     26  H3  UNL     1     -18.471 -34.861   0.669  1.00  0.00     0.163 HD
BRANCH  24  27
HETATM   27  C15 UNL     1     -17.108 -34.259  -1.529  1.00  0.00     0.339 C 
BRANCH  27  28
HETATM   28  N4  UNL     1     -17.414 -35.041  -2.698  1.00  0.00    -0.063 N 
HETATM   29  C16 UNL     1     -16.903 -34.462  -3.908  1.00  0.00     0.273 C 
HETATM   30  C17 UNL     1     -16.898 -36.394  -2.561  1.00  0.00     0.237 C 
HETATM   31  C18 UNL     1     -17.685 -37.155  -3.591  1.00  0.00     0.029 C 
HETATM   32  C19 UNL     1     -19.051 -36.560  -3.514  1.00  0.00     0.029 C 
HETATM   33  C20 UNL     1     -18.847 -35.269  -2.734  1.00  0.00     0.237 C 
ENDBRANCH  27  28
ENDBRANCH  24  27
ENDBRANCH   7  23
TORSDOF 7
ENDMDL
