MODEL 1
REMARK VINA RESULT: -8.925574631      0.000      0.000
REMARK  6 active torsions:
REMARK  status: ('A' for Active; 'I' for Inactive)
REMARK    1  A    between atoms: C2_2  and  C4_4 
REMARK    2  A    between atoms: C4_4  and  N1_5 
REMARK    3  A    between atoms: C4_4  and  C18_25 
REMARK       I    between atoms: N1_5  and  C5_7 
REMARK    4  A    between atoms: C5_7  and  C6_9 
REMARK       I    between atoms: N2_15  and  C12_16 
REMARK       I    between atoms: C12_16  and  N3_18 
REMARK    5  A    between atoms: N3_18  and  C13_20 
REMARK       I    between atoms: C18_25  and  N4_27 
REMARK    6  A    between atoms: N4_27  and  C19_29 
ROOT
HETATM    1  N1  UNL     1     -17.886 -35.913   0.159  1.00  0.00    -0.347 N 
ATOM      2  H1  UNL     1     -16.870 -35.879   0.256  1.00  0.00     0.163 HD
HETATM    3  C5  UNL     1     -18.684 -35.826   1.312  1.00  0.00     0.224 C 
HETATM    4  O1  UNL     1     -19.959 -35.864   1.195  1.00  0.00    -0.273 OA
ENDROOT
BRANCH   3   5
HETATM    5  C6  UNL     1     -18.074 -35.695   2.626  1.00  0.00     0.103 C 
HETATM    6  C7  UNL     1     -18.937 -36.155   3.785  1.00  0.00     0.041 C 
HETATM    7  C8  UNL     1     -17.997 -36.894   4.717  1.00  0.00     0.090 C 
HETATM    8  C9  UNL     1     -17.906 -38.306   4.165  1.00  0.00     0.027 C 
HETATM    9  N2  UNL     1     -16.714 -36.398   4.269  1.00  0.00    -0.324 N 
HETATM   10  C10 UNL     1     -17.286 -38.016   2.787  1.00  0.00     0.028 C 
HETATM   11  C11 UNL     1     -16.856 -36.576   2.835  1.00  0.00     0.102 C 
HETATM   12  C12 UNL     1     -15.661 -35.898   5.026  1.00  0.00     0.319 C 
HETATM   13  O2  UNL     1     -15.797 -35.842   6.293  1.00  0.00    -0.247 OA
HETATM   14  N3  UNL     1     -14.430 -35.442   4.448  1.00  0.00    -0.338 N 
ATOM     15  H3  UNL     1     -14.337 -35.493   3.434  1.00  0.00     0.164 HD
BRANCH  14  16
HETATM   16  C13 UNL     1     -13.326 -34.922   5.189  1.00  0.00     0.086 C 
HETATM   17  C14 UNL     1     -13.551 -33.491   5.573  1.00  0.00     0.025 C 
HETATM   18  C15 UNL     1     -12.579 -32.618   4.863  1.00  0.00     0.002 C 
HETATM   19  C16 UNL     1     -11.860 -33.526   3.914  1.00  0.00     0.002 C 
HETATM   20  C17 UNL     1     -12.033 -34.942   4.400  1.00  0.00     0.025 C 
ENDBRANCH  14  16
ENDBRANCH   3   5
BRANCH   1  21
HETATM   21  C4  UNL     1     -18.475 -36.054  -1.189  1.00  0.00     0.180 C 
BRANCH  21  22
HETATM   22  C2  UNL     1     -19.187 -37.390  -1.145  1.00  0.00     0.009 C 
HETATM   23  C1  UNL     1     -19.795 -37.709  -2.504  1.00  0.00     0.012 C 
HETATM   24  C3  UNL     1     -18.320 -38.549  -0.783  1.00  0.00     0.012 C 
ENDBRANCH  21  22
BRANCH  21  25
HETATM   25  C18 UNL     1     -17.339 -36.181  -2.144  1.00  0.00     0.241 C 
HETATM   26  O3  UNL     1     -16.167 -36.263  -1.661  1.00  0.00    -0.271 OA
HETATM   27  N4  UNL     1     -17.471 -36.216  -3.551  1.00  0.00    -0.355 N 
ATOM     28  H4  UNL     1     -18.394 -36.151  -3.981  1.00  0.00     0.162 HD
BRANCH  27  29
HETATM   29  C19 UNL     1     -16.303 -36.341  -4.373  1.00  0.00     0.084 C 
HETATM   30  C20 UNL     1     -16.450 -37.385  -5.470  1.00  0.00     0.025 C 
HETATM   31  C21 UNL     1     -15.249 -37.055  -6.348  1.00  0.00     0.002 C 
HETATM   32  C22 UNL     1     -15.080 -35.564  -6.229  1.00  0.00     0.002 C 
HETATM   33  C23 UNL     1     -16.030 -35.086  -5.178  1.00  0.00     0.025 C 
ENDBRANCH  27  29
ENDBRANCH  21  25
ENDBRANCH   1  21
TORSDOF 6
ENDMDL
MODEL 2
REMARK VINA RESULT: -8.834094091      2.076      7.758
REMARK  6 active torsions:
REMARK  status: ('A' for Active; 'I' for Inactive)
REMARK    1  A    between atoms: C2_2  and  C4_4 
REMARK    2  A    between atoms: C4_4  and  N1_5 
REMARK    3  A    between atoms: C4_4  and  C18_25 
REMARK       I    between atoms: N1_5  and  C5_7 
REMARK    4  A    between atoms: C5_7  and  C6_9 
REMARK       I    between atoms: N2_15  and  C12_16 
REMARK       I    between atoms: C12_16  and  N3_18 
REMARK    5  A    between atoms: N3_18  and  C13_20 
REMARK       I    between atoms: C18_25  and  N4_27 
REMARK    6  A    between atoms: N4_27  and  C19_29 
ROOT
HETATM    1  N1  UNL     1     -17.408 -37.118   3.664  1.00  0.00    -0.347 N 
ATOM      2  H1  UNL     1     -17.349 -36.326   3.023  1.00  0.00     0.163 HD
HETATM    3  C5  UNL     1     -17.929 -38.337   3.197  1.00  0.00     0.224 C 
HETATM    4  O1  UNL     1     -18.000 -39.334   3.997  1.00  0.00    -0.273 OA
ENDROOT
BRANCH   3   5
HETATM    5  C6  UNL     1     -18.385 -38.467   1.822  1.00  0.00     0.103 C 
HETATM    6  C7  UNL     1     -19.369 -39.595   1.575  1.00  0.00     0.041 C 
HETATM    7  C8  UNL     1     -20.404 -39.024   0.626  1.00  0.00     0.090 C 
HETATM    8  C9  UNL     1     -21.399 -38.289   1.507  1.00  0.00     0.027 C 
HETATM    9  N2  UNL     1     -19.693 -37.882   0.093  1.00  0.00    -0.324 N 
HETATM   10  C10 UNL     1     -20.478 -37.215   2.113  1.00  0.00     0.028 C 
HETATM   11  C11 UNL     1     -19.200 -37.289   1.324  1.00  0.00     0.102 C 
HETATM   12  C12 UNL     1     -19.543 -37.490  -1.232  1.00  0.00     0.319 C 
HETATM   13  O2  UNL     1     -20.082 -38.204  -2.141  1.00  0.00    -0.247 OA
HETATM   14  N3  UNL     1     -18.811 -36.320  -1.623  1.00  0.00    -0.338 N 
ATOM     15  H3  UNL     1     -18.387 -35.760  -0.885  1.00  0.00     0.164 HD
BRANCH  14  16
HETATM   16  C13 UNL     1     -18.634 -35.884  -2.971  1.00  0.00     0.086 C 
HETATM   17  C14 UNL     1     -17.519 -36.626  -3.644  1.00  0.00     0.025 C 
HETATM   18  C15 UNL     1     -16.397 -35.695  -3.937  1.00  0.00     0.002 C 
HETATM   19  C16 UNL     1     -16.781 -34.404  -3.287  1.00  0.00     0.002 C 
HETATM   20  C17 UNL     1     -18.272 -34.416  -3.066  1.00  0.00     0.025 C 
ENDBRANCH  14  16
ENDBRANCH   3   5
BRANCH   1  21
HETATM   21  C4  UNL     1     -16.944 -36.950   5.057  1.00  0.00     0.180 C 
BRANCH  21  22
HETATM   22  C2  UNL     1     -17.684 -35.724   5.550  1.00  0.00     0.009 C 
HETATM   23  C1  UNL     1     -19.187 -35.924   5.409  1.00  0.00     0.012 C 
HETATM   24  C3  UNL     1     -17.432 -35.375   6.979  1.00  0.00     0.012 C 
ENDBRANCH  21  22
BRANCH  21  25
HETATM   25  C18 UNL     1     -15.497 -36.606   4.989  1.00  0.00     0.241 C 
HETATM   26  O3  UNL     1     -14.681 -37.355   5.611  1.00  0.00    -0.271 OA
HETATM   27  N4  UNL     1     -14.965 -35.501   4.284  1.00  0.00    -0.355 N 
ATOM     28  H4  UNL     1     -15.586 -34.873   3.774  1.00  0.00     0.162 HD
BRANCH  27  29
HETATM   29  C19 UNL     1     -13.551 -35.267   4.290  1.00  0.00     0.084 C 
HETATM   30  C20 UNL     1     -13.022 -34.751   2.961  1.00  0.00     0.025 C 
HETATM   31  C21 UNL     1     -11.629 -34.284   3.363  1.00  0.00     0.002 C 
HETATM   32  C22 UNL     1     -11.777 -33.798   4.780  1.00  0.00     0.002 C 
HETATM   33  C23 UNL     1     -13.158 -34.147   5.234  1.00  0.00     0.025 C 
ENDBRANCH  27  29
ENDBRANCH  21  25
ENDBRANCH   1  21
TORSDOF 6
ENDMDL
MODEL 3
REMARK VINA RESULT: -8.764378573      2.297      8.245
REMARK  6 active torsions:
REMARK  status: ('A' for Active; 'I' for Inactive)
REMARK    1  A    between atoms: C2_2  and  C4_4 
REMARK    2  A    between atoms: C4_4  and  N1_5 
REMARK    3  A    between atoms: C4_4  and  C18_25 
REMARK       I    between atoms: N1_5  and  C5_7 
REMARK    4  A    between atoms: C5_7  and  C6_9 
REMARK       I    between atoms: N2_15  and  C12_16 
REMARK       I    between atoms: C12_16  and  N3_18 
REMARK    5  A    between atoms: N3_18  and  C13_20 
REMARK       I    between atoms: C18_25  and  N4_27 
REMARK    6  A    between atoms: N4_27  and  C19_29 
ROOT
HETATM    1  N1  UNL     1     -16.184 -37.748   5.104  1.00  0.00    -0.347 N 
ATOM      2  H1  UNL     1     -17.027 -37.994   5.625  1.00  0.00     0.163 HD
HETATM    3  C5  UNL     1     -16.238 -37.700   3.701  1.00  0.00     0.224 C 
HETATM    4  O1  UNL     1     -15.185 -37.387   3.044  1.00  0.00    -0.273 OA
ENDROOT
BRANCH   3   5
HETATM    5  C6  UNL     1     -17.476 -38.004   2.998  1.00  0.00     0.103 C 
HETATM    6  C7  UNL     1     -18.625 -38.450   3.882  1.00  0.00     0.041 C 
HETATM    7  C8  UNL     1     -19.853 -37.759   3.323  1.00  0.00     0.090 C 
HETATM    8  C9  UNL     1     -19.855 -36.372   3.942  1.00  0.00     0.027 C 
HETATM    9  N2  UNL     1     -19.395 -37.408   1.996  1.00  0.00    -0.324 N 
HETATM   10  C10 UNL     1     -18.537 -35.821   3.369  1.00  0.00     0.028 C 
HETATM   11  C11 UNL     1     -18.112 -36.807   2.317  1.00  0.00     0.102 C 
HETATM   12  C12 UNL     1     -20.030 -37.605   0.775  1.00  0.00     0.319 C 
HETATM   13  O2  UNL     1     -21.171 -38.174   0.769  1.00  0.00    -0.247 OA
HETATM   14  N3  UNL     1     -19.460 -37.199  -0.477  1.00  0.00    -0.338 N 
ATOM     15  H3  UNL     1     -18.547 -36.746  -0.455  1.00  0.00     0.164 HD
BRANCH  14  16
HETATM   16  C13 UNL     1     -20.078 -37.383  -1.751  1.00  0.00     0.086 C 
HETATM   17  C14 UNL     1     -19.931 -38.795  -2.231  1.00  0.00     0.025 C 
HETATM   18  C15 UNL     1     -19.058 -38.831  -3.435  1.00  0.00     0.002 C 
HETATM   19  C16 UNL     1     -18.545 -37.434  -3.586  1.00  0.00     0.002 C 
HETATM   20  C17 UNL     1     -19.465 -36.512  -2.828  1.00  0.00     0.025 C 
ENDBRANCH  14  16
ENDBRANCH   3   5
BRANCH   1  21
HETATM   21  C4  UNL     1     -14.941 -37.453   5.847  1.00  0.00     0.180 C 
BRANCH  21  22
HETATM   22  C2  UNL     1     -15.370 -37.446   7.300  1.00  0.00     0.009 C 
HETATM   23  C1  UNL     1     -16.871 -37.678   7.407  1.00  0.00     0.012 C 
HETATM   24  C3  UNL     1     -14.716 -38.485   8.148  1.00  0.00     0.012 C 
ENDBRANCH  21  22
BRANCH  21  25
HETATM   25  C18 UNL     1     -14.546 -36.062   5.488  1.00  0.00     0.241 C 
HETATM   26  O3  UNL     1     -15.330 -35.121   5.821  1.00  0.00    -0.271 OA
HETATM   27  N4  UNL     1     -13.360 -35.716   4.800  1.00  0.00    -0.355 N 
ATOM     28  H4  UNL     1     -12.704 -36.442   4.513  1.00  0.00     0.162 HD
BRANCH  27  29
HETATM   29  C19 UNL     1     -13.083 -34.340   4.509  1.00  0.00     0.084 C 
HETATM   30  C20 UNL     1     -12.094 -33.708   5.476  1.00  0.00     0.025 C 
HETATM   31  C21 UNL     1     -11.747 -32.421   4.738  1.00  0.00     0.002 C 
HETATM   32  C22 UNL     1     -11.820 -32.780   3.278  1.00  0.00     0.002 C 
HETATM   33  C23 UNL     1     -12.370 -34.167   3.182  1.00  0.00     0.025 C 
ENDBRANCH  27  29
ENDBRANCH  21  25
ENDBRANCH   1  21
TORSDOF 6
ENDMDL
MODEL 4
REMARK VINA RESULT: -8.746089756      2.056      3.064
REMARK  6 active torsions:
REMARK  status: ('A' for Active; 'I' for Inactive)
REMARK    1  A    between atoms: C2_2  and  C4_4 
REMARK    2  A    between atoms: C4_4  and  N1_5 
REMARK    3  A    between atoms: C4_4  and  C18_25 
REMARK       I    between atoms: N1_5  and  C5_7 
REMARK    4  A    between atoms: C5_7  and  C6_9 
REMARK       I    between atoms: N2_15  and  C12_16 
REMARK       I    between atoms: C12_16  and  N3_18 
REMARK    5  A    between atoms: N3_18  and  C13_20 
REMARK       I    between atoms: C18_25  and  N4_27 
REMARK    6  A    between atoms: N4_27  and  C19_29 
ROOT
HETATM    1  N1  UNL     1     -18.145 -36.878   0.364  1.00  0.00    -0.347 N 
ATOM      2  H1  UNL     1     -17.445 -37.621   0.386  1.00  0.00     0.163 HD
HETATM    3  C5  UNL     1     -18.559 -36.293   1.572  1.00  0.00     0.224 C 
HETATM    4  O1  UNL     1     -19.433 -35.358   1.547  1.00  0.00    -0.273 OA
ENDROOT
BRANCH   3   5
HETATM    5  C6  UNL     1     -18.006 -36.744   2.840  1.00  0.00     0.103 C 
HETATM    6  C7  UNL     1     -17.168 -38.006   2.763  1.00  0.00     0.041 C 
HETATM    7  C8  UNL     1     -15.984 -37.758   3.677  1.00  0.00     0.090 C 
HETATM    8  C9  UNL     1     -14.980 -36.986   2.839  1.00  0.00     0.027 C 
HETATM    9  N2  UNL     1     -16.482 -36.667   4.487  1.00  0.00    -0.324 N 
HETATM   10  C10 UNL     1     -15.795 -35.714   2.548  1.00  0.00     0.028 C 
HETATM   11  C11 UNL     1     -16.996 -35.790   3.450  1.00  0.00     0.102 C 
HETATM   12  C12 UNL     1     -16.459 -36.529   5.870  1.00  0.00     0.319 C 
HETATM   13  O2  UNL     1     -15.945 -37.466   6.566  1.00  0.00    -0.247 OA
HETATM   14  N3  UNL     1     -16.987 -35.381   6.549  1.00  0.00    -0.338 N 
ATOM     15  H3  UNL     1     -17.394 -34.640   5.979  1.00  0.00     0.164 HD
BRANCH  14  16
HETATM   16  C13 UNL     1     -16.983 -35.200   7.965  1.00  0.00     0.086 C 
HETATM   17  C14 UNL     1     -18.337 -35.460   8.553  1.00  0.00     0.025 C 
HETATM   18  C15 UNL     1     -18.901 -34.197   9.100  1.00  0.00     0.002 C 
HETATM   19  C16 UNL     1     -17.936 -33.130   8.692  1.00  0.00     0.002 C 
HETATM   20  C17 UNL     1     -16.618 -33.787   8.373  1.00  0.00     0.025 C 
ENDBRANCH  14  16
ENDBRANCH   3   5
BRANCH   1  21
HETATM   21  C4  UNL     1     -18.693 -36.448  -0.940  1.00  0.00     0.180 C 
BRANCH  21  22
HETATM   22  C2  UNL     1     -19.577 -37.601  -1.369  1.00  0.00     0.009 C 
HETATM   23  C1  UNL     1     -18.879 -38.927  -1.100  1.00  0.00     0.012 C 
HETATM   24  C3  UNL     1     -20.898 -37.666  -0.679  1.00  0.00     0.012 C 
ENDBRANCH  21  22
BRANCH  21  25
HETATM   25  C18 UNL     1     -17.547 -36.381  -1.888  1.00  0.00     0.241 C 
HETATM   26  O3  UNL     1     -16.378 -36.316  -1.398  1.00  0.00    -0.271 OA
HETATM   27  N4  UNL     1     -17.668 -36.382  -3.297  1.00  0.00    -0.355 N 
ATOM     28  H4  UNL     1     -18.589 -36.431  -3.732  1.00  0.00     0.162 HD
BRANCH  27  29
HETATM   29  C19 UNL     1     -16.490 -36.314  -4.112  1.00  0.00     0.084 C 
HETATM   30  C20 UNL     1     -16.526 -37.264  -5.300  1.00  0.00     0.025 C 
HETATM   31  C21 UNL     1     -15.363 -36.736  -6.130  1.00  0.00     0.002 C 
HETATM   32  C22 UNL     1     -15.348 -35.253  -5.876  1.00  0.00     0.002 C 
HETATM   33  C23 UNL     1     -16.344 -34.970  -4.798  1.00  0.00     0.025 C 
ENDBRANCH  27  29
ENDBRANCH  21  25
ENDBRANCH   1  21
TORSDOF 6
ENDMDL
MODEL 5
REMARK VINA RESULT: -8.675162044      1.164      1.535
REMARK  6 active torsions:
REMARK  status: ('A' for Active; 'I' for Inactive)
REMARK    1  A    between atoms: C2_2  and  C4_4 
REMARK    2  A    between atoms: C4_4  and  N1_5 
REMARK    3  A    between atoms: C4_4  and  C18_25 
REMARK       I    between atoms: N1_5  and  C5_7 
REMARK    4  A    between atoms: C5_7  and  C6_9 
REMARK       I    between atoms: N2_15  and  C12_16 
REMARK       I    between atoms: C12_16  and  N3_18 
REMARK    5  A    between atoms: N3_18  and  C13_20 
REMARK       I    between atoms: C18_25  and  N4_27 
REMARK    6  A    between atoms: N4_27  and  C19_29 
ROOT
HETATM    1  N1  UNL     1     -18.236 -36.557   0.888  1.00  0.00    -0.347 N 
ATOM      2  H1  UNL     1     -17.407 -37.138   1.010  1.00  0.00     0.163 HD
HETATM    3  C5  UNL     1     -18.760 -35.874   1.999  1.00  0.00     0.224 C 
HETATM    4  O1  UNL     1     -19.798 -35.139   1.850  1.00  0.00    -0.273 OA
ENDROOT
BRANCH   3   5
HETATM    5  C6  UNL     1     -18.134 -35.999   3.306  1.00  0.00     0.103 C 
HETATM    6  C7  UNL     1     -18.428 -37.294   4.038  1.00  0.00     0.041 C 
HETATM    7  C8  UNL     1     -17.113 -37.705   4.672  1.00  0.00     0.090 C 
HETATM    8  C9  UNL     1     -16.351 -38.440   3.583  1.00  0.00     0.027 C 
HETATM    9  N2  UNL     1     -16.388 -36.453   4.643  1.00  0.00    -0.324 N 
HETATM   10  C10 UNL     1     -16.198 -37.308   2.552  1.00  0.00     0.028 C 
HETATM   11  C11 UNL     1     -16.619 -36.054   3.266  1.00  0.00     0.102 C 
HETATM   12  C12 UNL     1     -15.678 -35.833   5.666  1.00  0.00     0.319 C 
HETATM   13  O2  UNL     1     -15.636 -36.403   6.806  1.00  0.00    -0.247 OA
HETATM   14  N3  UNL     1     -14.994 -34.585   5.497  1.00  0.00    -0.338 N 
ATOM     15  H3  UNL     1     -15.038 -34.142   4.579  1.00  0.00     0.164 HD
BRANCH  14  16
HETATM   16  C13 UNL     1     -14.256 -33.916   6.519  1.00  0.00     0.086 C 
HETATM   17  C14 UNL     1     -15.031 -32.767   7.090  1.00  0.00     0.025 C 
HETATM   18  C15 UNL     1     -14.360 -31.485   6.747  1.00  0.00     0.002 C 
HETATM   19  C16 UNL     1     -13.249 -31.862   5.819  1.00  0.00     0.002 C 
HETATM   20  C17 UNL     1     -12.955 -33.328   6.012  1.00  0.00     0.025 C 
ENDBRANCH  14  16
ENDBRANCH   3   5
BRANCH   1  21
HETATM   21  C4  UNL     1     -18.853 -36.456  -0.451  1.00  0.00     0.180 C 
BRANCH  21  22
HETATM   22  C2  UNL     1     -19.544 -37.791  -0.642  1.00  0.00     0.009 C 
HETATM   23  C1  UNL     1     -18.861 -38.862   0.196  1.00  0.00     0.012 C 
HETATM   24  C3  UNL     1     -20.987 -37.806  -0.263  1.00  0.00     0.012 C 
ENDBRANCH  21  22
BRANCH  21  25
HETATM   25  C18 UNL     1     -17.737 -36.382  -1.435  1.00  0.00     0.241 C 
HETATM   26  O3  UNL     1     -16.553 -36.317  -0.981  1.00  0.00    -0.271 OA
HETATM   27  N4  UNL     1     -17.902 -36.376  -2.839  1.00  0.00    -0.355 N 
ATOM     28  H4  UNL     1     -18.836 -36.425  -3.245  1.00  0.00     0.162 HD
BRANCH  27  29
HETATM   29  C19 UNL     1     -16.750 -36.302  -3.690  1.00  0.00     0.084 C 
HETATM   30  C20 UNL     1     -16.873 -37.155  -4.943  1.00  0.00     0.025 C 
HETATM   31  C21 UNL     1     -15.714 -36.620  -5.774  1.00  0.00     0.002 C 
HETATM   32  C22 UNL     1     -15.616 -35.163  -5.411  1.00  0.00     0.002 C 
HETATM   33  C23 UNL     1     -16.560 -34.917  -4.278  1.00  0.00     0.025 C 
ENDBRANCH  27  29
ENDBRANCH  21  25
ENDBRANCH   1  21
TORSDOF 6
ENDMDL
