MODEL 1
REMARK VINA RESULT: -9.012127014      0.000      0.000
REMARK  8 active torsions:
REMARK  status: ('A' for Active; 'I' for Inactive)
REMARK    1  A    between atoms: C2_2  and  C3_3 
REMARK    2  A    between atoms: C3_3  and  O1_4 
REMARK    3  A    between atoms: C3_3  and  C4_6 
REMARK    4  A    between atoms: C3_3  and  C24_30 
REMARK    5  A    between atoms: C5_7  and  C6_8 
REMARK    6  A    between atoms: C6_8  and  N1_9 
REMARK    7  A    between atoms: N1_9  and  C7_10 
REMARK    8  A    between atoms: C11_14  and  O2_15 
ROOT
HETATM    1  N1  UNL     1     -19.013 -36.917   1.453  1.00  0.00    -0.035 N 
HETATM    2  C9  UNL     1     -17.598 -37.047   1.554  1.00  0.00     0.243 C 
HETATM    3  C10 UNL     1     -16.936 -36.945   2.875  1.00  0.00     0.066 C 
HETATM    4  C11 UNL     1     -16.869 -38.194   3.677  1.00  0.00     0.064 C 
HETATM    5  C12 UNL     1     -17.416 -37.904   5.050  1.00  0.00     0.066 C 
HETATM    6  C13 UNL     1     -18.684 -37.222   5.147  1.00  0.00     0.001 C 
HETATM    7  C14 UNL     1     -19.864 -37.518   4.357  1.00  0.00     0.201 C 
HETATM    8  N2  UNL     1     -19.934 -38.447   3.261  1.00  0.00    -0.018 N 
HETATM    9  C15 UNL     1     -21.328 -38.968   3.361  1.00  0.00     0.245 C 
HETATM   10  C16 UNL     1     -21.734 -40.304   3.164  1.00  0.00     0.028 C 
HETATM   11  C17 UNL     1     -22.759 -40.419   2.004  1.00  0.00     0.002 C 
HETATM   12  C18 UNL     1     -21.881 -40.759   0.790  1.00  0.00     0.000 C 
HETATM   13  C19 UNL     1     -21.254 -39.471   0.392  1.00  0.00     0.004 C 
HETATM   14  C20 UNL     1     -19.918 -39.159   1.001  1.00  0.00     0.064 C 
HETATM   15  C21 UNL     1     -19.851 -37.949   1.925  1.00  0.00     0.397 C 
HETATM   16  C22 UNL     1     -19.027 -39.498   3.620  1.00  0.00     0.248 C 
HETATM   17  C23 UNL     1     -17.609 -39.374   3.166  1.00  0.00     0.066 C 
ENDROOT
BRANCH   1  18
HETATM   18  C6  UNL     1     -19.222 -36.779   0.007  1.00  0.00     0.267 C 
BRANCH  18  19
HETATM   19  C5  UNL     1     -18.053 -36.341  -0.800  1.00  0.00     0.000 C 
HETATM   20  C4  UNL     1     -18.103 -36.175  -2.127  1.00  0.00     0.018 C 
BRANCH  20  21
HETATM   21  C3  UNL     1     -16.980 -35.747  -2.961  1.00  0.00     0.153 C 
BRANCH  21  22
HETATM   22  C2  UNL     1     -17.102 -34.287  -3.353  1.00  0.00     0.047 C 
HETATM   23  C1  UNL     1     -16.127 -33.403  -2.649  1.00  0.00     0.009 C 
ENDBRANCH  21  22
BRANCH  21  24
HETATM   24  O1  UNL     1     -15.800 -35.841  -2.203  1.00  0.00    -0.376 OA
ATOM     25  H1  UNL     1     -16.031 -36.338  -1.427  1.00  0.00     0.211 HD
ENDBRANCH  21  24
BRANCH  21  26
HETATM   26  C24 UNL     1     -16.828 -36.508  -4.208  1.00  0.00     0.269 C 
HETATM   27  N3  UNL     1     -15.759 -36.240  -5.078  1.00  0.00    -0.059 NA
HETATM   28  O3  UNL     1     -17.645 -37.395  -4.499  1.00  0.00    -0.273 OA
ENDBRANCH  21  26
ENDBRANCH  20  21
ENDBRANCH  18  19
ENDBRANCH   1  18
BRANCH   1  29
HETATM   29  C7  UNL     1     -19.334 -35.568   1.889  1.00  0.00     0.236 C 
HETATM   30  C8  UNL     1     -20.795 -35.269   2.042  1.00  0.00     0.035 C 
ENDBRANCH   1  29
BRANCH   4  31
HETATM   31  O2  UNL     1     -15.523 -38.585   3.926  1.00  0.00    -0.389 OA
ATOM     32  H2  UNL     1     -15.267 -38.408   4.824  1.00  0.00     0.210 HD
ENDBRANCH   4  31
TORSDOF 8
ENDMDL
MODEL 2
REMARK VINA RESULT: -8.587338499      1.025      1.100
REMARK  8 active torsions:
REMARK  status: ('A' for Active; 'I' for Inactive)
REMARK    1  A    between atoms: C2_2  and  C3_3 
REMARK    2  A    between atoms: C3_3  and  O1_4 
REMARK    3  A    between atoms: C3_3  and  C4_6 
REMARK    4  A    between atoms: C3_3  and  C24_30 
REMARK    5  A    between atoms: C5_7  and  C6_8 
REMARK    6  A    between atoms: C6_8  and  N1_9 
REMARK    7  A    between atoms: N1_9  and  C7_10 
REMARK    8  A    between atoms: C11_14  and  O2_15 
ROOT
HETATM    1  N1  UNL     1     -18.713 -36.464   1.902  1.00  0.00    -0.035 N 
HETATM    2  C9  UNL     1     -17.307 -36.251   1.827  1.00  0.00     0.243 C 
HETATM    3  C10 UNL     1     -16.514 -36.087   3.068  1.00  0.00     0.066 C 
HETATM    4  C11 UNL     1     -16.049 -37.336   3.723  1.00  0.00     0.064 C 
HETATM    5  C12 UNL     1     -16.457 -37.291   5.171  1.00  0.00     0.066 C 
HETATM    6  C13 UNL     1     -17.824 -36.950   5.483  1.00  0.00     0.001 C 
HETATM    7  C14 UNL     1     -18.998 -37.467   4.806  1.00  0.00     0.201 C 
HETATM    8  N2  UNL     1     -18.998 -38.301   3.634  1.00  0.00    -0.018 N 
HETATM    9  C15 UNL     1     -20.204 -39.153   3.838  1.00  0.00     0.245 C 
HETATM   10  C16 UNL     1     -20.310 -40.531   3.550  1.00  0.00     0.028 C 
HETATM   11  C17 UNL     1     -21.427 -40.807   2.509  1.00  0.00     0.002 C 
HETATM   12  C18 UNL     1     -20.667 -40.832   1.174  1.00  0.00     0.000 C 
HETATM   13  C19 UNL     1     -20.418 -39.404   0.843  1.00  0.00     0.004 C 
HETATM   14  C20 UNL     1     -19.123 -38.820   1.325  1.00  0.00     0.064 C 
HETATM   15  C21 UNL     1     -19.215 -37.702   2.356  1.00  0.00     0.397 C 
HETATM   16  C22 UNL     1     -17.830 -39.122   3.776  1.00  0.00     0.248 C 
HETATM   17  C23 UNL     1     -16.555 -38.622   3.179  1.00  0.00     0.066 C 
ENDROOT
BRANCH   1  18
HETATM   18  C6  UNL     1     -19.143 -36.275   0.511  1.00  0.00     0.267 C 
BRANCH  18  19
HETATM   19  C5  UNL     1     -18.110 -35.810  -0.451  1.00  0.00     0.000 C 
HETATM   20  C4  UNL     1     -18.093 -36.179  -1.738  1.00  0.00     0.018 C 
BRANCH  20  21
HETATM   21  C3  UNL     1     -17.099 -35.748  -2.720  1.00  0.00     0.153 C 
BRANCH  21  22
HETATM   22  C2  UNL     1     -17.362 -34.332  -3.195  1.00  0.00     0.047 C 
HETATM   23  C1  UNL     1     -16.349 -33.349  -2.710  1.00  0.00     0.009 C 
ENDBRANCH  21  22
BRANCH  21  24
HETATM   24  O1  UNL     1     -15.840 -35.713  -2.095  1.00  0.00    -0.376 OA
ATOM     25  H1  UNL     1     -15.206 -35.627  -2.797  1.00  0.00     0.211 HD
ENDBRANCH  21  24
BRANCH  21  26
HETATM   26  C24 UNL     1     -17.029 -36.591  -3.921  1.00  0.00     0.269 C 
HETATM   27  N3  UNL     1     -18.099 -37.436  -4.258  1.00  0.00    -0.059 NA
HETATM   28  O3  UNL     1     -16.024 -36.559  -4.646  1.00  0.00    -0.273 OA
ENDBRANCH  21  26
ENDBRANCH  20  21
ENDBRANCH  18  19
ENDBRANCH   1  18
BRANCH   1  29
HETATM   29  C7  UNL     1     -19.278 -35.271   2.509  1.00  0.00     0.236 C 
HETATM   30  C8  UNL     1     -20.743 -35.055   2.271  1.00  0.00     0.035 C 
ENDBRANCH   1  29
BRANCH   4  31
HETATM   31  O2  UNL     1     -14.628 -37.404   3.775  1.00  0.00    -0.389 OA
ATOM     32  H2  UNL     1     -14.318 -37.605   4.650  1.00  0.00     0.210 HD
ENDBRANCH   4  31
TORSDOF 8
ENDMDL
MODEL 3
REMARK VINA RESULT: -8.389093331      1.649      2.490
REMARK  8 active torsions:
REMARK  status: ('A' for Active; 'I' for Inactive)
REMARK    1  A    between atoms: C2_2  and  C3_3 
REMARK    2  A    between atoms: C3_3  and  O1_4 
REMARK    3  A    between atoms: C3_3  and  C4_6 
REMARK    4  A    between atoms: C3_3  and  C24_30 
REMARK    5  A    between atoms: C5_7  and  C6_8 
REMARK    6  A    between atoms: C6_8  and  N1_9 
REMARK    7  A    between atoms: N1_9  and  C7_10 
REMARK    8  A    between atoms: C11_14  and  O2_15 
ROOT
HETATM    1  N1  UNL     1     -18.477 -36.831   1.856  1.00  0.00    -0.035 N 
HETATM    2  C9  UNL     1     -17.142 -36.663   1.390  1.00  0.00     0.243 C 
HETATM    3  C10 UNL     1     -16.160 -35.912   2.207  1.00  0.00     0.066 C 
HETATM    4  C11 UNL     1     -15.443 -36.686   3.252  1.00  0.00     0.064 C 
HETATM    5  C12 UNL     1     -15.583 -35.954   4.561  1.00  0.00     0.066 C 
HETATM    6  C13 UNL     1     -16.899 -35.522   4.962  1.00  0.00     0.001 C 
HETATM    7  C14 UNL     1     -18.111 -36.316   4.877  1.00  0.00     0.201 C 
HETATM    8  N2  UNL     1     -18.229 -37.611   4.262  1.00  0.00    -0.018 N 
HETATM    9  C15 UNL     1     -19.272 -38.275   5.095  1.00  0.00     0.245 C 
HETATM   10  C16 UNL     1     -19.270 -39.622   5.516  1.00  0.00     0.028 C 
HETATM   11  C17 UNL     1     -20.520 -40.380   4.993  1.00  0.00     0.002 C 
HETATM   12  C18 UNL     1     -20.019 -41.035   3.696  1.00  0.00     0.000 C 
HETATM   13  C19 UNL     1     -20.000 -39.939   2.691  1.00  0.00     0.004 C 
HETATM   14  C20 UNL     1     -18.713 -39.179   2.553  1.00  0.00     0.064 C 
HETATM   15  C21 UNL     1     -18.742 -37.704   2.933  1.00  0.00     0.397 C 
HETATM   16  C22 UNL     1     -16.968 -38.248   4.517  1.00  0.00     0.248 C 
HETATM   17  C23 UNL     1     -15.890 -38.081   3.496  1.00  0.00     0.066 C 
ENDROOT
BRANCH   1  18
HETATM   18  C6  UNL     1     -19.173 -37.341   0.668  1.00  0.00     0.267 C 
BRANCH  18  19
HETATM   19  C5  UNL     1     -18.916 -36.632  -0.613  1.00  0.00     0.000 C 
HETATM   20  C4  UNL     1     -18.370 -37.227  -1.679  1.00  0.00     0.018 C 
BRANCH  20  21
HETATM   21  C3  UNL     1     -18.099 -36.570  -2.958  1.00  0.00     0.153 C 
BRANCH  21  22
HETATM   22  C2  UNL     1     -18.539 -37.428  -4.128  1.00  0.00     0.047 C 
HETATM   23  C1  UNL     1     -19.309 -38.638  -3.717  1.00  0.00     0.009 C 
ENDBRANCH  21  22
BRANCH  21  24
HETATM   24  O1  UNL     1     -18.873 -35.399  -3.031  1.00  0.00    -0.376 OA
ATOM     25  H1  UNL     1     -19.739 -35.643  -2.727  1.00  0.00     0.211 HD
ENDBRANCH  21  24
BRANCH  21  26
HETATM   26  C24 UNL     1     -16.685 -36.242  -3.182  1.00  0.00     0.269 C 
HETATM   27  N3  UNL     1     -16.124 -36.355  -4.465  1.00  0.00    -0.059 NA
HETATM   28  O3  UNL     1     -15.977 -35.862  -2.238  1.00  0.00    -0.273 OA
ENDBRANCH  21  26
ENDBRANCH  20  21
ENDBRANCH  18  19
ENDBRANCH   1  18
BRANCH   1  29
HETATM   29  C7  UNL     1     -19.054 -35.500   1.941  1.00  0.00     0.236 C 
HETATM   30  C8  UNL     1     -20.484 -35.443   2.391  1.00  0.00     0.035 C 
ENDBRANCH   1  29
BRANCH   4  31
HETATM   31  O2  UNL     1     -14.038 -36.702   3.023  1.00  0.00    -0.389 OA
ATOM     32  H2  UNL     1     -13.700 -35.829   2.861  1.00  0.00     0.210 HD
ENDBRANCH   4  31
TORSDOF 8
ENDMDL
MODEL 4
REMARK VINA RESULT: -8.197958023      1.038      1.563
REMARK  8 active torsions:
REMARK  status: ('A' for Active; 'I' for Inactive)
REMARK    1  A    between atoms: C2_2  and  C3_3 
REMARK    2  A    between atoms: C3_3  and  O1_4 
REMARK    3  A    between atoms: C3_3  and  C4_6 
REMARK    4  A    between atoms: C3_3  and  C24_30 
REMARK    5  A    between atoms: C5_7  and  C6_8 
REMARK    6  A    between atoms: C6_8  and  N1_9 
REMARK    7  A    between atoms: N1_9  and  C7_10 
REMARK    8  A    between atoms: C11_14  and  O2_15 
ROOT
HETATM    1  N1  UNL     1     -19.101 -36.943   1.583  1.00  0.00    -0.035 N 
HETATM    2  C9  UNL     1     -17.684 -37.078   1.632  1.00  0.00     0.243 C 
HETATM    3  C10 UNL     1     -16.972 -36.965   2.927  1.00  0.00     0.066 C 
HETATM    4  C11 UNL     1     -16.878 -38.207   3.737  1.00  0.00     0.064 C 
HETATM    5  C12 UNL     1     -17.372 -37.903   5.126  1.00  0.00     0.066 C 
HETATM    6  C13 UNL     1     -18.633 -37.216   5.265  1.00  0.00     0.001 C 
HETATM    7  C14 UNL     1     -19.843 -37.516   4.523  1.00  0.00     0.201 C 
HETATM    8  N2  UNL     1     -19.958 -38.454   3.439  1.00  0.00    -0.018 N 
HETATM    9  C15 UNL     1     -21.348 -38.969   3.597  1.00  0.00     0.245 C 
HETATM   10  C16 UNL     1     -21.766 -40.306   3.427  1.00  0.00     0.028 C 
HETATM   11  C17 UNL     1     -22.834 -40.428   2.308  1.00  0.00     0.002 C 
HETATM   12  C18 UNL     1     -22.004 -40.782   1.065  1.00  0.00     0.000 C 
HETATM   13  C19 UNL     1     -21.389 -39.500   0.631  1.00  0.00     0.004 C 
HETATM   14  C20 UNL     1     -20.030 -39.187   1.187  1.00  0.00     0.064 C 
HETATM   15  C21 UNL     1     -19.923 -37.969   2.096  1.00  0.00     0.397 C 
HETATM   16  C22 UNL     1     -19.041 -39.505   3.773  1.00  0.00     0.248 C 
HETATM   17  C23 UNL     1     -17.641 -39.390   3.264  1.00  0.00     0.066 C 
ENDROOT
BRANCH   1  18
HETATM   18  C6  UNL     1     -19.364 -36.818   0.145  1.00  0.00     0.267 C 
BRANCH  18  19
HETATM   19  C5  UNL     1     -18.334 -36.118  -0.666  1.00  0.00     0.000 C 
HETATM   20  C4  UNL     1     -18.326 -36.130  -2.003  1.00  0.00     0.018 C 
BRANCH  20  21
HETATM   21  C3  UNL     1     -17.333 -35.457  -2.842  1.00  0.00     0.153 C 
BRANCH  21  22
HETATM   22  C2  UNL     1     -16.930 -36.315  -4.025  1.00  0.00     0.047 C 
HETATM   23  C1  UNL     1     -17.891 -37.422  -4.307  1.00  0.00     0.009 C 
ENDBRANCH  21  22
BRANCH  21  24
HETATM   24  O1  UNL     1     -17.920 -34.303  -3.390  1.00  0.00    -0.376 OA
ATOM     25  H1  UNL     1     -18.327 -34.582  -4.202  1.00  0.00     0.211 HD
ENDBRANCH  21  24
BRANCH  21  26
HETATM   26  C24 UNL     1     -16.094 -35.095  -2.140  1.00  0.00     0.269 C 
HETATM   27  N3  UNL     1     -15.648 -33.763  -2.129  1.00  0.00    -0.059 NA
HETATM   28  O3  UNL     1     -15.436 -35.965  -1.551  1.00  0.00    -0.273 OA
ENDBRANCH  21  26
ENDBRANCH  20  21
ENDBRANCH  18  19
ENDBRANCH   1  18
BRANCH   1  29
HETATM   29  C7  UNL     1     -19.401 -35.590   2.019  1.00  0.00     0.236 C 
HETATM   30  C8  UNL     1     -20.858 -35.244   2.096  1.00  0.00     0.035 C 
ENDBRANCH   1  29
BRANCH   4  31
HETATM   31  O2  UNL     1     -15.525 -38.601   3.938  1.00  0.00    -0.389 OA
ATOM     32  H2  UNL     1     -14.956 -37.850   4.059  1.00  0.00     0.210 HD
ENDBRANCH   4  31
TORSDOF 8
ENDMDL
MODEL 5
REMARK VINA RESULT: -8.085049145      1.453      1.792
REMARK  8 active torsions:
REMARK  status: ('A' for Active; 'I' for Inactive)
REMARK    1  A    between atoms: C2_2  and  C3_3 
REMARK    2  A    between atoms: C3_3  and  O1_4 
REMARK    3  A    between atoms: C3_3  and  C4_6 
REMARK    4  A    between atoms: C3_3  and  C24_30 
REMARK    5  A    between atoms: C5_7  and  C6_8 
REMARK    6  A    between atoms: C6_8  and  N1_9 
REMARK    7  A    between atoms: N1_9  and  C7_10 
REMARK    8  A    between atoms: C11_14  and  O2_15 
ROOT
HETATM    1  N1  UNL     1     -18.533 -36.773   1.789  1.00  0.00    -0.035 N 
HETATM    2  C9  UNL     1     -17.151 -36.609   1.483  1.00  0.00     0.243 C 
HETATM    3  C10 UNL     1     -16.258 -35.911   2.437  1.00  0.00     0.066 C 
HETATM    4  C11 UNL     1     -15.673 -36.742   3.521  1.00  0.00     0.064 C 
HETATM    5  C12 UNL     1     -15.950 -36.064   4.837  1.00  0.00     0.066 C 
HETATM    6  C13 UNL     1     -17.298 -35.627   5.107  1.00  0.00     0.001 C 
HETATM    7  C14 UNL     1     -18.502 -36.394   4.851  1.00  0.00     0.201 C 
HETATM    8  N2  UNL     1     -18.567 -37.660   4.171  1.00  0.00    -0.018 N 
HETATM    9  C15 UNL     1     -19.706 -38.340   4.851  1.00  0.00     0.245 C 
HETATM   10  C16 UNL     1     -19.769 -39.703   5.209  1.00  0.00     0.028 C 
HETATM   11  C17 UNL     1     -20.961 -40.416   4.516  1.00  0.00     0.002 C 
HETATM   12  C18 UNL     1     -20.326 -41.023   3.256  1.00  0.00     0.000 C 
HETATM   13  C19 UNL     1     -20.180 -39.886   2.309  1.00  0.00     0.004 C 
HETATM   14  C20 UNL     1     -18.876 -39.143   2.349  1.00  0.00     0.064 C 
HETATM   15  C21 UNL     1     -18.929 -37.686   2.789  1.00  0.00     0.397 C 
HETATM   16  C22 UNL     1     -17.352 -38.329   4.536  1.00  0.00     0.248 C 
HETATM   17  C23 UNL     1     -16.163 -38.137   3.651  1.00  0.00     0.066 C 
ENDROOT
BRANCH   1  18
HETATM   18  C6  UNL     1     -19.096 -37.218   0.509  1.00  0.00     0.267 C 
BRANCH  18  19
HETATM   19  C5  UNL     1     -18.685 -36.463  -0.703  1.00  0.00     0.000 C 
HETATM   20  C4  UNL     1     -17.711 -36.873  -1.523  1.00  0.00     0.018 C 
BRANCH  20  21
HETATM   21  C3  UNL     1     -17.273 -36.163  -2.725  1.00  0.00     0.153 C 
BRANCH  21  22
HETATM   22  C2  UNL     1     -17.983 -34.832  -2.875  1.00  0.00     0.047 C 
HETATM   23  C1  UNL     1     -17.108 -33.660  -2.575  1.00  0.00     0.009 C 
ENDBRANCH  21  22
BRANCH  21  24
HETATM   24  O1  UNL     1     -15.908 -35.855  -2.589  1.00  0.00    -0.376 OA
ATOM     25  H1  UNL     1     -15.445 -36.506  -3.103  1.00  0.00     0.211 HD
ENDBRANCH  21  24
BRANCH  21  26
HETATM   26  C24 UNL     1     -17.490 -36.901  -3.977  1.00  0.00     0.269 C 
HETATM   27  N3  UNL     1     -18.663 -37.651  -4.165  1.00  0.00    -0.059 NA
HETATM   28  O3  UNL     1     -16.637 -36.865  -4.876  1.00  0.00    -0.273 OA
ENDBRANCH  21  26
ENDBRANCH  20  21
ENDBRANCH  18  19
ENDBRANCH   1  18
BRANCH   1  29
HETATM   29  C7  UNL     1     -19.098 -35.437   1.868  1.00  0.00     0.236 C 
HETATM   30  C8  UNL     1     -20.557 -35.371   2.211  1.00  0.00     0.035 C 
ENDBRANCH   1  29
BRANCH   4  31
HETATM   31  O2  UNL     1     -14.252 -36.773   3.450  1.00  0.00    -0.389 OA
ATOM     32  H2  UNL     1     -13.926 -36.245   2.730  1.00  0.00     0.210 HD
ENDBRANCH   4  31
TORSDOF 8
ENDMDL
