MODEL 1
REMARK VINA RESULT: -7.745702532      0.000      0.000
REMARK  5 active torsions:
REMARK  status: ('A' for Active; 'I' for Inactive)
REMARK    1  A    between atoms: C4_4  and  O1_5 
REMARK    2  A    between atoms: O1_5  and  C5_6 
REMARK    3  A    between atoms: C7_11  and  N2_12 
REMARK    4  A    between atoms: N2_12  and  C8_15 
REMARK    5  A    between atoms: C8_15  and  C9_16 
ROOT
HETATM    1  C5  UNL     1      19.516  88.747  42.463  1.00  0.00     0.158 C 
HETATM    2  C6  UNL     1      18.627  88.396  43.669  1.00  0.00     0.267 C 
HETATM    3  N1  UNL     1      18.801  86.950  43.682  1.00  0.00    -0.044 N 
ATOM      4  H11 UNL     1      18.350  86.442  42.921  1.00  0.00     0.279 HD
ATOM      5  H12 UNL     1      18.306  86.449  44.420  1.00  0.00     0.279 HD
HETATM    6  C7  UNL     1      20.250  86.868  43.724  1.00  0.00     0.385 C 
HETATM    7  C13 UNL     1      20.769  87.974  42.825  1.00  0.00     0.097 C 
ENDROOT
BRANCH   6   8
HETATM    8  N2  UNL     1      20.653  87.126  45.099  1.00  0.00    -0.040 N 
ATOM      9  H22 UNL     1      20.253  87.983  45.481  1.00  0.00     0.280 HD
ATOM     10  H21 UNL     1      20.236  86.479  45.768  1.00  0.00     0.280 HD
BRANCH   8  11
HETATM   11  C8  UNL     1      22.121  87.114  45.119  1.00  0.00     0.299 C 
BRANCH  11  12
HETATM   12  C9  UNL     1      22.565  86.162  46.174  1.00  0.00     0.078 A 
HETATM   13  C10 UNL     1      22.822  86.411  47.493  1.00  0.00     0.036 A 
HETATM   14  C11 UNL     1      23.206  85.211  48.074  1.00  0.00     0.027 A 
HETATM   15  C12 UNL     1      23.162  84.288  47.072  1.00  0.00     0.142 A 
HETATM   16  O2  UNL     1      22.781  84.889  45.972  1.00  0.00    -0.325 OA
ENDBRANCH  11  12
ENDBRANCH   8  11
ENDBRANCH   6   8
BRANCH   1  17
HETATM   17  O1  UNL     1      18.934  88.110  41.370  1.00  0.00    -0.344 OA
BRANCH  17  18
HETATM   18  C4  UNL     1      18.586  88.689  40.163  1.00  0.00     0.069 A 
HETATM   19  C3  UNL     1      19.595  89.307  39.452  1.00  0.00     0.037 A 
HETATM   20  C2  UNL     1      19.331  89.909  38.237  1.00  0.00     0.003 A 
HETATM   21  C1  UNL     1      18.042  89.886  37.738  1.00  0.00     0.000 A 
HETATM   22  C15 UNL     1      17.021  89.263  38.454  1.00  0.00     0.003 A 
HETATM   23  C14 UNL     1      17.318  88.672  39.661  1.00  0.00     0.037 A 
ENDBRANCH  17  18
ENDBRANCH   1  17
TORSDOF 5
ENDMDL
MODEL 2
REMARK VINA RESULT: -7.669008548      1.223      1.432
REMARK  5 active torsions:
REMARK  status: ('A' for Active; 'I' for Inactive)
REMARK    1  A    between atoms: C4_4  and  O1_5 
REMARK    2  A    between atoms: O1_5  and  C5_6 
REMARK    3  A    between atoms: C7_11  and  N2_12 
REMARK    4  A    between atoms: N2_12  and  C8_15 
REMARK    5  A    between atoms: C8_15  and  C9_16 
ROOT
HETATM    1  C5  UNL     1      19.574  88.768  42.415  1.00  0.00     0.158 C 
HETATM    2  C6  UNL     1      18.705  88.380  43.623  1.00  0.00     0.267 C 
HETATM    3  N1  UNL     1      18.947  86.943  43.640  1.00  0.00    -0.044 N 
ATOM      4  H11 UNL     1      18.519  86.412  42.882  1.00  0.00     0.279 HD
ATOM      5  H12 UNL     1      18.477  86.423  44.381  1.00  0.00     0.279 HD
HETATM    6  C7  UNL     1      20.398  86.930  43.681  1.00  0.00     0.385 C 
HETATM    7  C13 UNL     1      20.864  88.056  42.778  1.00  0.00     0.097 C 
ENDROOT
BRANCH   6   8
HETATM    8  N2  UNL     1      20.790  87.212  45.054  1.00  0.00    -0.040 N 
ATOM      9  H22 UNL     1      20.861  88.210  45.256  1.00  0.00     0.280 HD
ATOM     10  H21 UNL     1      20.060  86.995  45.734  1.00  0.00     0.280 HD
BRANCH   8  11
HETATM   11  C8  UNL     1      22.041  86.482  45.296  1.00  0.00     0.299 C 
BRANCH  11  12
HETATM   12  C9  UNL     1      21.726  85.029  45.373  1.00  0.00     0.078 A 
HETATM   13  C10 UNL     1      20.781  84.400  46.135  1.00  0.00     0.036 A 
HETATM   14  C11 UNL     1      20.866  83.043  45.864  1.00  0.00     0.027 A 
HETATM   15  C12 UNL     1      21.865  82.914  44.945  1.00  0.00     0.142 A 
HETATM   16  O2  UNL     1      22.343  84.105  44.685  1.00  0.00    -0.325 OA
ENDBRANCH  11  12
ENDBRANCH   8  11
ENDBRANCH   6   8
BRANCH   1  17
HETATM   17  O1  UNL     1      19.022  88.101  41.324  1.00  0.00    -0.344 OA
BRANCH  17  18
HETATM   18  C4  UNL     1      18.594  88.666  40.137  1.00  0.00     0.069 A 
HETATM   19  C3  UNL     1      19.554  89.271  39.352  1.00  0.00     0.037 A 
HETATM   20  C2  UNL     1      19.209  89.860  38.150  1.00  0.00     0.003 A 
HETATM   21  C1  UNL     1      17.889  89.836  37.741  1.00  0.00     0.000 A 
HETATM   22  C15 UNL     1      16.918  89.226  38.532  1.00  0.00     0.003 A 
HETATM   23  C14 UNL     1      17.294  88.648  39.723  1.00  0.00     0.037 A 
ENDBRANCH  17  18
ENDBRANCH   1  17
TORSDOF 5
ENDMDL
MODEL 3
REMARK VINA RESULT: -7.647880014      1.643      2.309
REMARK  5 active torsions:
REMARK  status: ('A' for Active; 'I' for Inactive)
REMARK    1  A    between atoms: C4_4  and  O1_5 
REMARK    2  A    between atoms: O1_5  and  C5_6 
REMARK    3  A    between atoms: C7_11  and  N2_12 
REMARK    4  A    between atoms: N2_12  and  C8_15 
REMARK    5  A    between atoms: C8_15  and  C9_16 
ROOT
HETATM    1  C5  UNL     1      19.133  88.276  43.782  1.00  0.00     0.158 C 
HETATM    2  C6  UNL     1      18.254  87.911  44.991  1.00  0.00     0.267 C 
HETATM    3  N1  UNL     1      18.074  86.488  44.735  1.00  0.00    -0.044 N 
ATOM      4  H11 UNL     1      17.472  86.251  43.946  1.00  0.00     0.279 HD
ATOM      5  H12 UNL     1      17.514  85.981  45.420  1.00  0.00     0.279 HD
HETATM    6  C7  UNL     1      19.460  86.073  44.618  1.00  0.00     0.385 C 
HETATM    7  C13 UNL     1      20.181  87.183  43.878  1.00  0.00     0.097 C 
ENDROOT
BRANCH   6   8
HETATM    8  N2  UNL     1      19.989  85.964  45.970  1.00  0.00    -0.040 N 
ATOM      9  H22 UNL     1      19.761  86.766  46.557  1.00  0.00     0.280 HD
ATOM     10  H21 UNL     1      19.516  85.255  46.532  1.00  0.00     0.280 HD
BRANCH   8  11
HETATM   11  C8  UNL     1      21.433  85.732  45.842  1.00  0.00     0.299 C 
BRANCH  11  12
HETATM   12  C9  UNL     1      21.652  84.283  45.577  1.00  0.00     0.078 A 
HETATM   13  C10 UNL     1      21.195  83.208  46.288  1.00  0.00     0.036 A 
HETATM   14  C11 UNL     1      21.658  82.065  45.652  1.00  0.00     0.027 A 
HETATM   15  C12 UNL     1      22.376  82.507  44.580  1.00  0.00     0.142 A 
HETATM   16  O2  UNL     1      22.347  83.816  44.574  1.00  0.00    -0.325 OA
ENDBRANCH  11  12
ENDBRANCH   8  11
ENDBRANCH   6   8
BRANCH   1  17
HETATM   17  O1  UNL     1      18.355  88.010  42.658  1.00  0.00    -0.344 OA
BRANCH  17  18
HETATM   18  C4  UNL     1      18.608  88.416  41.360  1.00  0.00     0.069 A 
HETATM   19  C3  UNL     1      17.547  88.387  40.478  1.00  0.00     0.037 A 
HETATM   20  C2  UNL     1      17.717  88.778  39.164  1.00  0.00     0.003 A 
HETATM   21  C1  UNL     1      18.963  89.199  38.740  1.00  0.00     0.000 A 
HETATM   22  C15 UNL     1      20.036  89.230  39.629  1.00  0.00     0.003 A 
HETATM   23  C14 UNL     1      19.834  88.836  40.932  1.00  0.00     0.037 A 
ENDBRANCH  17  18
ENDBRANCH   1  17
TORSDOF 5
ENDMDL
MODEL 4
REMARK VINA RESULT: -7.562166466      1.439      1.723
REMARK  5 active torsions:
REMARK  status: ('A' for Active; 'I' for Inactive)
REMARK    1  A    between atoms: C4_4  and  O1_5 
REMARK    2  A    between atoms: O1_5  and  C5_6 
REMARK    3  A    between atoms: C7_11  and  N2_12 
REMARK    4  A    between atoms: N2_12  and  C8_15 
REMARK    5  A    between atoms: C8_15  and  C9_16 
ROOT
HETATM    1  C5  UNL     1      19.734  89.005  42.273  1.00  0.00     0.158 C 
HETATM    2  C6  UNL     1      19.326  88.498  43.666  1.00  0.00     0.267 C 
HETATM    3  N1  UNL     1      19.744  87.108  43.547  1.00  0.00    -0.044 N 
ATOM      4  H11 UNL     1      19.179  86.526  42.928  1.00  0.00     0.279 HD
ATOM      5  H12 UNL     1      19.590  86.526  44.370  1.00  0.00     0.279 HD
HETATM    6  C7  UNL     1      21.129  87.291  43.152  1.00  0.00     0.385 C 
HETATM    7  C13 UNL     1      21.153  88.473  42.202  1.00  0.00     0.097 C 
ENDROOT
BRANCH   6   8
HETATM    8  N2  UNL     1      21.877  87.618  44.358  1.00  0.00    -0.040 N 
ATOM      9  H22 UNL     1      22.836  87.909  44.169  1.00  0.00     0.280 HD
ATOM     10  H21 UNL     1      21.566  88.482  44.803  1.00  0.00     0.280 HD
BRANCH   8  11
HETATM   11  C8  UNL     1      21.790  86.448  45.240  1.00  0.00     0.299 C 
BRANCH  11  12
HETATM   12  C9  UNL     1      21.288  86.900  46.567  1.00  0.00     0.078 A 
HETATM   13  C10 UNL     1      22.006  87.222  47.686  1.00  0.00     0.036 A 
HETATM   14  C11 UNL     1      21.098  87.586  48.669  1.00  0.00     0.027 A 
HETATM   15  C12 UNL     1      19.867  87.466  48.095  1.00  0.00     0.142 A 
HETATM   16  O2  UNL     1      20.025  87.061  46.860  1.00  0.00    -0.325 OA
ENDBRANCH  11  12
ENDBRANCH   8  11
ENDBRANCH   6   8
BRANCH   1  17
HETATM   17  O1  UNL     1      18.969  88.273  41.368  1.00  0.00    -0.344 OA
BRANCH  17  18
HETATM   18  C4  UNL     1      18.486  88.710  40.147  1.00  0.00     0.069 A 
HETATM   19  C3  UNL     1      19.407  89.240  39.266  1.00  0.00     0.037 A 
HETATM   20  C2  UNL     1      19.006  89.699  38.025  1.00  0.00     0.003 A 
HETATM   21  C1  UNL     1      17.672  89.621  37.675  1.00  0.00     0.000 A 
HETATM   22  C15 UNL     1      16.741  89.086  38.563  1.00  0.00     0.003 A 
HETATM   23  C14 UNL     1      17.172  88.637  39.790  1.00  0.00     0.037 A 
ENDBRANCH  17  18
ENDBRANCH   1  17
TORSDOF 5
ENDMDL
MODEL 5
REMARK VINA RESULT: -7.519473100      3.468      7.634
REMARK  5 active torsions:
REMARK  status: ('A' for Active; 'I' for Inactive)
REMARK    1  A    between atoms: C4_4  and  O1_5 
REMARK    2  A    between atoms: O1_5  and  C5_6 
REMARK    3  A    between atoms: C7_11  and  N2_12 
REMARK    4  A    between atoms: N2_12  and  C8_15 
REMARK    5  A    between atoms: C8_15  and  C9_16 
ROOT
HETATM    1  C5  UNL     1      17.789  88.010  43.186  1.00  0.00     0.158 C 
HETATM    2  C6  UNL     1      19.159  88.556  43.626  1.00  0.00     0.267 C 
HETATM    3  N1  UNL     1      20.024  87.723  42.801  1.00  0.00    -0.044 N 
ATOM      4  H11 UNL     1      20.083  86.741  43.069  1.00  0.00     0.279 HD
ATOM      5  H12 UNL     1      21.026  87.894  42.895  1.00  0.00     0.279 HD
HETATM    6  C7  UNL     1      19.458  87.988  41.491  1.00  0.00     0.385 C 
HETATM    7  C13 UNL     1      17.955  88.065  41.679  1.00  0.00     0.097 C 
ENDROOT
BRANCH   6   8
HETATM    8  N2  UNL     1      19.963  89.284  41.061  1.00  0.00    -0.040 N 
ATOM      9  H22 UNL     1      19.227  89.974  40.915  1.00  0.00     0.280 HD
ATOM     10  H21 UNL     1      20.466  89.784  41.795  1.00  0.00     0.280 HD
BRANCH   8  11
HETATM   11  C8  UNL     1      20.777  89.044  39.863  1.00  0.00     0.299 C 
BRANCH  11  12
HETATM   12  C9  UNL     1      20.083  89.656  38.696  1.00  0.00     0.078 A 
HETATM   13  C10 UNL     1      20.631  90.228  37.582  1.00  0.00     0.036 A 
HETATM   14  C11 UNL     1      19.585  90.655  36.778  1.00  0.00     0.027 A 
HETATM   15  C12 UNL     1      18.446  90.317  37.448  1.00  0.00     0.142 A 
HETATM   16  O2  UNL     1      18.785  89.733  38.570  1.00  0.00    -0.325 OA
ENDBRANCH  11  12
ENDBRANCH   8  11
ENDBRANCH   6   8
BRANCH   1  17
HETATM   17  O1  UNL     1      17.783  86.667  43.556  1.00  0.00    -0.344 OA
BRANCH  17  18
HETATM   18  C4  UNL     1      17.187  86.120  44.678  1.00  0.00     0.069 A 
HETATM   19  C3  UNL     1      16.470  86.979  45.486  1.00  0.00     0.037 A 
HETATM   20  C2  UNL     1      15.843  86.512  46.625  1.00  0.00     0.003 A 
HETATM   21  C1  UNL     1      15.941  85.172  46.948  1.00  0.00     0.000 A 
HETATM   22  C15 UNL     1      16.663  84.302  46.134  1.00  0.00     0.003 A 
HETATM   23  C14 UNL     1      17.275  84.799  45.005  1.00  0.00     0.037 A 
ENDBRANCH  17  18
ENDBRANCH   1  17
TORSDOF 5
ENDMDL
