MODEL 1
REMARK VINA RESULT: -7.985805547      0.000      0.000
REMARK  7 active torsions:
REMARK  status: ('A' for Active; 'I' for Inactive)
REMARK    1  A    between atoms: C2_2  and  C3_3 
REMARK    2  A    between atoms: C3_3  and  O1_4 
REMARK    3  A    between atoms: C3_3  and  C4_6 
REMARK    4  A    between atoms: C4_6  and  O2_7 
REMARK    5  A    between atoms: O2_7  and  C5_8 
REMARK    6  A    between atoms: C8_11  and  N1_12 
REMARK    7  A    between atoms: N1_12  and  C9_14 
ROOT
HETATM    1  C5  UNL     1      18.719  88.662  40.134  1.00  0.00     0.069 A 
HETATM    2  C6  UNL     1      19.845  89.007  40.865  1.00  0.00     0.039 A 
HETATM    3  C7  UNL     1      19.842  88.857  42.233  1.00  0.00     0.032 A 
HETATM    4  C8  UNL     1      18.758  88.372  42.934  1.00  0.00     0.034 A 
HETATM    5  C12 UNL     1      17.638  88.028  42.209  1.00  0.00     0.032 A 
HETATM    6  C13 UNL     1      17.628  88.176  40.819  1.00  0.00     0.039 A 
ENDROOT
BRANCH   4   7
HETATM    7  N1  UNL     1      18.756  88.220  44.325  1.00  0.00    -0.337 N 
ATOM      8  H1  UNL     1      19.427  88.750  44.882  1.00  0.00     0.168 HD
BRANCH   7   9
HETATM    9  C9  UNL     1      17.912  87.411  44.938  1.00  0.00     0.148 A 
HETATM   10  N2  UNL     1      16.789  87.757  45.576  1.00  0.00    -0.346 N 
HETATM   11  C10 UNL     1      16.076  86.807  46.129  1.00  0.00     0.097 A 
ATOM     12  H2  UNL     1      16.495  88.732  45.630  1.00  0.00     0.167 HD
HETATM   13  C11 UNL     1      16.525  85.521  46.019  1.00  0.00     0.070 A 
HETATM   14  S1  UNL     1      17.962  85.721  45.121  1.00  0.00    -0.064 SA
ENDBRANCH   7   9
ENDBRANCH   4   7
BRANCH   1  15
HETATM   15  O2  UNL     1      18.699  88.803  38.754  1.00  0.00    -0.348 OA
BRANCH  15  16
HETATM   16  C4  UNL     1      18.275  89.983  38.112  1.00  0.00     0.211 C 
BRANCH  16  17
HETATM   17  C3  UNL     1      19.423  90.878  37.744  1.00  0.00     0.164 C 
BRANCH  17  18
HETATM   18  C2  UNL     1      20.503  90.066  37.138  1.00  0.00    -0.004 C 
HETATM   19  C1  UNL     1      21.670  89.987  37.746  1.00  0.00     0.009 C 
ENDBRANCH  17  18
BRANCH  17  20
HETATM   20  O1  UNL     1      19.060  91.845  36.810  1.00  0.00    -0.390 OA
ATOM     21  H1  UNL     1      18.350  92.348  37.188  1.00  0.00     0.210 HD
ENDBRANCH  17  20
ENDBRANCH  16  17
ENDBRANCH  15  16
ENDBRANCH   1  15
TORSDOF 7
ENDMDL
MODEL 2
REMARK VINA RESULT: -7.982722887      0.039      1.113
REMARK  7 active torsions:
REMARK  status: ('A' for Active; 'I' for Inactive)
REMARK    1  A    between atoms: C2_2  and  C3_3 
REMARK    2  A    between atoms: C3_3  and  O1_4 
REMARK    3  A    between atoms: C3_3  and  C4_6 
REMARK    4  A    between atoms: C4_6  and  O2_7 
REMARK    5  A    between atoms: O2_7  and  C5_8 
REMARK    6  A    between atoms: C8_11  and  N1_12 
REMARK    7  A    between atoms: N1_12  and  C9_14 
ROOT
HETATM    1  C5  UNL     1      18.722  88.661  40.132  1.00  0.00     0.069 A 
HETATM    2  C6  UNL     1      17.594  88.191  40.787  1.00  0.00     0.039 A 
HETATM    3  C7  UNL     1      17.610  88.048  42.155  1.00  0.00     0.032 A 
HETATM    4  C8  UNL     1      18.709  88.350  42.930  1.00  0.00     0.034 A 
HETATM    5  C12 UNL     1      19.831  88.817  42.282  1.00  0.00     0.032 A 
HETATM    6  C13 UNL     1      19.829  88.968  40.892  1.00  0.00     0.039 A 
ENDROOT
BRANCH   4   7
HETATM    7  N1  UNL     1      18.725  88.204  44.322  1.00  0.00    -0.337 N 
ATOM      8  H1  UNL     1      19.405  88.733  44.868  1.00  0.00     0.168 HD
BRANCH   7   9
HETATM    9  C9  UNL     1      17.886  87.400  44.950  1.00  0.00     0.148 A 
HETATM   10  N2  UNL     1      16.778  87.755  45.610  1.00  0.00    -0.346 N 
HETATM   11  C10 UNL     1      16.068  86.810  46.175  1.00  0.00     0.097 A 
ATOM     12  H2  UNL     1      16.494  88.733  45.671  1.00  0.00     0.167 HD
HETATM   13  C11 UNL     1      16.504  85.521  46.054  1.00  0.00     0.070 A 
HETATM   14  S1  UNL     1      17.925  85.710  45.129  1.00  0.00    -0.064 SA
ENDBRANCH   7   9
ENDBRANCH   4   7
BRANCH   1  15
HETATM   15  O2  UNL     1      18.730  88.815  38.754  1.00  0.00    -0.348 OA
BRANCH  15  16
HETATM   16  C4  UNL     1      18.295  89.992  38.113  1.00  0.00     0.211 C 
BRANCH  16  17
HETATM   17  C3  UNL     1      19.436  90.893  37.738  1.00  0.00     0.164 C 
BRANCH  17  18
HETATM   18  C2  UNL     1      20.516  90.088  37.124  1.00  0.00    -0.004 C 
HETATM   19  C1  UNL     1      21.672  89.975  37.748  1.00  0.00     0.009 C 
ENDBRANCH  17  18
BRANCH  17  20
HETATM   20  O1  UNL     1      19.062  91.859  36.808  1.00  0.00    -0.390 OA
ATOM     21  H1  UNL     1      18.486  92.470  37.252  1.00  0.00     0.210 HD
ENDBRANCH  17  20
ENDBRANCH  16  17
ENDBRANCH  15  16
ENDBRANCH   1  15
TORSDOF 7
ENDMDL
MODEL 3
REMARK VINA RESULT: -7.877102061      1.704      2.234
REMARK  7 active torsions:
REMARK  status: ('A' for Active; 'I' for Inactive)
REMARK    1  A    between atoms: C2_2  and  C3_3 
REMARK    2  A    between atoms: C3_3  and  O1_4 
REMARK    3  A    between atoms: C3_3  and  C4_6 
REMARK    4  A    between atoms: C4_6  and  O2_7 
REMARK    5  A    between atoms: O2_7  and  C5_8 
REMARK    6  A    between atoms: C8_11  and  N1_12 
REMARK    7  A    between atoms: N1_12  and  C9_14 
ROOT
HETATM    1  C5  UNL     1      18.677  88.762  39.782  1.00  0.00     0.069 A 
HETATM    2  C6  UNL     1      17.581  88.311  40.501  1.00  0.00     0.039 A 
HETATM    3  C7  UNL     1      17.694  88.101  41.856  1.00  0.00     0.032 A 
HETATM    4  C8  UNL     1      18.862  88.318  42.556  1.00  0.00     0.034 A 
HETATM    5  C12 UNL     1      19.952  88.767  41.844  1.00  0.00     0.032 A 
HETATM    6  C13 UNL     1      19.852  88.984  40.466  1.00  0.00     0.039 A 
ENDROOT
BRANCH   4   7
HETATM    7  N1  UNL     1      18.976  88.105  43.934  1.00  0.00    -0.337 N 
ATOM      8  H1  UNL     1      18.560  88.780  44.576  1.00  0.00     0.168 HD
BRANCH   7   9
HETATM    9  C9  UNL     1      19.606  87.055  44.430  1.00  0.00     0.148 A 
HETATM   10  N2  UNL     1      19.081  85.854  44.692  1.00  0.00    -0.346 N 
HETATM   11  C10 UNL     1      19.869  84.931  45.186  1.00  0.00     0.097 A 
ATOM     12  H2  UNL     1      18.096  85.661  44.512  1.00  0.00     0.167 HD
HETATM   13  C11 UNL     1      21.179  85.254  45.402  1.00  0.00     0.070 A 
HETATM   14  S1  UNL     1      21.235  86.880  44.886  1.00  0.00    -0.064 SA
ENDBRANCH   7   9
ENDBRANCH   4   7
BRANCH   1  15
HETATM   15  O2  UNL     1      18.588  88.982  38.416  1.00  0.00    -0.348 OA
BRANCH  15  16
HETATM   16  C4  UNL     1      18.241  90.229  37.862  1.00  0.00     0.211 C 
BRANCH  16  17
HETATM   17  C3  UNL     1      19.444  91.072  37.554  1.00  0.00     0.164 C 
BRANCH  17  18
HETATM   18  C2  UNL     1      20.489  90.227  36.933  1.00  0.00    -0.004 C 
HETATM   19  C1  UNL     1      21.646  90.074  37.548  1.00  0.00     0.009 C 
ENDBRANCH  17  18
BRANCH  17  20
HETATM   20  O1  UNL     1      19.155  92.097  36.656  1.00  0.00    -0.390 OA
ATOM     21  H1  UNL     1      18.431  91.803  36.117  1.00  0.00     0.210 HD
ENDBRANCH  17  20
ENDBRANCH  16  17
ENDBRANCH  15  16
ENDBRANCH   1  15
TORSDOF 7
ENDMDL
MODEL 4
REMARK VINA RESULT: -7.862442270      1.710      1.955
REMARK  7 active torsions:
REMARK  status: ('A' for Active; 'I' for Inactive)
REMARK    1  A    between atoms: C2_2  and  C3_3 
REMARK    2  A    between atoms: C3_3  and  O1_4 
REMARK    3  A    between atoms: C3_3  and  C4_6 
REMARK    4  A    between atoms: C4_6  and  O2_7 
REMARK    5  A    between atoms: O2_7  and  C5_8 
REMARK    6  A    between atoms: C8_11  and  N1_12 
REMARK    7  A    between atoms: N1_12  and  C9_14 
ROOT
HETATM    1  C5  UNL     1      18.655  88.714  39.825  1.00  0.00     0.069 A 
HETATM    2  C6  UNL     1      19.864  88.922  40.471  1.00  0.00     0.039 A 
HETATM    3  C7  UNL     1      19.960  88.701  41.825  1.00  0.00     0.032 A 
HETATM    4  C8  UNL     1      18.899  88.275  42.595  1.00  0.00     0.034 A 
HETATM    5  C12 UNL     1      17.696  88.067  41.955  1.00  0.00     0.032 A 
HETATM    6  C13 UNL     1      17.584  88.288  40.580  1.00  0.00     0.039 A 
ENDROOT
BRANCH   4   7
HETATM    7  N1  UNL     1      18.997  88.050  43.973  1.00  0.00    -0.337 N 
ATOM      8  H1  UNL     1      18.561  88.712  44.615  1.00  0.00     0.168 HD
BRANCH   7   9
HETATM    9  C9  UNL     1      19.639  87.007  44.467  1.00  0.00     0.148 A 
HETATM   10  N2  UNL     1      19.122  85.806  44.747  1.00  0.00    -0.346 N 
HETATM   11  C10 UNL     1      19.920  84.890  45.237  1.00  0.00     0.097 A 
ATOM     12  H2  UNL     1      18.135  85.609  44.585  1.00  0.00     0.167 HD
HETATM   13  C11 UNL     1      21.233  85.219  45.430  1.00  0.00     0.070 A 
HETATM   14  S1  UNL     1      21.275  86.841  44.900  1.00  0.00    -0.064 SA
ENDBRANCH   7   9
ENDBRANCH   4   7
BRANCH   1  15
HETATM   15  O2  UNL     1      18.534  88.929  38.461  1.00  0.00    -0.348 OA
BRANCH  15  16
HETATM   16  C4  UNL     1      18.165  90.173  37.912  1.00  0.00     0.211 C 
BRANCH  16  17
HETATM   17  C3  UNL     1      19.355  91.023  37.573  1.00  0.00     0.164 C 
BRANCH  17  18
HETATM   18  C2  UNL     1      20.408  90.175  36.969  1.00  0.00    -0.004 C 
HETATM   19  C1  UNL     1      21.580  90.078  37.566  1.00  0.00     0.009 C 
ENDBRANCH  17  18
BRANCH  17  20
HETATM   20  O1  UNL     1      19.048  92.018  36.649  1.00  0.00    -0.390 OA
ATOM     21  H1  UNL     1      19.328  92.845  37.022  1.00  0.00     0.210 HD
ENDBRANCH  17  20
ENDBRANCH  16  17
ENDBRANCH  15  16
ENDBRANCH   1  15
TORSDOF 7
ENDMDL
MODEL 5
REMARK VINA RESULT: -7.774208880      1.487      2.215
REMARK  7 active torsions:
REMARK  status: ('A' for Active; 'I' for Inactive)
REMARK    1  A    between atoms: C2_2  and  C3_3 
REMARK    2  A    between atoms: C3_3  and  O1_4 
REMARK    3  A    between atoms: C3_3  and  C4_6 
REMARK    4  A    between atoms: C4_6  and  O2_7 
REMARK    5  A    between atoms: O2_7  and  C5_8 
REMARK    6  A    between atoms: C8_11  and  N1_12 
REMARK    7  A    between atoms: N1_12  and  C9_14 
ROOT
HETATM    1  C5  UNL     1      18.961  88.546  41.243  1.00  0.00     0.069 A 
HETATM    2  C6  UNL     1      17.720  87.975  41.483  1.00  0.00     0.039 A 
HETATM    3  C7  UNL     1      17.351  87.664  42.770  1.00  0.00     0.032 A 
HETATM    4  C8  UNL     1      18.162  87.891  43.862  1.00  0.00     0.034 A 
HETATM    5  C12 UNL     1      19.395  88.459  43.626  1.00  0.00     0.032 A 
HETATM    6  C13 UNL     1      19.784  88.780  42.323  1.00  0.00     0.039 A 
ENDROOT
BRANCH   4   7
HETATM    7  N1  UNL     1      17.785  87.575  45.172  1.00  0.00    -0.337 N 
ATOM      8  H1  UNL     1      17.978  88.243  45.918  1.00  0.00     0.168 HD
BRANCH   7   9
HETATM    9  C9  UNL     1      17.187  86.436  45.472  1.00  0.00     0.148 A 
HETATM   10  N2  UNL     1      15.913  86.273  45.845  1.00  0.00    -0.346 N 
HETATM   11  C10 UNL     1      15.498  85.058  46.104  1.00  0.00     0.097 A 
ATOM     12  H2  UNL     1      15.283  87.071  45.925  1.00  0.00     0.167 HD
HETATM   13  C11 UNL     1      16.392  84.033  45.976  1.00  0.00     0.070 A 
HETATM   14  S1  UNL     1      17.806  84.853  45.486  1.00  0.00    -0.064 SA
ENDBRANCH   7   9
ENDBRANCH   4   7
BRANCH   1  15
HETATM   15  O2  UNL     1      19.356  88.869  39.954  1.00  0.00    -0.348 OA
BRANCH  15  16
HETATM   16  C4  UNL     1      20.634  89.375  39.649  1.00  0.00     0.211 C 
BRANCH  16  17
HETATM   17  C3  UNL     1      21.090  88.988  38.272  1.00  0.00     0.164 C 
BRANCH  17  18
HETATM   18  C2  UNL     1      21.059  90.178  37.392  1.00  0.00    -0.004 C 
HETATM   19  C1  UNL     1      19.897  90.672  37.013  1.00  0.00     0.009 C 
ENDBRANCH  17  18
BRANCH  17  20
HETATM   20  O1  UNL     1      22.395  88.502  38.264  1.00  0.00    -0.390 OA
ATOM     21  H1  UNL     1      22.372  87.642  37.863  1.00  0.00     0.210 HD
ENDBRANCH  17  20
ENDBRANCH  16  17
ENDBRANCH  15  16
ENDBRANCH   1  15
TORSDOF 7
ENDMDL
