MODEL 1
REMARK VINA RESULT: -8.841300641      0.000      0.000
REMARK  6 active torsions:
REMARK  status: ('A' for Active; 'I' for Inactive)
REMARK    1  A    between atoms: C2_3  and  O1_4 
REMARK    2  A    between atoms: C2_3  and  C3_6 
REMARK    3  A    between atoms: C2_3  and  C10_17 
REMARK    4  A    between atoms: N2_7  and  N3_9 
REMARK    5  A    between atoms: N3_9  and  C4_11 
REMARK    6  A    between atoms: C10_17  and  C11_18 
ROOT
HETATM    1  N1  UNL     1      15.798  87.589  45.796  1.00  0.00    -0.194 NA
HETATM    2  C1  UNL     1      16.702  87.381  45.125  1.00  0.00     0.103 C 
HETATM    3  C2  UNL     1      17.853  87.142  44.268  1.00  0.00     0.184 C 
ENDROOT
BRANCH   3   4
HETATM    4  O1  UNL     1      18.250  85.803  44.286  1.00  0.00    -0.371 OA
ATOM      5  H1  UNL     1      17.907  85.340  45.042  1.00  0.00     0.212 HD
ENDBRANCH   3   4
BRANCH   3   6
HETATM    6  C3  UNL     1      17.444  87.422  42.867  1.00  0.00     0.133 C 
HETATM    7  N2  UNL     1      18.121  88.099  42.032  1.00  0.00    -0.311 N 
ATOM      8  H2  UNL     1      19.018  88.494  42.314  1.00  0.00     0.185 HD
BRANCH   7   9
HETATM    9  N3  UNL     1      17.658  88.309  40.739  1.00  0.00    -0.301 N 
ATOM     10  H3  UNL     1      16.700  88.045  40.506  1.00  0.00     0.187 HD
BRANCH   9  11
HETATM   11  C4  UNL     1      18.472  88.874  39.743  1.00  0.00     0.048 A 
HETATM   12  C5  UNL     1      17.929  89.218  38.530  1.00  0.00     0.031 A 
HETATM   13  C6  UNL     1      18.771  89.781  37.570  1.00  0.00     0.002 A 
HETATM   14  C7  UNL     1      20.102  89.982  37.840  1.00  0.00     0.000 A 
HETATM   15  C8  UNL     1      20.648  89.636  39.061  1.00  0.00     0.002 A 
HETATM   16  C9  UNL     1      19.813  89.072  40.025  1.00  0.00     0.031 A 
ENDBRANCH   9  11
ENDBRANCH   7   9
ENDBRANCH   3   6
BRANCH   3  17
HETATM   17  C10 UNL     1      18.996  88.073  44.586  1.00  0.00     0.098 C 
BRANCH  17  18
HETATM   18  C11 UNL     1      20.099  87.427  45.292  1.00  0.00    -0.054 A 
HETATM   19  C12 UNL     1      20.045  87.131  46.628  1.00  0.00     0.007 A 
HETATM   20  C13 UNL     1      21.092  86.515  47.306  1.00  0.00     0.001 A 
HETATM   21  C14 UNL     1      22.232  86.194  46.569  1.00  0.00     0.000 A 
HETATM   22  C15 UNL     1      22.296  86.488  45.221  1.00  0.00     0.001 A 
HETATM   23  C16 UNL     1      21.246  87.100  44.567  1.00  0.00     0.007 A 
ENDBRANCH  17  18
ENDBRANCH   3  17
TORSDOF 6
ENDMDL
MODEL 2
REMARK VINA RESULT: -8.746488416      0.186      1.088
REMARK  6 active torsions:
REMARK  status: ('A' for Active; 'I' for Inactive)
REMARK    1  A    between atoms: C2_3  and  O1_4 
REMARK    2  A    between atoms: C2_3  and  C3_6 
REMARK    3  A    between atoms: C2_3  and  C10_17 
REMARK    4  A    between atoms: N2_7  and  N3_9 
REMARK    5  A    between atoms: N3_9  and  C4_11 
REMARK    6  A    between atoms: C10_17  and  C11_18 
ROOT
HETATM    1  N1  UNL     1      15.705  87.483  45.957  1.00  0.00    -0.194 NA
HETATM    2  C1  UNL     1      16.626  87.301  45.300  1.00  0.00     0.103 C 
HETATM    3  C2  UNL     1      17.797  87.098  44.462  1.00  0.00     0.184 C 
ENDROOT
BRANCH   3   4
HETATM    4  O1  UNL     1      18.231  85.770  44.483  1.00  0.00    -0.371 OA
ATOM      5  H1  UNL     1      18.125  85.348  43.639  1.00  0.00     0.212 HD
ENDBRANCH   3   4
BRANCH   3   6
HETATM    6  C3  UNL     1      17.404  87.370  43.055  1.00  0.00     0.133 C 
HETATM    7  N2  UNL     1      18.081  88.059  42.230  1.00  0.00    -0.311 N 
ATOM      8  H2  UNL     1      18.966  88.471  42.525  1.00  0.00     0.185 HD
BRANCH   7   9
HETATM    9  N3  UNL     1      17.633  88.261  40.931  1.00  0.00    -0.301 N 
ATOM     10  H3  UNL     1      16.672  88.014  40.694  1.00  0.00     0.187 HD
BRANCH   9  11
HETATM   11  C4  UNL     1      18.467  88.795  39.934  1.00  0.00     0.048 A 
HETATM   12  C5  UNL     1      17.947  89.106  38.702  1.00  0.00     0.031 A 
HETATM   13  C6  UNL     1      18.808  89.639  37.742  1.00  0.00     0.002 A 
HETATM   14  C7  UNL     1      20.135  89.843  38.030  1.00  0.00     0.000 A 
HETATM   15  C8  UNL     1      20.657  89.530  39.270  1.00  0.00     0.002 A 
HETATM   16  C9  UNL     1      19.804  88.997  40.235  1.00  0.00     0.031 A 
ENDBRANCH   9  11
ENDBRANCH   7   9
ENDBRANCH   3   6
BRANCH   3  17
HETATM   17  C10 UNL     1      18.909  88.059  44.801  1.00  0.00     0.098 C 
BRANCH  17  18
HETATM   18  C11 UNL     1      20.086  87.415  45.376  1.00  0.00    -0.054 A 
HETATM   19  C12 UNL     1      21.195  87.110  44.632  1.00  0.00     0.007 A 
HETATM   20  C13 UNL     1      22.320  86.498  45.175  1.00  0.00     0.001 A 
HETATM   21  C14 UNL     1      22.291  86.193  46.536  1.00  0.00     0.000 A 
HETATM   22  C15 UNL     1      21.178  86.498  47.294  1.00  0.00     0.001 A 
HETATM   23  C16 UNL     1      20.072  87.105  46.737  1.00  0.00     0.007 A 
ENDBRANCH  17  18
ENDBRANCH   3  17
TORSDOF 6
ENDMDL
MODEL 3
REMARK VINA RESULT: -8.201814772      2.156      7.549
REMARK  6 active torsions:
REMARK  status: ('A' for Active; 'I' for Inactive)
REMARK    1  A    between atoms: C2_3  and  O1_4 
REMARK    2  A    between atoms: C2_3  and  C3_6 
REMARK    3  A    between atoms: C2_3  and  C10_17 
REMARK    4  A    between atoms: N2_7  and  N3_9 
REMARK    5  A    between atoms: N3_9  and  C4_11 
REMARK    6  A    between atoms: C10_17  and  C11_18 
ROOT
HETATM    1  N1  UNL     1      17.827  88.004  41.961  1.00  0.00    -0.194 NA
HETATM    2  C1  UNL     1      18.868  88.418  41.725  1.00  0.00     0.103 C 
HETATM    3  C2  UNL     1      20.198  88.921  41.417  1.00  0.00     0.184 C 
ENDROOT
BRANCH   3   4
HETATM    4  O1  UNL     1      20.286  90.305  41.580  1.00  0.00    -0.371 OA
ATOM      5  H1  UNL     1      21.138  90.640  41.327  1.00  0.00     0.212 HD
ENDBRANCH   3   4
BRANCH   3   6
HETATM    6  C3  UNL     1      21.146  88.338  42.402  1.00  0.00     0.133 C 
HETATM    7  N2  UNL     1      20.900  87.340  43.147  1.00  0.00    -0.311 N 
ATOM      8  H2  UNL     1      19.992  86.880  43.089  1.00  0.00     0.185 HD
BRANCH   7   9
HETATM    9  N3  UNL     1      21.851  86.864  44.041  1.00  0.00    -0.301 N 
ATOM     10  H3  UNL     1      22.722  86.475  43.678  1.00  0.00     0.187 HD
BRANCH   9  11
HETATM   11  C4  UNL     1      21.647  86.902  45.430  1.00  0.00     0.048 A 
HETATM   12  C5  UNL     1      22.712  86.747  46.283  1.00  0.00     0.031 A 
HETATM   13  C6  UNL     1      22.466  86.797  47.656  1.00  0.00     0.002 A 
HETATM   14  C7  UNL     1      21.193  86.994  48.131  1.00  0.00     0.000 A 
HETATM   15  C8  UNL     1      20.122  87.149  47.273  1.00  0.00     0.002 A 
HETATM   16  C9  UNL     1      20.359  87.101  45.900  1.00  0.00     0.031 A 
ENDBRANCH   9  11
ENDBRANCH   7   9
ENDBRANCH   3   6
BRANCH   3  17
HETATM   17  C10 UNL     1      20.664  88.485  40.049  1.00  0.00     0.098 C 
BRANCH  17  18
HETATM   18  C11 UNL     1      20.046  89.229  38.955  1.00  0.00    -0.054 A 
HETATM   19  C12 UNL     1      18.694  89.229  38.736  1.00  0.00     0.007 A 
HETATM   20  C13 UNL     1      18.100  89.937  37.696  1.00  0.00     0.001 A 
HETATM   21  C14 UNL     1      18.940  90.670  36.857  1.00  0.00     0.000 A 
HETATM   22  C15 UNL     1      20.305  90.676  37.070  1.00  0.00     0.001 A 
HETATM   23  C16 UNL     1      20.874  89.967  38.108  1.00  0.00     0.007 A 
ENDBRANCH  17  18
ENDBRANCH   3  17
TORSDOF 6
ENDMDL
MODEL 4
REMARK VINA RESULT: -8.191280703      2.614      4.270
REMARK  6 active torsions:
REMARK  status: ('A' for Active; 'I' for Inactive)
REMARK    1  A    between atoms: C2_3  and  O1_4 
REMARK    2  A    between atoms: C2_3  and  C3_6 
REMARK    3  A    between atoms: C2_3  and  C10_17 
REMARK    4  A    between atoms: N2_7  and  N3_9 
REMARK    5  A    between atoms: N3_9  and  C4_11 
REMARK    6  A    between atoms: C10_17  and  C11_18 
ROOT
HETATM    1  N1  UNL     1      21.827  83.677  44.470  1.00  0.00    -0.194 NA
HETATM    2  C1  UNL     1      21.911  84.644  45.079  1.00  0.00     0.103 C 
HETATM    3  C2  UNL     1      21.992  85.875  45.848  1.00  0.00     0.184 C 
ENDROOT
BRANCH   3   4
HETATM    4  O1  UNL     1      23.250  86.048  46.430  1.00  0.00    -0.371 OA
ATOM      5  H1  UNL     1      23.687  86.827  46.108  1.00  0.00     0.212 HD
ENDBRANCH   3   4
BRANCH   3   6
HETATM    6  C3  UNL     1      21.824  87.014  44.908  1.00  0.00     0.133 C 
HETATM    7  N2  UNL     1      21.765  86.911  43.643  1.00  0.00    -0.311 N 
ATOM      8  H2  UNL     1      21.835  85.991  43.209  1.00  0.00     0.185 HD
BRANCH   7   9
HETATM    9  N3  UNL     1      21.607  88.035  42.842  1.00  0.00    -0.301 N 
ATOM     10  H3  UNL     1      22.342  88.743  42.829  1.00  0.00     0.187 HD
BRANCH   9  11
HETATM   11  C4  UNL     1      20.464  88.223  42.047  1.00  0.00     0.048 A 
HETATM   12  C5  UNL     1      19.234  87.827  42.514  1.00  0.00     0.031 A 
HETATM   13  C6  UNL     1      18.123  88.037  41.695  1.00  0.00     0.002 A 
HETATM   14  C7  UNL     1      18.266  88.623  40.461  1.00  0.00     0.000 A 
HETATM   15  C8  UNL     1      19.503  89.021  39.993  1.00  0.00     0.002 A 
HETATM   16  C9  UNL     1      20.618  88.815  40.804  1.00  0.00     0.031 A 
ENDBRANCH   9  11
ENDBRANCH   7   9
ENDBRANCH   3   6
BRANCH   3  17
HETATM   17  C10 UNL     1      20.882  85.979  46.865  1.00  0.00     0.098 C 
BRANCH  17  18
HETATM   18  C11 UNL     1      19.575  86.260  46.280  1.00  0.00    -0.054 A 
HETATM   19  C12 UNL     1      18.853  85.314  45.601  1.00  0.00     0.007 A 
HETATM   20  C13 UNL     1      17.607  85.576  45.043  1.00  0.00     0.001 A 
HETATM   21  C14 UNL     1      17.092  86.863  45.197  1.00  0.00     0.000 A 
HETATM   22  C15 UNL     1      17.811  87.824  45.881  1.00  0.00     0.001 A 
HETATM   23  C16 UNL     1      19.047  87.544  46.428  1.00  0.00     0.007 A 
ENDBRANCH  17  18
ENDBRANCH   3  17
TORSDOF 6
ENDMDL
MODEL 5
REMARK VINA RESULT: -8.116913727      2.891      7.562
REMARK  6 active torsions:
REMARK  status: ('A' for Active; 'I' for Inactive)
REMARK    1  A    between atoms: C2_3  and  O1_4 
REMARK    2  A    between atoms: C2_3  and  C3_6 
REMARK    3  A    between atoms: C2_3  and  C10_17 
REMARK    4  A    between atoms: N2_7  and  N3_9 
REMARK    5  A    between atoms: N3_9  and  C4_11 
REMARK    6  A    between atoms: C10_17  and  C11_18 
ROOT
HETATM    1  N1  UNL     1      23.668  90.269  37.575  1.00  0.00    -0.194 NA
HETATM    2  C1  UNL     1      22.642  89.897  37.924  1.00  0.00     0.103 C 
HETATM    3  C2  UNL     1      21.334  89.450  38.376  1.00  0.00     0.184 C 
ENDROOT
BRANCH   3   4
HETATM    4  O1  UNL     1      21.074  88.130  38.001  1.00  0.00    -0.371 OA
ATOM      5  H1  UNL     1      20.600  87.656  38.674  1.00  0.00     0.212 HD
ENDBRANCH   3   4
BRANCH   3   6
HETATM    6  C3  UNL     1      21.338  89.453  39.862  1.00  0.00     0.133 C 
HETATM    7  N2  UNL     1      21.381  88.415  40.593  1.00  0.00    -0.311 N 
ATOM      8  H2  UNL     1      21.417  87.494  40.156  1.00  0.00     0.185 HD
BRANCH   7   9
HETATM    9  N3  UNL     1      21.381  88.516  41.978  1.00  0.00    -0.301 N 
ATOM     10  H3  UNL     1      22.097  89.081  42.434  1.00  0.00     0.187 HD
BRANCH   9  11
HETATM   11  C4  UNL     1      20.422  87.861  42.768  1.00  0.00     0.048 A 
HETATM   12  C5  UNL     1      20.821  87.118  43.852  1.00  0.00     0.031 A 
HETATM   13  C6  UNL     1      19.836  86.487  44.613  1.00  0.00     0.002 A 
HETATM   14  C7  UNL     1      18.509  86.612  44.280  1.00  0.00     0.000 A 
HETATM   15  C8  UNL     1      18.109  87.360  43.191  1.00  0.00     0.002 A 
HETATM   16  C9  UNL     1      19.087  87.993  42.424  1.00  0.00     0.031 A 
ENDBRANCH   9  11
ENDBRANCH   7   9
ENDBRANCH   3   6
BRANCH   3  17
HETATM   17  C10 UNL     1      20.235  90.386  37.938  1.00  0.00     0.098 C 
BRANCH  17  18
HETATM   18  C11 UNL     1      18.894  89.829  38.091  1.00  0.00    -0.054 A 
HETATM   19  C12 UNL     1      18.468  89.245  39.254  1.00  0.00     0.007 A 
HETATM   20  C13 UNL     1      17.192  88.714  39.406  1.00  0.00     0.001 A 
HETATM   21  C14 UNL     1      16.330  88.793  38.312  1.00  0.00     0.000 A 
HETATM   22  C15 UNL     1      16.750  89.380  37.135  1.00  0.00     0.001 A 
HETATM   23  C16 UNL     1      18.021  89.901  37.004  1.00  0.00     0.007 A 
ENDBRANCH  17  18
ENDBRANCH   3  17
TORSDOF 6
ENDMDL
