MODEL 1
REMARK VINA RESULT: -3.413792867      0.000      0.000
REMARK  2 active torsions:
REMARK  status: ('A' for Active; 'I' for Inactive)
REMARK    1  A    between atoms: C3_6  and  C4_7 
REMARK    2  A    between atoms: C4_7  and  N3_8 
ROOT
HETATM    1  C1  UNL     1      22.180  34.405   3.722  1.00  0.00     0.156 C 
HETATM    2  N1  UNL     1      21.473  34.193   4.977  1.00  0.00    -0.355 N 
HETATM    3  C2  UNL     1      20.254  34.612   5.348  1.00  0.00     0.182 A 
HETATM    4  N2  UNL     1      20.002  34.181   6.608  1.00  0.00    -0.353 N 
ATOM      5  H2  UNL     1      19.146  34.359   7.133  1.00  0.00     0.166 HD
HETATM    6  C3  UNL     1      21.055  33.483   7.056  1.00  0.00     0.051 A 
HETATM    7  C5  UNL     1      21.978  33.492   6.032  1.00  0.00     0.117 A 
ENDROOT
BRANCH   6   8
HETATM    8  C4  UNL     1      21.231  32.823   8.375  1.00  0.00     0.287 C 
BRANCH   8   9
HETATM    9  N3  UNL     1      21.448  31.412   8.193  1.00  0.00    -0.074 N 
ATOM     10  H33 UNL     1      22.260  31.223   7.606  1.00  0.00     0.274 HD
ATOM     11  H32 UNL     1      21.775  30.962   9.047  1.00  0.00     0.274 HD
ATOM     12  H31 UNL     1      20.602  30.975   7.828  1.00  0.00     0.274 HD
ENDBRANCH   8   9
ENDBRANCH   6   8
TORSDOF 2
ENDMDL
MODEL 2
REMARK VINA RESULT: -3.209546842      1.290      3.310
REMARK  2 active torsions:
REMARK  status: ('A' for Active; 'I' for Inactive)
REMARK    1  A    between atoms: C3_6  and  C4_7 
REMARK    2  A    between atoms: C4_7  and  N3_8 
ROOT
HETATM    1  C1  UNL     1      20.688  33.506   8.462  1.00  0.00     0.156 C 
HETATM    2  N1  UNL     1      20.781  33.792   7.036  1.00  0.00    -0.355 N 
HETATM    3  C2  UNL     1      19.905  34.415   6.234  1.00  0.00     0.182 A 
HETATM    4  N2  UNL     1      20.409  34.457   4.977  1.00  0.00    -0.353 N 
ATOM      5  H2  UNL     1      19.947  34.876   4.169  1.00  0.00     0.166 HD
HETATM    6  C3  UNL     1      21.611  33.863   4.961  1.00  0.00     0.051 A 
HETATM    7  C5  UNL     1      21.843  33.446   6.254  1.00  0.00     0.117 A 
ENDROOT
BRANCH   6   8
HETATM    8  C4  UNL     1      22.531  33.673   3.810  1.00  0.00     0.287 C 
BRANCH   8   9
HETATM    9  N3  UNL     1      22.477  32.308   3.359  1.00  0.00    -0.074 N 
ATOM     10  H33 UNL     1      22.696  31.649   4.105  1.00  0.00     0.274 HD
ATOM     11  H32 UNL     1      21.522  32.005   3.169  1.00  0.00     0.274 HD
ATOM     12  H31 UNL     1      23.085  32.186   2.549  1.00  0.00     0.274 HD
ENDBRANCH   8   9
ENDBRANCH   6   8
TORSDOF 2
ENDMDL
MODEL 3
REMARK VINA RESULT: -3.144913871      1.110      3.471
REMARK  2 active torsions:
REMARK  status: ('A' for Active; 'I' for Inactive)
REMARK    1  A    between atoms: C3_6  and  C4_7 
REMARK    2  A    between atoms: C4_7  and  N3_8 
ROOT
HETATM    1  C1  UNL     1      22.568  32.052   9.071  1.00  0.00     0.156 C 
HETATM    2  N1  UNL     1      21.729  32.811   8.153  1.00  0.00    -0.355 N 
HETATM    3  C2  UNL     1      20.459  33.218   8.300  1.00  0.00     0.182 A 
HETATM    4  N2  UNL     1      20.081  33.896   7.189  1.00  0.00    -0.353 N 
ATOM      5  H2  UNL     1      19.163  34.315   7.038  1.00  0.00     0.166 HD
HETATM    6  C3  UNL     1      21.102  33.930   6.322  1.00  0.00     0.051 A 
HETATM    7  C5  UNL     1      22.136  33.249   6.928  1.00  0.00     0.117 A 
ENDROOT
BRANCH   6   8
HETATM    8  C4  UNL     1      21.150  34.561   4.978  1.00  0.00     0.287 C 
BRANCH   8   9
HETATM    9  N3  UNL     1      22.008  33.799   4.109  1.00  0.00    -0.074 N 
ATOM     10  H33 UNL     1      21.478  33.183   3.493  1.00  0.00     0.274 HD
ATOM     11  H32 UNL     1      22.445  34.382   3.396  1.00  0.00     0.274 HD
ATOM     12  H31 UNL     1      22.696  33.288   4.661  1.00  0.00     0.274 HD
ENDBRANCH   8   9
ENDBRANCH   6   8
TORSDOF 2
ENDMDL
MODEL 4
REMARK VINA RESULT: -2.289261004      1.060      1.060
REMARK  2 active torsions:
REMARK  status: ('A' for Active; 'I' for Inactive)
REMARK    1  A    between atoms: C3_6  and  C4_7 
REMARK    2  A    between atoms: C4_7  and  N3_8 
ROOT
HETATM    1  C1  UNL     1      22.614  33.365   3.645  1.00  0.00     0.156 C 
HETATM    2  N1  UNL     1      21.859  33.841   4.795  1.00  0.00    -0.355 N 
HETATM    3  C2  UNL     1      20.995  34.865   4.882  1.00  0.00     0.182 A 
HETATM    4  N2  UNL     1      20.528  34.943   6.152  1.00  0.00    -0.353 N 
ATOM      5  H2  UNL     1      19.857  35.631   6.492  1.00  0.00     0.166 HD
HETATM    6  C3  UNL     1      21.085  33.972   6.889  1.00  0.00     0.051 A 
HETATM    7  C5  UNL     1      21.920  33.282   6.037  1.00  0.00     0.117 A 
ENDROOT
BRANCH   6   8
HETATM    8  C4  UNL     1      20.873  33.670   8.328  1.00  0.00     0.287 C 
BRANCH   8   9
HETATM    9  N3  UNL     1      19.827  32.693   8.476  1.00  0.00    -0.074 N 
ATOM     10  H33 UNL     1      19.183  32.932   9.229  1.00  0.00     0.274 HD
ATOM     11  H32 UNL     1      19.165  32.721   7.700  1.00  0.00     0.274 HD
ATOM     12  H31 UNL     1      20.233  31.765   8.599  1.00  0.00     0.274 HD
ENDBRANCH   8   9
ENDBRANCH   6   8
TORSDOF 2
ENDMDL
MODEL 5
REMARK VINA RESULT: -1.982855093      1.029      1.704
REMARK  2 active torsions:
REMARK  status: ('A' for Active; 'I' for Inactive)
REMARK    1  A    between atoms: C3_6  and  C4_7 
REMARK    2  A    between atoms: C4_7  and  N3_8 
ROOT
HETATM    1  C1  UNL     1      19.349  35.200   4.595  1.00  0.00     0.156 C 
HETATM    2  N1  UNL     1      20.390  34.458   5.292  1.00  0.00    -0.355 N 
HETATM    3  C2  UNL     1      21.559  33.993   4.828  1.00  0.00     0.182 A 
HETATM    4  N2  UNL     1      22.214  33.360   5.832  1.00  0.00    -0.353 N 
ATOM      5  H2  UNL     1      23.127  32.913   5.751  1.00  0.00     0.166 HD
HETATM    6  C3  UNL     1      21.472  33.414   6.947  1.00  0.00     0.051 A 
HETATM    7  C5  UNL     1      20.328  34.103   6.607  1.00  0.00     0.117 A 
ENDROOT
BRANCH   6   8
HETATM    8  C4  UNL     1      21.783  32.858   8.289  1.00  0.00     0.287 C 
BRANCH   8   9
HETATM    9  N3  UNL     1      21.529  31.442   8.305  1.00  0.00    -0.074 N 
ATOM     10  H33 UNL     1      20.626  31.211   7.893  1.00  0.00     0.274 HD
ATOM     11  H32 UNL     1      22.125  30.939   7.648  1.00  0.00     0.274 HD
ATOM     12  H31 UNL     1      21.619  31.084   9.256  1.00  0.00     0.274 HD
ENDBRANCH   8   9
ENDBRANCH   6   8
TORSDOF 2
ENDMDL
