MODEL 1
REMARK VINA RESULT: -2.446894947      0.000      0.000
REMARK  2 active torsions:
REMARK  status: ('A' for Active; 'I' for Inactive)
REMARK    1  A    between atoms: C3_5  and  C4_6 
REMARK    2  A    between atoms: C4_6  and  N2_7 
ROOT
HETATM    1  C1  UNL     1      22.217  34.127   3.731  1.00  0.00     0.089 C 
HETATM    2  C2  UNL     1      21.666  33.981   5.104  1.00  0.00     0.079 A 
HETATM    3  N1  UNL     1      22.365  33.454   6.110  1.00  0.00    -0.347 N 
ATOM      4  H1  UNL     1      23.322  33.107   6.047  1.00  0.00     0.167 HD
HETATM    5  C3  UNL     1      21.610  33.453   7.221  1.00  0.00     0.051 A 
HETATM    6  C5  UNL     1      20.417  33.999   6.864  1.00  0.00     0.118 A 
HETATM    7  N3  UNL     1      20.460  34.320   5.562  1.00  0.00    -0.349 N 
HETATM    8  C6  UNL     1      19.384  34.921   4.816  1.00  0.00     0.156 C 
ENDROOT
BRANCH   5   9
HETATM    9  C4  UNL     1      22.046  32.942   8.557  1.00  0.00     0.287 C 
BRANCH   9  10
HETATM   10  N2  UNL     1      21.996  31.483   8.580  1.00  0.00    -0.074 N 
ATOM     11  H23 UNL     1      21.203  31.120   8.050  1.00  0.00     0.274 HD
ATOM     12  H22 UNL     1      22.746  31.067   8.028  1.00  0.00     0.274 HD
ATOM     13  H21 UNL     1      21.997  31.144   9.542  1.00  0.00     0.274 HD
ENDBRANCH   9  10
ENDBRANCH   5   9
TORSDOF 2
ENDMDL
MODEL 2
REMARK VINA RESULT: -2.208377508      1.496      3.494
REMARK  2 active torsions:
REMARK  status: ('A' for Active; 'I' for Inactive)
REMARK    1  A    between atoms: C3_5  and  C4_6 
REMARK    2  A    between atoms: C4_6  and  N2_7 
ROOT
HETATM    1  C1  UNL     1      21.749  31.840   8.471  1.00  0.00     0.089 C 
HETATM    2  C2  UNL     1      21.540  32.884   7.433  1.00  0.00     0.079 A 
HETATM    3  N1  UNL     1      21.994  32.763   6.185  1.00  0.00    -0.347 N 
ATOM      4  H1  UNL     1      22.515  31.966   5.821  1.00  0.00     0.167 HD
HETATM    5  C3  UNL     1      21.656  33.857   5.483  1.00  0.00     0.051 A 
HETATM    6  C5  UNL     1      20.976  34.660   6.345  1.00  0.00     0.118 A 
HETATM    7  N3  UNL     1      20.910  34.055   7.540  1.00  0.00    -0.349 N 
HETATM    8  C6  UNL     1      20.268  34.593   8.712  1.00  0.00     0.156 C 
ENDROOT
BRANCH   5   9
HETATM    9  C4  UNL     1      21.987  34.092   4.044  1.00  0.00     0.287 C 
BRANCH   9  10
HETATM   10  N2  UNL     1      22.529  32.874   3.446  1.00  0.00    -0.074 N 
ATOM     11  H23 UNL     1      22.780  32.182   4.151  1.00  0.00     0.274 HD
ATOM     12  H22 UNL     1      21.811  32.338   2.959  1.00  0.00     0.274 HD
ATOM     13  H21 UNL     1      23.316  33.100   2.837  1.00  0.00     0.274 HD
ENDBRANCH   9  10
ENDBRANCH   5   9
TORSDOF 2
ENDMDL
MODEL 3
REMARK VINA RESULT: -1.817932609      0.885      1.945
REMARK  2 active torsions:
REMARK  status: ('A' for Active; 'I' for Inactive)
REMARK    1  A    between atoms: C3_5  and  C4_6 
REMARK    2  A    between atoms: C4_6  and  N2_7 
ROOT
HETATM    1  C1  UNL     1      19.340  35.149   4.436  1.00  0.00     0.089 C 
HETATM    2  C2  UNL     1      20.338  34.439   5.279  1.00  0.00     0.079 A 
HETATM    3  N1  UNL     1      20.076  34.037   6.524  1.00  0.00    -0.347 N 
ATOM      4  H1  UNL     1      19.192  34.169   7.013  1.00  0.00     0.167 HD
HETATM    5  C3  UNL     1      21.163  33.431   7.031  1.00  0.00     0.051 A 
HETATM    6  C5  UNL     1      22.106  33.473   6.052  1.00  0.00     0.118 A 
HETATM    7  N3  UNL     1      21.592  34.094   4.981  1.00  0.00    -0.349 N 
HETATM    8  C6  UNL     1      22.287  34.333   3.742  1.00  0.00     0.156 C 
ENDROOT
BRANCH   5   9
HETATM    9  C4  UNL     1      21.258  32.844   8.403  1.00  0.00     0.287 C 
BRANCH   9  10
HETATM   10  N2  UNL     1      21.609  31.429   8.324  1.00  0.00    -0.074 N 
ATOM     11  H23 UNL     1      21.477  31.055   7.385  1.00  0.00     0.274 HD
ATOM     12  H22 UNL     1      22.615  31.282   8.403  1.00  0.00     0.274 HD
ATOM     13  H21 UNL     1      21.089  30.897   9.022  1.00  0.00     0.274 HD
ENDBRANCH   9  10
ENDBRANCH   5   9
TORSDOF 2
ENDMDL
MODEL 4
REMARK VINA RESULT: -1.477215943      1.398      3.923
REMARK  2 active torsions:
REMARK  status: ('A' for Active; 'I' for Inactive)
REMARK    1  A    between atoms: C3_5  and  C4_6 
REMARK    2  A    between atoms: C4_6  and  N2_7 
ROOT
HETATM    1  C1  UNL     1      19.556  33.421   8.450  1.00  0.00     0.089 C 
HETATM    2  C2  UNL     1      20.677  33.452   7.474  1.00  0.00     0.079 A 
HETATM    3  N1  UNL     1      20.526  33.863   6.214  1.00  0.00    -0.347 N 
ATOM      4  H1  UNL     1      19.654  34.189   5.800  1.00  0.00     0.167 HD
HETATM    5  C3  UNL     1      21.706  33.777   5.576  1.00  0.00     0.051 A 
HETATM    6  C5  UNL     1      22.591  33.298   6.490  1.00  0.00     0.118 A 
HETATM    7  N3  UNL     1      21.952  33.100   7.652  1.00  0.00    -0.349 N 
HETATM    8  C6  UNL     1      22.554  32.599   8.860  1.00  0.00     0.156 C 
ENDROOT
BRANCH   5   9
HETATM    9  C4  UNL     1      21.939  34.149   4.147  1.00  0.00     0.287 C 
BRANCH   9  10
HETATM   10  N2  UNL     1      22.522  33.024   3.421  1.00  0.00    -0.074 N 
ATOM     11  H23 UNL     1      22.055  32.145   3.642  1.00  0.00     0.274 HD
ATOM     12  H22 UNL     1      22.307  33.062   2.425  1.00  0.00     0.274 HD
ATOM     13  H21 UNL     1      23.527  32.975   3.593  1.00  0.00     0.274 HD
ENDBRANCH   9  10
ENDBRANCH   5   9
TORSDOF 2
ENDMDL
MODEL 5
REMARK VINA RESULT: -0.118771360      8.204      9.318
REMARK  2 active torsions:
REMARK  status: ('A' for Active; 'I' for Inactive)
REMARK    1  A    between atoms: C3_5  and  C4_6 
REMARK    2  A    between atoms: C4_6  and  N2_7 
ROOT
HETATM    1  C1  UNL     1      14.869  35.245  15.119  1.00  0.00     0.089 C 
HETATM    2  C2  UNL     1      15.798  35.760  14.079  1.00  0.00     0.079 A 
HETATM    3  N1  UNL     1      16.761  36.644  14.345  1.00  0.00    -0.347 N 
ATOM      4  H1  UNL     1      16.957  37.046  15.261  1.00  0.00     0.167 HD
HETATM    5  C3  UNL     1      17.433  36.919  13.214  1.00  0.00     0.051 A 
HETATM    6  C5  UNL     1      16.848  36.173  12.240  1.00  0.00     0.118 A 
HETATM    7  N3  UNL     1      15.845  35.465  12.778  1.00  0.00    -0.349 N 
HETATM    8  C6  UNL     1      14.988  34.555  12.062  1.00  0.00     0.156 C 
ENDROOT
BRANCH   5   9
HETATM    9  C4  UNL     1      18.585  37.866  13.109  1.00  0.00     0.287 C 
BRANCH   9  10
HETATM   10  N2  UNL     1      19.506  37.427  12.064  1.00  0.00    -0.074 N 
ATOM     11  H23 UNL     1      19.039  37.327  11.163  1.00  0.00     0.274 HD
ATOM     12  H22 UNL     1      20.168  38.159  11.808  1.00  0.00     0.274 HD
ATOM     13  H21 UNL     1      19.977  36.568  12.346  1.00  0.00     0.274 HD
ENDBRANCH   9  10
ENDBRANCH   5   9
TORSDOF 2
ENDMDL
