MODEL 1
REMARK VINA RESULT: -2.537662082      0.000      0.000
REMARK  1 active torsions:
REMARK  status: ('A' for Active; 'I' for Inactive)
REMARK    1  A    between atoms: C2_2  and  C3_3 
ROOT
HETATM    1  C3  UNL     1      21.141  33.609   7.212  1.00  0.00     0.027 A 
HETATM    2  C4  UNL     1      22.074  33.631   6.184  1.00  0.00     0.118 A 
HETATM    3  N1  UNL     1      21.477  34.079   5.064  1.00  0.00    -0.334 N 
HETATM    4  C5  UNL     1      22.153  34.235   3.787  1.00  0.00     0.158 C 
HETATM    5  C6  UNL     1      20.189  34.342   5.352  1.00  0.00     0.194 A 
HETATM    6  N2  UNL     1      19.196  34.840   4.443  1.00  0.00    -0.063 NA
HETATM    7  N3  UNL     1      20.002  34.052   6.659  1.00  0.00    -0.333 N 
ATOM      8  H3  UNL     1      19.117  34.155   7.156  1.00  0.00     0.168 HD
ENDROOT
BRANCH   1   9
HETATM    9  C2  UNL     1      21.382  33.179   8.620  1.00  0.00     0.054 C 
HETATM   10  C1  UNL     1      22.673  32.456   8.797  1.00  0.00     0.011 C 
ENDBRANCH   1   9
TORSDOF 1
ENDMDL
MODEL 2
REMARK VINA RESULT: -2.229828029      1.749      3.944
REMARK  1 active torsions:
REMARK  status: ('A' for Active; 'I' for Inactive)
REMARK    1  A    between atoms: C2_2  and  C3_3 
ROOT
HETATM    1  C3  UNL     1      21.645  33.865   5.415  1.00  0.00     0.027 A 
HETATM    2  C4  UNL     1      21.040  34.655   6.385  1.00  0.00     0.118 A 
HETATM    3  N1  UNL     1      21.022  33.979   7.548  1.00  0.00    -0.334 N 
HETATM    4  C5  UNL     1      20.464  34.500   8.784  1.00  0.00     0.158 C 
HETATM    5  C6  UNL     1      21.599  32.780   7.345  1.00  0.00     0.194 A 
HETATM    6  N2  UNL     1      21.787  31.747   8.324  1.00  0.00    -0.063 NA
HETATM    7  N3  UNL     1      21.971  32.727   6.047  1.00  0.00    -0.333 N 
ATOM      8  H3  UNL     1      22.435  31.932   5.608  1.00  0.00     0.168 HD
ENDROOT
BRANCH   1   9
HETATM    9  C2  UNL     1      21.869  34.229   3.986  1.00  0.00     0.054 C 
HETATM   10  C1  UNL     1      22.656  33.207   3.240  1.00  0.00     0.011 C 
ENDBRANCH   1   9
TORSDOF 1
ENDMDL
MODEL 3
REMARK VINA RESULT: -2.058201058      1.118      1.896
REMARK  1 active torsions:
REMARK  status: ('A' for Active; 'I' for Inactive)
REMARK    1  A    between atoms: C2_2  and  C3_3 
ROOT
HETATM    1  C3  UNL     1      21.273  33.403   7.192  1.00  0.00     0.027 A 
HETATM    2  C4  UNL     1      20.167  34.067   6.677  1.00  0.00     0.118 A 
HETATM    3  N1  UNL     1      20.411  34.388   5.393  1.00  0.00    -0.334 N 
HETATM    4  C5  UNL     1      19.471  35.091   4.537  1.00  0.00     0.158 C 
HETATM    5  C6  UNL     1      21.642  33.946   5.077  1.00  0.00     0.194 A 
HETATM    6  N2  UNL     1      22.296  34.079   3.806  1.00  0.00    -0.063 NA
HETATM    7  N3  UNL     1      22.151  33.351   6.178  1.00  0.00    -0.333 N 
ATOM      8  H3  UNL     1      23.074  32.921   6.233  1.00  0.00     0.168 HD
ENDROOT
BRANCH   1   9
HETATM    9  C2  UNL     1      21.425  32.873   8.578  1.00  0.00     0.054 C 
HETATM   10  C1  UNL     1      22.817  32.445   8.890  1.00  0.00     0.011 C 
ENDBRANCH   1   9
TORSDOF 1
ENDMDL
MODEL 4
REMARK VINA RESULT: -1.771279044      1.236      3.577
REMARK  1 active torsions:
REMARK  status: ('A' for Active; 'I' for Inactive)
REMARK    1  A    between atoms: C2_2  and  C3_3 
ROOT
HETATM    1  C3  UNL     1      21.498  33.900   5.633  1.00  0.00     0.027 A 
HETATM    2  C4  UNL     1      22.416  33.335   6.509  1.00  0.00     0.118 A 
HETATM    3  N1  UNL     1      21.794  33.052   7.668  1.00  0.00    -0.334 N 
HETATM    4  C5  UNL     1      22.449  32.449   8.817  1.00  0.00     0.158 C 
HETATM    5  C6  UNL     1      20.505  33.420   7.553  1.00  0.00     0.194 A 
HETATM    6  N2  UNL     1      19.489  33.293   8.560  1.00  0.00    -0.063 NA
HETATM    7  N3  UNL     1      20.342  33.932   6.314  1.00  0.00    -0.333 N 
ATOM      8  H3  UNL     1      19.462  34.294   5.946  1.00  0.00     0.168 HD
ENDROOT
BRANCH   1   9
HETATM    9  C2  UNL     1      21.767  34.362   4.240  1.00  0.00     0.054 C 
HETATM   10  C1  UNL     1      22.591  33.401   3.455  1.00  0.00     0.011 C 
ENDBRANCH   1   9
TORSDOF 1
ENDMDL
MODEL 5
REMARK VINA RESULT: -0.950541621      7.584      9.167
REMARK  1 active torsions:
REMARK  status: ('A' for Active; 'I' for Inactive)
REMARK    1  A    between atoms: C2_2  and  C3_3 
ROOT
HETATM    1  C3  UNL     1      17.322  36.652  13.179  1.00  0.00     0.027 A 
HETATM    2  C4  UNL     1      16.676  36.350  14.371  1.00  0.00     0.118 A 
HETATM    3  N1  UNL     1      15.631  35.544  14.107  1.00  0.00    -0.334 N 
HETATM    4  C5  UNL     1      14.727  35.025  15.119  1.00  0.00     0.158 C 
HETATM    5  C6  UNL     1      15.596  35.324  12.780  1.00  0.00     0.194 A 
HETATM    6  N2  UNL     1      14.641  34.518  12.074  1.00  0.00    -0.063 NA
HETATM    7  N3  UNL     1      16.628  36.003  12.232  1.00  0.00    -0.333 N 
ATOM      8  H3  UNL     1      16.849  36.020  11.237  1.00  0.00     0.168 HD
ENDROOT
BRANCH   1   9
HETATM    9  C2  UNL     1      18.528  37.516  13.017  1.00  0.00     0.054 C 
HETATM   10  C1  UNL     1      19.357  37.144  11.837  1.00  0.00     0.011 C 
ENDBRANCH   1   9
TORSDOF 1
ENDMDL
