MODEL 1
REMARK VINA RESULT: -1.344206283      0.000      0.000
REMARK  2 active torsions:
REMARK  status: ('A' for Active; 'I' for Inactive)
REMARK    1  A    between atoms: C3_4  and  C4_5 
REMARK    2  A    between atoms: C4_5  and  N2_6 
ROOT
HETATM    1  C1  UNL     1      14.025  34.525  15.170  1.00  0.00     0.177 C 
HETATM    2  N1  UNL     1      14.960  34.991  14.163  1.00  0.00    -0.308 N 
HETATM    3  C2  UNL     1      16.057  35.740  14.389  1.00  0.00     0.119 A 
HETATM    4  C3  UNL     1      16.683  35.977  13.190  1.00  0.00     0.001 A 
HETATM    5  C5  UNL     1      15.930  35.346  12.223  1.00  0.00     0.117 A 
HETATM    6  N3  UNL     1      14.883  34.755  12.862  1.00  0.00    -0.310 N 
ATOM      7  H3  UNL     1      14.150  34.211  12.407  1.00  0.00     0.186 HD
ENDROOT
BRANCH   4   8
HETATM    8  C4  UNL     1      17.916  36.751  12.970  1.00  0.00     0.271 C 
BRANCH   8   9
HETATM    9  N2  UNL     1      17.950  37.859  13.846  1.00  0.00    -0.075 N 
ATOM     10  H23 UNL     1      17.467  38.669  13.457  1.00  0.00     0.274 HD
ATOM     11  H22 UNL     1      17.363  37.715  14.668  1.00  0.00     0.274 HD
ATOM     12  H21 UNL     1      18.915  38.074  14.096  1.00  0.00     0.274 HD
ENDBRANCH   8   9
ENDBRANCH   4   8
TORSDOF 2
ENDMDL
MODEL 2
REMARK VINA RESULT: -1.071819094      1.424      3.435
REMARK  2 active torsions:
REMARK  status: ('A' for Active; 'I' for Inactive)
REMARK    1  A    between atoms: C3_4  and  C4_5 
REMARK    2  A    between atoms: C4_5  and  N2_6 
ROOT
HETATM    1  C1  UNL     1      18.508  37.305  13.302  1.00  0.00     0.177 C 
HETATM    2  N1  UNL     1      17.342  36.490  13.017  1.00  0.00    -0.308 N 
HETATM    3  C2  UNL     1      16.445  36.049  13.920  1.00  0.00     0.119 A 
HETATM    4  C3  UNL     1      15.489  35.311  13.267  1.00  0.00     0.001 A 
HETATM    5  C5  UNL     1      15.834  35.316  11.932  1.00  0.00     0.117 A 
HETATM    6  N3  UNL     1      16.975  36.049  11.822  1.00  0.00    -0.310 N 
ATOM      7  H3  UNL     1      17.473  36.232  10.951  1.00  0.00     0.186 HD
ENDROOT
BRANCH   4   8
HETATM    8  C4  UNL     1      14.322  34.641  13.865  1.00  0.00     0.271 C 
BRANCH   8   9
HETATM    9  N2  UNL     1      14.637  34.201  15.170  1.00  0.00    -0.075 N 
ATOM     10  H23 UNL     1      15.641  34.073  15.299  1.00  0.00     0.274 HD
ATOM     11  H22 UNL     1      14.490  34.932  15.866  1.00  0.00     0.274 HD
ATOM     12  H21 UNL     1      14.113  33.354  15.386  1.00  0.00     0.274 HD
ENDBRANCH   8   9
ENDBRANCH   4   8
TORSDOF 2
ENDMDL
MODEL 3
REMARK VINA RESULT: -1.035741249      8.625      8.860
REMARK  2 active torsions:
REMARK  status: ('A' for Active; 'I' for Inactive)
REMARK    1  A    between atoms: C3_4  and  C4_5 
REMARK    2  A    between atoms: C4_5  and  N2_6 
ROOT
HETATM    1  C1  UNL     1      23.313  31.758   9.818  1.00  0.00     0.177 C 
HETATM    2  N1  UNL     1      22.341  32.168   8.822  1.00  0.00    -0.308 N 
HETATM    3  C2  UNL     1      22.122  33.429   8.403  1.00  0.00     0.119 A 
HETATM    4  C3  UNL     1      21.127  33.412   7.457  1.00  0.00     0.001 A 
HETATM    5  C5  UNL     1      20.746  32.095   7.313  1.00  0.00     0.117 A 
HETATM    6  N3  UNL     1      21.513  31.366   8.167  1.00  0.00    -0.310 N 
ATOM      7  H3  UNL     1      21.460  30.355   8.286  1.00  0.00     0.186 HD
ENDROOT
BRANCH   4   8
HETATM    8  C4  UNL     1      20.570  34.568   6.733  1.00  0.00     0.271 C 
BRANCH   8   9
HETATM    9  N2  UNL     1      20.468  34.268   5.356  1.00  0.00    -0.075 N 
ATOM     10  H23 UNL     1      21.272  33.739   5.019  1.00  0.00     0.274 HD
ATOM     11  H22 UNL     1      19.744  33.574   5.169  1.00  0.00     0.274 HD
ATOM     12  H21 UNL     1      20.323  35.126   4.825  1.00  0.00     0.274 HD
ENDBRANCH   8   9
ENDBRANCH   4   8
TORSDOF 2
ENDMDL
MODEL 4
REMARK VINA RESULT: -0.465329946      1.362      3.797
REMARK  2 active torsions:
REMARK  status: ('A' for Active; 'I' for Inactive)
REMARK    1  A    between atoms: C3_4  and  C4_5 
REMARK    2  A    between atoms: C4_5  and  N2_6 
ROOT
HETATM    1  C1  UNL     1      18.527  37.123  12.555  1.00  0.00     0.177 C 
HETATM    2  N1  UNL     1      17.357  36.642  13.266  1.00  0.00    -0.308 N 
HETATM    3  C2  UNL     1      16.529  35.662  12.855  1.00  0.00     0.119 A 
HETATM    4  C3  UNL     1      15.543  35.496  13.795  1.00  0.00     0.001 A 
HETATM    5  C5  UNL     1      15.797  36.409  14.796  1.00  0.00     0.117 A 
HETATM    6  N3  UNL     1      16.917  37.091  14.432  1.00  0.00    -0.310 N 
ATOM      7  H3  UNL     1      17.352  37.836  14.976  1.00  0.00     0.186 HD
ENDROOT
BRANCH   4   8
HETATM    8  C4  UNL     1      14.428  34.534  13.752  1.00  0.00     0.271 C 
BRANCH   8   9
HETATM    9  N2  UNL     1      14.024  34.209  15.066  1.00  0.00    -0.075 N 
ATOM     10  H23 UNL     1      13.013  34.278  15.183  1.00  0.00     0.274 HD
ATOM     11  H22 UNL     1      14.129  33.214  15.264  1.00  0.00     0.274 HD
ATOM     12  H21 UNL     1      14.527  34.789  15.737  1.00  0.00     0.274 HD
ENDBRANCH   8   9
ENDBRANCH   4   8
TORSDOF 2
ENDMDL
MODEL 5
REMARK VINA RESULT: -0.389830630      7.991      8.932
REMARK  2 active torsions:
REMARK  status: ('A' for Active; 'I' for Inactive)
REMARK    1  A    between atoms: C3_4  and  C4_5 
REMARK    2  A    between atoms: C4_5  and  N2_6 
ROOT
HETATM    1  C1  UNL     1      22.727  31.541   9.063  1.00  0.00     0.177 C 
HETATM    2  N1  UNL     1      21.980  32.605   8.418  1.00  0.00    -0.308 N 
HETATM    3  C2  UNL     1      21.334  32.516   7.240  1.00  0.00     0.119 A 
HETATM    4  C3  UNL     1      20.748  33.727   6.965  1.00  0.00     0.001 A 
HETATM    5  C5  UNL     1      21.058  34.560   8.019  1.00  0.00     0.117 A 
HETATM    6  N3  UNL     1      21.815  33.833   8.887  1.00  0.00    -0.310 N 
ATOM      7  H3  UNL     1      22.197  34.182   9.766  1.00  0.00     0.186 HD
ENDROOT
BRANCH   4   8
HETATM    8  C4  UNL     1      19.944  34.077   5.782  1.00  0.00     0.271 C 
BRANCH   8   9
HETATM    9  N2  UNL     1      20.776  34.156   4.643  1.00  0.00    -0.075 N 
ATOM     10  H23 UNL     1      20.658  35.037   4.143  1.00  0.00     0.274 HD
ATOM     11  H22 UNL     1      21.760  34.257   4.894  1.00  0.00     0.274 HD
ATOM     12  H21 UNL     1      20.615  33.350   4.040  1.00  0.00     0.274 HD
ENDBRANCH   8   9
ENDBRANCH   4   8
TORSDOF 2
ENDMDL
