MODEL 1
REMARK VINA RESULT: -2.455244214      0.000      0.000
REMARK  2 active torsions:
REMARK  status: ('A' for Active; 'I' for Inactive)
REMARK    1  A    between atoms: N1_1  and  N2_4 
REMARK    2  A    between atoms: C1_6  and  N3_7 
ROOT
HETATM    1  N3  UNL     1      15.898  35.653  13.601  1.00  0.00    -0.312 N 
HETATM    2  C2  UNL     1      15.655  35.667  14.913  1.00  0.00     0.115 A 
HETATM    3  C3  UNL     1      14.512  34.899  15.170  1.00  0.00     0.106 A 
HETATM    4  N4  UNL     1      14.101  34.443  13.993  1.00  0.00    -0.360 N 
ATOM      5  H4  UNL     1      13.288  33.848  13.834  1.00  0.00     0.166 HD
HETATM    6  C4  UNL     1      14.943  34.902  13.044  1.00  0.00     0.188 A 
ENDROOT
BRANCH   1   7
HETATM    7  C1  UNL     1      16.954  36.304  12.944  1.00  0.00     0.204 C 
HETATM    8  N2  UNL     1      17.922  36.899  13.570  1.00  0.00    -0.302 N 
ATOM      9  H2  UNL     1      17.915  36.895  14.590  1.00  0.00     0.187 HD
BRANCH   8  10
HETATM   10  N1  UNL     1      18.963  37.540  12.919  1.00  0.00    -0.344 N 
ATOM     11  H12 UNL     1      19.497  38.226  13.451  1.00  0.00     0.176 HD
ATOM     12  H11 UNL     1      19.210  37.355  11.947  1.00  0.00     0.176 HD
ENDBRANCH   8  10
ENDBRANCH   1   7
TORSDOF 2
ENDMDL
MODEL 2
REMARK VINA RESULT: -2.320176840      8.653      9.129
REMARK  2 active torsions:
REMARK  status: ('A' for Active; 'I' for Inactive)
REMARK    1  A    between atoms: N1_1  and  N2_4 
REMARK    2  A    between atoms: C1_6  and  N3_7 
ROOT
HETATM    1  N3  UNL     1      21.266  33.031   7.661  1.00  0.00    -0.312 N 
HETATM    2  C2  UNL     1      22.223  33.497   8.465  1.00  0.00     0.115 A 
HETATM    3  C3  UNL     1      22.835  32.417   9.113  1.00  0.00     0.106 A 
HETATM    4  N4  UNL     1      22.221  31.326   8.673  1.00  0.00    -0.360 N 
ATOM      5  H4  UNL     1      22.432  30.368   8.952  1.00  0.00     0.166 HD
HETATM    6  C4  UNL     1      21.270  31.701   7.793  1.00  0.00     0.188 A 
ENDROOT
BRANCH   1   7
HETATM    7  C1  UNL     1      20.423  33.798   6.840  1.00  0.00     0.204 C 
HETATM    8  N2  UNL     1      20.514  33.815   5.546  1.00  0.00    -0.302 N 
ATOM      9  H2  UNL     1      21.234  33.244   5.103  1.00  0.00     0.187 HD
BRANCH   8  10
HETATM   10  N1  UNL     1      19.681  34.572   4.739  1.00  0.00    -0.344 N 
ATOM     11  H12 UNL     1      18.746  34.776   5.091  1.00  0.00     0.176 HD
ATOM     12  H11 UNL     1      19.963  34.925   3.824  1.00  0.00     0.176 HD
ENDBRANCH   8  10
ENDBRANCH   1   7
TORSDOF 2
ENDMDL
MODEL 3
REMARK VINA RESULT: -1.932592045      0.669      1.262
REMARK  2 active torsions:
REMARK  status: ('A' for Active; 'I' for Inactive)
REMARK    1  A    between atoms: N1_1  and  N2_4 
REMARK    2  A    between atoms: C1_6  and  N3_7 
ROOT
HETATM    1  N3  UNL     1      15.888  35.604  13.623  1.00  0.00    -0.312 N 
HETATM    2  C2  UNL     1      14.947  34.863  13.035  1.00  0.00     0.115 A 
HETATM    3  C3  UNL     1      14.058  34.399  14.014  1.00  0.00     0.106 A 
HETATM    4  N4  UNL     1      14.497  34.882  15.170  1.00  0.00    -0.360 N 
ATOM      5  H4  UNL     1      14.069  34.728  16.083  1.00  0.00     0.166 HD
HETATM    6  C4  UNL     1      15.606  35.612  14.930  1.00  0.00     0.188 A 
ENDROOT
BRANCH   1   7
HETATM    7  C1  UNL     1      16.960  36.246  12.984  1.00  0.00     0.204 C 
HETATM    8  N2  UNL     1      17.819  36.988  13.611  1.00  0.00    -0.302 N 
ATOM      9  H2  UNL     1      17.711  37.113  14.618  1.00  0.00     0.187 HD
BRANCH   8  10
HETATM   10  N1  UNL     1      18.877  37.620  12.978  1.00  0.00    -0.344 N 
ATOM     11  H12 UNL     1      18.776  37.822  11.983  1.00  0.00     0.176 HD
ATOM     12  H11 UNL     1      19.736  37.886  13.459  1.00  0.00     0.176 HD
ENDBRANCH   8  10
ENDBRANCH   1   7
TORSDOF 2
ENDMDL
MODEL 4
REMARK VINA RESULT: -1.793476370      8.541      9.152
REMARK  2 active torsions:
REMARK  status: ('A' for Active; 'I' for Inactive)
REMARK    1  A    between atoms: N1_1  and  N2_4 
REMARK    2  A    between atoms: C1_6  and  N3_7 
ROOT
HETATM    1  N3  UNL     1      21.255  33.202   7.684  1.00  0.00    -0.312 N 
HETATM    2  C2  UNL     1      21.448  31.894   7.866  1.00  0.00     0.115 A 
HETATM    3  C3  UNL     1      22.464  31.714   8.814  1.00  0.00     0.106 A 
HETATM    4  N4  UNL     1      22.851  32.931   9.175  1.00  0.00    -0.360 N 
ATOM      5  H4  UNL     1      23.580  33.148   9.855  1.00  0.00     0.166 HD
HETATM    6  C4  UNL     1      22.117  33.830   8.489  1.00  0.00     0.188 A 
ENDROOT
BRANCH   1   7
HETATM    7  C1  UNL     1      20.324  33.791   6.814  1.00  0.00     0.204 C 
HETATM    8  N2  UNL     1      20.499  33.864   5.530  1.00  0.00    -0.302 N 
ATOM      9  H2  UNL     1      21.354  33.475   5.133  1.00  0.00     0.187 HD
BRANCH   8  10
HETATM   10  N1  UNL     1      19.578  34.446   4.674  1.00  0.00    -0.344 N 
ATOM     11  H12 UNL     1      18.814  34.973   5.095  1.00  0.00     0.176 HD
ATOM     12  H11 UNL     1      19.635  34.368   3.658  1.00  0.00     0.176 HD
ENDBRANCH   8  10
ENDBRANCH   1   7
TORSDOF 2
ENDMDL
MODEL 5
REMARK VINA RESULT: -1.602321369      7.553      8.718
REMARK  2 active torsions:
REMARK  status: ('A' for Active; 'I' for Inactive)
REMARK    1  A    between atoms: N1_1  and  N2_4 
REMARK    2  A    between atoms: C1_6  and  N3_7 
ROOT
HETATM    1  N3  UNL     1      20.514  32.543   8.260  1.00  0.00    -0.312 N 
HETATM    2  C2  UNL     1      21.600  31.771   8.331  1.00  0.00     0.115 A 
HETATM    3  C3  UNL     1      22.730  32.589   8.456  1.00  0.00     0.106 A 
HETATM    4  N4  UNL     1      22.283  33.839   8.457  1.00  0.00    -0.360 N 
ATOM      5  H4  UNL     1      22.857  34.679   8.534  1.00  0.00     0.166 HD
HETATM    6  C4  UNL     1      20.940  33.808   8.337  1.00  0.00     0.188 A 
ENDROOT
BRANCH   1   7
HETATM    7  C1  UNL     1      19.188  32.102   8.129  1.00  0.00     0.204 C 
HETATM    8  N2  UNL     1      18.783  30.938   8.534  1.00  0.00    -0.302 N 
ATOM      9  H2  UNL     1      19.461  30.312   8.969  1.00  0.00     0.187 HD
BRANCH   8  10
HETATM   10  N1  UNL     1      17.473  30.506   8.404  1.00  0.00    -0.344 N 
ATOM     11  H12 UNL     1      16.865  31.033   7.778  1.00  0.00     0.176 HD
ATOM     12  H11 UNL     1      17.101  29.697   8.902  1.00  0.00     0.176 HD
ENDBRANCH   8  10
ENDBRANCH   1   7
TORSDOF 2
ENDMDL
