MODEL 1
REMARK VINA RESULT: -0.709292247      0.000      0.000
REMARK  2 active torsions:
REMARK  status: ('A' for Active; 'I' for Inactive)
REMARK    1  A    between atoms: C4_7  and  C5_8 
REMARK    2  A    between atoms: C5_8  and  N3_9 
ROOT
HETATM    1  C1  UNL     1      15.900  35.281  11.612  1.00  0.00     0.177 C 
HETATM    2  N1  UNL     1      15.553  35.253  13.040  1.00  0.00    -0.299 N 
HETATM    3  N2  UNL     1      14.712  34.448  13.654  1.00  0.00    -0.310 N 
ATOM      4  H2  UNL     1      14.173  33.713  13.198  1.00  0.00     0.186 HD
HETATM    5  C2  UNL     1      14.665  34.732  14.964  1.00  0.00     0.109 A 
HETATM    6  C3  UNL     1      15.534  35.781  15.170  1.00  0.00     0.047 A 
HETATM    7  C4  UNL     1      16.078  36.090  13.946  1.00  0.00     0.054 A 
ENDROOT
BRANCH   7   8
HETATM    8  C5  UNL     1      17.068  37.152  13.670  1.00  0.00     0.288 C 
BRANCH   8   9
HETATM    9  N3  UNL     1      18.397  36.600  13.409  1.00  0.00    -0.074 N 
ATOM     10  H33 UNL     1      18.350  35.801  12.776  1.00  0.00     0.274 HD
ATOM     11  H32 UNL     1      18.954  37.229  12.831  1.00  0.00     0.274 HD
ATOM     12  H31 UNL     1      18.884  36.362  14.274  1.00  0.00     0.274 HD
ENDBRANCH   8   9
ENDBRANCH   7   8
TORSDOF 2
ENDMDL
MODEL 2
REMARK VINA RESULT: -0.291119617      7.802      8.593
REMARK  2 active torsions:
REMARK  status: ('A' for Active; 'I' for Inactive)
REMARK    1  A    between atoms: C4_7  and  C5_8 
REMARK    2  A    between atoms: C5_8  and  N3_9 
ROOT
HETATM    1  C1  UNL     1      19.211  31.938   8.142  1.00  0.00     0.177 C 
HETATM    2  N1  UNL     1      20.648  32.205   8.302  1.00  0.00    -0.299 N 
HETATM    3  N2  UNL     1      21.551  31.452   8.890  1.00  0.00    -0.310 N 
ATOM      4  H2  UNL     1      21.361  30.550   9.328  1.00  0.00     0.186 HD
HETATM    5  C2  UNL     1      22.757  32.036   8.834  1.00  0.00     0.109 A 
HETATM    6  C3  UNL     1      22.584  33.228   8.166  1.00  0.00     0.047 A 
HETATM    7  C4  UNL     1      21.250  33.311   7.843  1.00  0.00     0.054 A 
ENDROOT
BRANCH   7   8
HETATM    8  C5  UNL     1      20.591  34.418   7.119  1.00  0.00     0.288 C 
BRANCH   8   9
HETATM    9  N3  UNL     1      20.550  34.174   5.678  1.00  0.00    -0.074 N 
ATOM     10  H33 UNL     1      20.903  33.244   5.448  1.00  0.00     0.274 HD
ATOM     11  H32 UNL     1      19.592  34.068   5.346  1.00  0.00     0.274 HD
ATOM     12  H31 UNL     1      21.046  34.899   5.157  1.00  0.00     0.274 HD
ENDBRANCH   8   9
ENDBRANCH   7   8
TORSDOF 2
ENDMDL
MODEL 3
REMARK VINA RESULT: -0.100248968      1.208      3.193
REMARK  2 active torsions:
REMARK  status: ('A' for Active; 'I' for Inactive)
REMARK    1  A    between atoms: C4_7  and  C5_8 
REMARK    2  A    between atoms: C5_8  and  N3_9 
ROOT
HETATM    1  C1  UNL     1      17.544  37.156  14.037  1.00  0.00     0.177 C 
HETATM    2  N1  UNL     1      16.739  36.287  13.166  1.00  0.00    -0.299 N 
HETATM    3  N2  UNL     1      16.797  36.174  11.857  1.00  0.00    -0.310 N 
ATOM      4  H2  UNL     1      17.435  36.696  11.256  1.00  0.00     0.186 HD
HETATM    5  C2  UNL     1      15.901  35.276  11.423  1.00  0.00     0.109 A 
HETATM    6  C3  UNL     1      15.247  34.805  12.540  1.00  0.00     0.047 A 
HETATM    7  C4  UNL     1      15.791  35.456  13.622  1.00  0.00     0.054 A 
ENDROOT
BRANCH   7   8
HETATM    8  C5  UNL     1      15.407  35.276  15.037  1.00  0.00     0.288 C 
BRANCH   8   9
HETATM    9  N3  UNL     1      14.170  34.507  15.170  1.00  0.00    -0.074 N 
ATOM     10  H33 UNL     1      13.523  34.953  15.821  1.00  0.00     0.274 HD
ATOM     11  H32 UNL     1      13.607  34.560  14.322  1.00  0.00     0.274 HD
ATOM     12  H31 UNL     1      14.354  33.538  15.434  1.00  0.00     0.274 HD
ENDBRANCH   8   9
ENDBRANCH   7   8
TORSDOF 2
ENDMDL
MODEL 4
REMARK VINA RESULT: 0.603361502      1.055      2.894
REMARK  2 active torsions:
REMARK  status: ('A' for Active; 'I' for Inactive)
REMARK    1  A    between atoms: C4_7  and  C5_8 
REMARK    2  A    between atoms: C5_8  and  N3_9 
ROOT
HETATM    1  C1  UNL     1      15.841  35.103  11.195  1.00  0.00     0.177 C 
HETATM    2  N1  UNL     1      16.206  35.687  12.494  1.00  0.00    -0.299 N 
HETATM    3  N2  UNL     1      17.196  36.511  12.762  1.00  0.00    -0.310 N 
ATOM      4  H2  UNL     1      17.862  36.863  12.074  1.00  0.00     0.186 HD
HETATM    5  C2  UNL     1      17.206  36.823  14.066  1.00  0.00     0.109 A 
HETATM    6  C3  UNL     1      16.151  36.146  14.639  1.00  0.00     0.047 A 
HETATM    7  C4  UNL     1      15.540  35.439  13.631  1.00  0.00     0.054 A 
ENDROOT
BRANCH   7   8
HETATM    8  C5  UNL     1      14.358  34.562  13.767  1.00  0.00     0.288 C 
BRANCH   8   9
HETATM    9  N3  UNL     1      14.048  34.286  15.169  1.00  0.00    -0.074 N 
ATOM     10  H33 UNL     1      13.514  35.048  15.589  1.00  0.00     0.274 HD
ATOM     11  H32 UNL     1      13.358  33.540  15.257  1.00  0.00     0.274 HD
ATOM     12  H31 UNL     1      14.888  34.079  15.709  1.00  0.00     0.274 HD
ENDBRANCH   8   9
ENDBRANCH   7   8
TORSDOF 2
ENDMDL
MODEL 5
REMARK VINA RESULT: 0.715339974      7.854      8.754
REMARK  2 active torsions:
REMARK  status: ('A' for Active; 'I' for Inactive)
REMARK    1  A    between atoms: C4_7  and  C5_8 
REMARK    2  A    between atoms: C5_8  and  N3_9 
ROOT
HETATM    1  C1  UNL     1      23.044  31.768   9.206  1.00  0.00     0.177 C 
HETATM    2  N1  UNL     1      22.078  32.679   8.575  1.00  0.00    -0.299 N 
HETATM    3  N2  UNL     1      22.183  33.979   8.402  1.00  0.00    -0.310 N 
ATOM      4  H2  UNL     1      22.981  34.542   8.695  1.00  0.00     0.186 HD
HETATM    5  C2  UNL     1      21.093  34.459   7.785  1.00  0.00     0.109 A 
HETATM    6  C3  UNL     1      20.262  33.383   7.564  1.00  0.00     0.047 A 
HETATM    7  C4  UNL     1      20.903  32.277   8.070  1.00  0.00     0.054 A 
ENDROOT
BRANCH   7   8
HETATM    8  C5  UNL     1      20.395  30.889   8.061  1.00  0.00     0.288 C 
BRANCH   8   9
HETATM    9  N3  UNL     1      18.993  30.823   8.471  1.00  0.00    -0.074 N 
ATOM     10  H33 UNL     1      18.813  31.421   9.279  1.00  0.00     0.274 HD
ATOM     11  H32 UNL     1      18.385  31.282   7.793  1.00  0.00     0.274 HD
ATOM     12  H31 UNL     1      18.696  29.862   8.646  1.00  0.00     0.274 HD
ENDBRANCH   8   9
ENDBRANCH   7   8
TORSDOF 2
ENDMDL
