MODEL 1
REMARK VINA RESULT: -8.547869345      0.000      0.000
REMARK  9 active torsions:
REMARK  status: ('A' for Active; 'I' for Inactive)
REMARK    1  A    between atoms: C1_4  and  N2_5 
REMARK    2  A    between atoms: C4_12  and  O1_13 
REMARK    3  A    between atoms: C5_15  and  N5_16 
REMARK    4  A    between atoms: N6_21  and  C7_22 
REMARK    5  A    between atoms: C9_24  and  N7_25 
REMARK    6  A    between atoms: N7_25  and  C10_27 
REMARK    7  A    between atoms: C10_27  and  C11_28 
REMARK    8  A    between atoms: C11_28  and  O2_29 
REMARK    9  A    between atoms: C12_33  and  N9_34 
ROOT
HETATM    1  N2  UNL     1     -19.353  -7.688  20.449  1.00  0.00    -0.237 N 
HETATM    2  N3  UNL     1     -19.045  -8.853  19.900  1.00  0.00    -0.235 N 
ATOM      3  H3  UNL     1     -19.671  -9.402  19.310  1.00  0.00     0.209 HD
HETATM    4  N4  UNL     1     -17.823  -9.200  20.222  1.00  0.00    -0.286 N 
ATOM      5  H4  UNL     1     -17.345 -10.052  19.930  1.00  0.00     0.188 HD
HETATM    6  C2  UNL     1     -17.316  -8.243  20.999  1.00  0.00     0.072 A 
HETATM    7  C3  UNL     1     -18.283  -7.279  21.148  1.00  0.00     0.093 A 
HETATM    8  C4  UNL     1     -18.251  -6.021  21.897  1.00  0.00     0.204 C 
HETATM    9  C5  UNL     1     -17.714  -6.082  23.278  1.00  0.00     0.236 C 
HETATM   10  C6  UNL     1     -17.104  -7.368  23.711  1.00  0.00     0.160 C 
HETATM   11  N6  UNL     1     -15.957  -7.767  22.932  1.00  0.00    -0.359 N 
HETATM   12  C13 UNL     1     -15.938  -8.253  21.578  1.00  0.00     0.185 C 
ENDROOT
BRANCH  11  13
HETATM   13  C7  UNL     1     -14.677  -7.708  23.525  1.00  0.00     0.123 A 
HETATM   14  C8  UNL     1     -14.262  -8.476  24.578  1.00  0.00     0.097 A 
HETATM   15  C9  UNL     1     -12.970  -8.383  25.120  1.00  0.00     0.120 A 
HETATM   16  N8  UNL     1     -12.121  -7.516  24.589  1.00  0.00    -0.177 N 
HETATM   17  C12 UNL     1     -12.545  -6.748  23.534  1.00  0.00     0.679 A 
ATOM     18  H8  UNL     1     -11.174  -7.421  24.956  1.00  0.00     0.185 HD
HETATM   19  N10 UNL     1     -13.778  -6.846  23.025  1.00  0.00    -0.177 N 
ATOM     20  H10 UNL     1     -14.041  -6.252  22.240  1.00  0.00     0.185 HD
BRANCH  15  21
HETATM   21  N7  UNL     1     -12.666  -9.132  26.097  1.00  0.00    -0.374 N 
ATOM     22  H7  UNL     1     -12.333 -10.070  25.873  1.00  0.00     0.161 HD
BRANCH  21  23
HETATM   23  C10 UNL     1     -12.744  -8.792  27.471  1.00  0.00     0.147 C 
BRANCH  23  24
HETATM   24  C11 UNL     1     -13.946  -9.485  28.108  1.00  0.00     0.183 C 
BRANCH  24  25
HETATM   25  O2  UNL     1     -14.929  -8.516  28.254  1.00  0.00    -0.399 OA
ATOM     26  H2  UNL     1     -15.669  -8.943  28.669  1.00  0.00     0.209 HD
ENDBRANCH  24  25
ENDBRANCH  23  24
ENDBRANCH  21  23
ENDBRANCH  15  21
BRANCH  17  27
HETATM   27  N9  UNL     1     -11.660  -5.909  23.068  1.00  0.00    -0.234 N 
ATOM     28  H92 UNL     1     -10.907  -6.198  22.442  1.00  0.00     0.174 HD
ATOM     29  H91 UNL     1     -11.779  -4.942  23.368  1.00  0.00     0.174 HD
ENDBRANCH  17  27
ENDBRANCH  11  13
BRANCH   9  30
HETATM   30  N5  UNL     1     -18.814  -5.748  24.194  1.00  0.00    -0.071 N 
ATOM     31  H53 UNL     1     -18.922  -4.745  24.337  1.00  0.00     0.274 HD
ATOM     32  H52 UNL     1     -19.734  -5.926  23.791  1.00  0.00     0.274 HD
ATOM     33  H51 UNL     1     -18.654  -6.259  25.062  1.00  0.00     0.274 HD
ENDBRANCH   9  30
BRANCH   8  34
HETATM   34  O1  UNL     1     -17.464  -5.093  21.174  1.00  0.00    -0.387 OA
ATOM     35  H1  UNL     1     -18.047  -4.500  20.716  1.00  0.00     0.210 HD
ENDBRANCH   8  34
BRANCH   1  36
HETATM   36  C1  UNL     1     -20.632  -7.037  20.278  1.00  0.00     0.201 C 
HETATM   37  N1  UNL     1     -21.487  -7.254  21.230  1.00  0.00    -0.394 N 
ATOM     38  H12 UNL     1     -21.258  -7.842  22.031  1.00  0.00     0.156 HD
ATOM     39  H11 UNL     1     -22.390  -6.794  21.109  1.00  0.00     0.156 HD
ENDBRANCH   1  36
TORSDOF 9
ENDMDL
MODEL 2
REMARK VINA RESULT: -8.301823918      1.405      2.490
REMARK  9 active torsions:
REMARK  status: ('A' for Active; 'I' for Inactive)
REMARK    1  A    between atoms: C1_4  and  N2_5 
REMARK    2  A    between atoms: C4_12  and  O1_13 
REMARK    3  A    between atoms: C5_15  and  N5_16 
REMARK    4  A    between atoms: N6_21  and  C7_22 
REMARK    5  A    between atoms: C9_24  and  N7_25 
REMARK    6  A    between atoms: N7_25  and  C10_27 
REMARK    7  A    between atoms: C10_27  and  C11_28 
REMARK    8  A    between atoms: C11_28  and  O2_29 
REMARK    9  A    between atoms: C12_33  and  N9_34 
ROOT
HETATM    1  N2  UNL     1     -19.920  -5.610  21.188  1.00  0.00    -0.237 N 
HETATM    2  N3  UNL     1     -19.782  -4.347  21.564  1.00  0.00    -0.235 N 
ATOM      3  H3  UNL     1     -20.405  -3.587  21.294  1.00  0.00     0.209 HD
HETATM    4  N4  UNL     1     -18.729  -4.213  22.333  1.00  0.00    -0.286 N 
ATOM      5  H4  UNL     1     -18.400  -3.345  22.755  1.00  0.00     0.188 HD
HETATM    6  C2  UNL     1     -18.163  -5.413  22.466  1.00  0.00     0.072 A 
HETATM    7  C3  UNL     1     -18.915  -6.305  21.741  1.00  0.00     0.093 A 
HETATM    8  C4  UNL     1     -18.739  -7.746  21.548  1.00  0.00     0.204 C 
HETATM    9  C5  UNL     1     -17.371  -8.211  21.215  1.00  0.00     0.236 C 
HETATM   10  C6  UNL     1     -16.280  -7.202  21.276  1.00  0.00     0.160 C 
HETATM   11  N6  UNL     1     -16.084  -6.626  22.584  1.00  0.00    -0.359 N 
HETATM   12  C13 UNL     1     -16.936  -5.695  23.274  1.00  0.00     0.185 C 
ENDROOT
BRANCH  11  13
HETATM   13  C7  UNL     1     -14.924  -6.971  23.314  1.00  0.00     0.123 A 
HETATM   14  C8  UNL     1     -14.889  -7.849  24.362  1.00  0.00     0.097 A 
HETATM   15  C9  UNL     1     -13.702  -8.164  25.044  1.00  0.00     0.120 A 
HETATM   16  N8  UNL     1     -12.576  -7.586  24.657  1.00  0.00    -0.177 N 
HETATM   17  C12 UNL     1     -12.620  -6.706  23.605  1.00  0.00     0.679 A 
ATOM     18  H8  UNL     1     -11.695  -7.791  25.128  1.00  0.00     0.185 HD
HETATM   19  N10 UNL     1     -13.756  -6.414  22.962  1.00  0.00    -0.177 N 
ATOM     20  H10 UNL     1     -13.733  -5.753  22.186  1.00  0.00     0.185 HD
BRANCH  15  21
HETATM   21  N7  UNL     1     -13.756  -8.989  26.006  1.00  0.00    -0.374 N 
ATOM     22  H7  UNL     1     -14.244  -9.867  25.834  1.00  0.00     0.161 HD
BRANCH  21  23
HETATM   23  C10 UNL     1     -13.202  -8.807  27.299  1.00  0.00     0.147 C 
BRANCH  23  24
HETATM   24  C11 UNL     1     -14.119  -9.433  28.347  1.00  0.00     0.183 C 
BRANCH  24  25
HETATM   25  O2  UNL     1     -14.965  -8.424  28.784  1.00  0.00    -0.399 OA
ATOM     26  H2  UNL     1     -14.462  -7.893  29.390  1.00  0.00     0.209 HD
ENDBRANCH  24  25
ENDBRANCH  23  24
ENDBRANCH  21  23
ENDBRANCH  15  21
BRANCH  17  27
HETATM   27  N9  UNL     1     -11.475  -6.167  23.284  1.00  0.00    -0.234 N 
ATOM     28  H92 UNL     1     -11.318  -5.160  23.306  1.00  0.00     0.174 HD
ATOM     29  H91 UNL     1     -10.745  -6.827  23.016  1.00  0.00     0.174 HD
ENDBRANCH  17  27
ENDBRANCH  11  13
BRANCH   9  30
HETATM   30  N5  UNL     1     -17.415  -8.777  19.859  1.00  0.00    -0.071 N 
ATOM     31  H53 UNL     1     -18.345  -9.102  19.594  1.00  0.00     0.274 HD
ATOM     32  H52 UNL     1     -17.308  -8.071  19.130  1.00  0.00     0.274 HD
ATOM     33  H51 UNL     1     -16.708  -9.510  19.810  1.00  0.00     0.274 HD
ENDBRANCH   9  30
BRANCH   8  34
HETATM   34  O1  UNL     1     -19.136  -8.406  22.735  1.00  0.00    -0.387 OA
ATOM     35  H1  UNL     1     -18.446  -8.302  23.380  1.00  0.00     0.210 HD
ENDBRANCH   8  34
BRANCH   1  36
HETATM   36  C1  UNL     1     -20.990  -6.077  20.336  1.00  0.00     0.201 C 
HETATM   37  N1  UNL     1     -22.061  -6.458  20.962  1.00  0.00    -0.394 N 
ATOM     38  H12 UNL     1     -22.126  -6.424  21.979  1.00  0.00     0.156 HD
ATOM     39  H11 UNL     1     -22.816  -6.787  20.361  1.00  0.00     0.156 HD
ENDBRANCH   1  36
TORSDOF 9
ENDMDL
MODEL 3
REMARK VINA RESULT: -8.132571540      2.779      4.421
REMARK  9 active torsions:
REMARK  status: ('A' for Active; 'I' for Inactive)
REMARK    1  A    between atoms: C1_4  and  N2_5 
REMARK    2  A    between atoms: C4_12  and  O1_13 
REMARK    3  A    between atoms: C5_15  and  N5_16 
REMARK    4  A    between atoms: N6_21  and  C7_22 
REMARK    5  A    between atoms: C9_24  and  N7_25 
REMARK    6  A    between atoms: N7_25  and  C10_27 
REMARK    7  A    between atoms: C10_27  and  C11_28 
REMARK    8  A    between atoms: C11_28  and  O2_29 
REMARK    9  A    between atoms: C12_33  and  N9_34 
ROOT
HETATM    1  N2  UNL     1     -21.502  -4.661  24.643  1.00  0.00    -0.237 N 
HETATM    2  N3  UNL     1     -21.948  -5.795  25.161  1.00  0.00    -0.235 N 
ATOM      3  H3  UNL     1     -22.777  -5.881  25.748  1.00  0.00     0.209 HD
HETATM    4  N4  UNL     1     -21.172  -6.792  24.812  1.00  0.00    -0.286 N 
ATOM      5  H4  UNL     1     -21.293  -7.769  25.078  1.00  0.00     0.188 HD
HETATM    6  C2  UNL     1     -20.194  -6.303  24.049  1.00  0.00     0.072 A 
HETATM    7  C3  UNL     1     -20.398  -4.949  23.937  1.00  0.00     0.093 A 
HETATM    8  C4  UNL     1     -19.623  -3.937  23.216  1.00  0.00     0.204 C 
HETATM    9  C5  UNL     1     -18.151  -3.976  23.389  1.00  0.00     0.236 C 
HETATM   10  C6  UNL     1     -17.588  -5.135  24.134  1.00  0.00     0.160 C 
HETATM   11  N6  UNL     1     -17.846  -6.413  23.517  1.00  0.00    -0.359 N 
HETATM   12  C13 UNL     1     -19.098  -7.116  23.438  1.00  0.00     0.185 C 
ENDROOT
BRANCH  11  13
HETATM   13  C7  UNL     1     -16.773  -7.108  22.916  1.00  0.00     0.123 A 
HETATM   14  C8  UNL     1     -15.497  -7.158  23.406  1.00  0.00     0.097 A 
HETATM   15  C9  UNL     1     -14.471  -7.878  22.771  1.00  0.00     0.120 A 
HETATM   16  N8  UNL     1     -14.753  -8.532  21.655  1.00  0.00    -0.177 N 
HETATM   17  C12 UNL     1     -16.035  -8.476  21.170  1.00  0.00     0.679 A 
ATOM     18  H8  UNL     1     -14.033  -9.065  21.167  1.00  0.00     0.185 HD
HETATM   19  N10 UNL     1     -17.004  -7.789  21.784  1.00  0.00    -0.177 N 
ATOM     20  H10 UNL     1     -17.941  -7.781  21.381  1.00  0.00     0.185 HD
BRANCH  15  21
HETATM   21  N7  UNL     1     -13.315  -7.872  23.291  1.00  0.00    -0.374 N 
ATOM     22  H7  UNL     1     -12.615  -8.480  22.866  1.00  0.00     0.161 HD
BRANCH  21  23
HETATM   23  C10 UNL     1     -12.899  -7.102  24.407  1.00  0.00     0.147 C 
BRANCH  23  24
HETATM   24  C11 UNL     1     -12.134  -5.870  23.930  1.00  0.00     0.183 C 
BRANCH  24  25
HETATM   25  O2  UNL     1     -11.268  -6.303  22.937  1.00  0.00    -0.399 OA
ATOM     26  H2  UNL     1     -11.576  -5.921  22.123  1.00  0.00     0.209 HD
ENDBRANCH  24  25
ENDBRANCH  23  24
ENDBRANCH  21  23
ENDBRANCH  15  21
BRANCH  17  27
HETATM   27  N9  UNL     1     -16.238  -9.136  20.062  1.00  0.00    -0.234 N 
ATOM     28  H92 UNL     1     -15.556  -9.793  19.683  1.00  0.00     0.174 HD
ATOM     29  H91 UNL     1     -17.132  -8.953  19.605  1.00  0.00     0.174 HD
ENDBRANCH  17  27
ENDBRANCH  11  13
BRANCH   9  30
HETATM   30  N5  UNL     1     -17.754  -2.737  24.072  1.00  0.00    -0.071 N 
ATOM     31  H53 UNL     1     -16.884  -2.346  23.711  1.00  0.00     0.274 HD
ATOM     32  H52 UNL     1     -18.359  -1.947  23.846  1.00  0.00     0.274 HD
ATOM     33  H51 UNL     1     -17.716  -2.937  25.071  1.00  0.00     0.274 HD
ENDBRANCH   9  30
BRANCH   8  34
HETATM   34  O1  UNL     1     -19.894  -4.072  21.833  1.00  0.00    -0.387 OA
ATOM     35  H1  UNL     1     -20.096  -4.983  21.656  1.00  0.00     0.210 HD
ENDBRANCH   8  34
BRANCH   1  36
HETATM   36  C1  UNL     1     -22.145  -3.383  24.846  1.00  0.00     0.201 C 
HETATM   37  N1  UNL     1     -23.440  -3.404  24.771  1.00  0.00    -0.394 N 
ATOM     38  H12 UNL     1     -23.950  -4.267  24.582  1.00  0.00     0.156 HD
ATOM     39  H11 UNL     1     -23.894  -2.502  24.914  1.00  0.00     0.156 HD
ENDBRANCH   1  36
TORSDOF 9
ENDMDL
MODEL 4
REMARK VINA RESULT: -8.129755517      1.476      2.302
REMARK  9 active torsions:
REMARK  status: ('A' for Active; 'I' for Inactive)
REMARK    1  A    between atoms: C1_4  and  N2_5 
REMARK    2  A    between atoms: C4_12  and  O1_13 
REMARK    3  A    between atoms: C5_15  and  N5_16 
REMARK    4  A    between atoms: N6_21  and  C7_22 
REMARK    5  A    between atoms: C9_24  and  N7_25 
REMARK    6  A    between atoms: N7_25  and  C10_27 
REMARK    7  A    between atoms: C10_27  and  C11_28 
REMARK    8  A    between atoms: C11_28  and  O2_29 
REMARK    9  A    between atoms: C12_33  and  N9_34 
ROOT
HETATM    1  N2  UNL     1     -19.673  -7.535  20.696  1.00  0.00    -0.237 N 
HETATM    2  N3  UNL     1     -20.295  -7.148  21.800  1.00  0.00    -0.235 N 
ATOM      3  H3  UNL     1     -21.281  -6.892  21.853  1.00  0.00     0.209 HD
HETATM    4  N4  UNL     1     -19.464  -7.141  22.813  1.00  0.00    -0.286 N 
ATOM      5  H4  UNL     1     -19.691  -6.882  23.773  1.00  0.00     0.188 HD
HETATM    6  C2  UNL     1     -18.270  -7.531  22.367  1.00  0.00     0.072 A 
HETATM    7  C3  UNL     1     -18.395  -7.783  21.023  1.00  0.00     0.093 A 
HETATM    8  C4  UNL     1     -17.396  -8.235  20.053  1.00  0.00     0.204 C 
HETATM    9  C5  UNL     1     -16.083  -7.547  20.078  1.00  0.00     0.236 C 
HETATM   10  C6  UNL     1     -15.844  -6.587  21.190  1.00  0.00     0.160 C 
HETATM   11  N6  UNL     1     -15.889  -7.183  22.502  1.00  0.00    -0.359 N 
HETATM   12  C13 UNL     1     -17.044  -7.664  23.212  1.00  0.00     0.185 C 
ENDROOT
BRANCH  11  13
HETATM   13  C7  UNL     1     -14.686  -7.321  23.229  1.00  0.00     0.123 A 
HETATM   14  C8  UNL     1     -14.489  -8.194  24.264  1.00  0.00     0.097 A 
HETATM   15  C9  UNL     1     -13.265  -8.297  24.944  1.00  0.00     0.120 A 
HETATM   16  N8  UNL     1     -12.263  -7.518  24.567  1.00  0.00    -0.177 N 
HETATM   17  C12 UNL     1     -12.468  -6.645  23.529  1.00  0.00     0.679 A 
ATOM     18  H8  UNL     1     -11.359  -7.566  25.038  1.00  0.00     0.185 HD
HETATM   19  N10 UNL     1     -13.639  -6.556  22.888  1.00  0.00    -0.177 N 
ATOM     20  H10 UNL     1     -13.737  -5.890  22.122  1.00  0.00     0.185 HD
BRANCH  15  21
HETATM   21  N7  UNL     1     -13.166  -9.132  25.893  1.00  0.00    -0.374 N 
ATOM     22  H7  UNL     1     -13.256 -10.119  25.651  1.00  0.00     0.161 HD
BRANCH  21  23
HETATM   23  C10 UNL     1     -12.944  -8.827  27.260  1.00  0.00     0.147 C 
BRANCH  23  24
HETATM   24  C11 UNL     1     -14.033  -9.466  28.118  1.00  0.00     0.183 C 
BRANCH  24  25
HETATM   25  O2  UNL     1     -14.790  -8.424  28.635  1.00  0.00    -0.399 OA
ATOM     26  H2  UNL     1     -15.111  -7.928  27.891  1.00  0.00     0.209 HD
ENDBRANCH  24  25
ENDBRANCH  23  24
ENDBRANCH  21  23
ENDBRANCH  15  21
BRANCH  17  27
HETATM   27  N9  UNL     1     -11.441  -5.901  23.218  1.00  0.00    -0.234 N 
ATOM     28  H92 UNL     1     -11.141  -5.114  23.793  1.00  0.00     0.174 HD
ATOM     29  H91 UNL     1     -10.955  -6.169  22.362  1.00  0.00     0.174 HD
ENDBRANCH  17  27
ENDBRANCH  11  13
BRANCH   9  30
HETATM   30  N5  UNL     1     -15.932  -6.837  18.800  1.00  0.00    -0.071 N 
ATOM     31  H53 UNL     1     -16.082  -5.832  18.884  1.00  0.00     0.274 HD
ATOM     32  H52 UNL     1     -14.965  -6.802  18.477  1.00  0.00     0.274 HD
ATOM     33  H51 UNL     1     -16.560  -7.279  18.129  1.00  0.00     0.274 HD
ENDBRANCH   9  30
BRANCH   8  34
HETATM   34  O1  UNL     1     -17.158  -9.614  20.269  1.00  0.00    -0.387 OA
ATOM     35  H1  UNL     1     -17.708 -10.109  19.673  1.00  0.00     0.210 HD
ENDBRANCH   8  34
BRANCH   1  36
HETATM   36  C1  UNL     1     -20.322  -7.646  19.410  1.00  0.00     0.201 C 
HETATM   37  N1  UNL     1     -20.846  -8.807  19.161  1.00  0.00    -0.394 N 
ATOM     38  H12 UNL     1     -20.795  -9.572  19.833  1.00  0.00     0.156 HD
ATOM     39  H11 UNL     1     -21.305  -8.886  18.253  1.00  0.00     0.156 HD
ENDBRANCH   1  36
TORSDOF 9
ENDMDL
MODEL 5
REMARK VINA RESULT: -7.961145703      4.811      8.518
REMARK  9 active torsions:
REMARK  status: ('A' for Active; 'I' for Inactive)
REMARK    1  A    between atoms: C1_4  and  N2_5 
REMARK    2  A    between atoms: C4_12  and  O1_13 
REMARK    3  A    between atoms: C5_15  and  N5_16 
REMARK    4  A    between atoms: N6_21  and  C7_22 
REMARK    5  A    between atoms: C9_24  and  N7_25 
REMARK    6  A    between atoms: N7_25  and  C10_27 
REMARK    7  A    between atoms: C10_27  and  C11_28 
REMARK    8  A    between atoms: C11_28  and  O2_29 
REMARK    9  A    between atoms: C12_33  and  N9_34 
ROOT
HETATM    1  N2  UNL     1     -17.103  -7.514  19.519  1.00  0.00    -0.237 N 
HETATM    2  N3  UNL     1     -16.318  -6.735  18.790  1.00  0.00    -0.235 N 
ATOM      3  H3  UNL     1     -15.351  -6.948  18.546  1.00  0.00     0.209 HD
HETATM    4  N4  UNL     1     -16.961  -5.652  18.426  1.00  0.00    -0.286 N 
ATOM      5  H4  UNL     1     -16.584  -4.892  17.861  1.00  0.00     0.188 HD
HETATM    6  C2  UNL     1     -18.194  -5.720  18.927  1.00  0.00     0.072 A 
HETATM    7  C3  UNL     1     -18.292  -6.901  19.623  1.00  0.00     0.093 A 
HETATM    8  C4  UNL     1     -19.421  -7.467  20.362  1.00  0.00     0.204 C 
HETATM    9  C5  UNL     1     -20.144  -6.552  21.279  1.00  0.00     0.236 C 
HETATM   10  C6  UNL     1     -19.767  -5.113  21.234  1.00  0.00     0.160 C 
HETATM   11  N6  UNL     1     -19.991  -4.486  19.955  1.00  0.00    -0.359 N 
HETATM   12  C13 UNL     1     -19.253  -4.681  18.736  1.00  0.00     0.185 C 
ENDROOT
BRANCH  11  13
HETATM   13  C7  UNL     1     -21.038  -3.546  19.832  1.00  0.00     0.123 A 
HETATM   14  C8  UNL     1     -21.781  -3.056  20.871  1.00  0.00     0.097 A 
HETATM   15  C9  UNL     1     -22.804  -2.111  20.690  1.00  0.00     0.120 A 
HETATM   16  N8  UNL     1     -23.059  -1.681  19.464  1.00  0.00    -0.177 N 
HETATM   17  C12 UNL     1     -22.311  -2.178  18.427  1.00  0.00     0.679 A 
ATOM     18  H8  UNL     1     -23.795  -0.995  19.294  1.00  0.00     0.185 HD
HETATM   19  N10 UNL     1     -21.338  -3.076  18.611  1.00  0.00    -0.177 N 
ATOM     20  H10 UNL     1     -20.811  -3.412  17.805  1.00  0.00     0.185 HD
BRANCH  15  21
HETATM   21  N7  UNL     1     -23.445  -1.708  21.707  1.00  0.00    -0.374 N 
ATOM     22  H7  UNL     1     -23.393  -0.712  21.919  1.00  0.00     0.161 HD
BRANCH  21  23
HETATM   23  C10 UNL     1     -24.228  -2.509  22.577  1.00  0.00     0.147 C 
BRANCH  23  24
HETATM   24  C11 UNL     1     -23.768  -2.307  24.019  1.00  0.00     0.183 C 
BRANCH  24  25
HETATM   25  O2  UNL     1     -23.733  -3.565  24.602  1.00  0.00    -0.399 OA
ATOM     26  H2  UNL     1     -23.677  -3.427  25.540  1.00  0.00     0.209 HD
ENDBRANCH  24  25
ENDBRANCH  23  24
ENDBRANCH  21  23
ENDBRANCH  15  21
BRANCH  17  27
HETATM   27  N9  UNL     1     -22.623  -1.716  17.246  1.00  0.00    -0.234 N 
ATOM     28  H92 UNL     1     -23.589  -1.633  16.928  1.00  0.00     0.174 HD
ATOM     29  H91 UNL     1     -21.832  -1.438  16.666  1.00  0.00     0.174 HD
ENDBRANCH  17  27
ENDBRANCH  11  13
BRANCH   9  30
HETATM   30  N5  UNL     1     -19.945  -7.050  22.647  1.00  0.00    -0.071 N 
ATOM     31  H53 UNL     1     -20.817  -7.317  23.104  1.00  0.00     0.274 HD
ATOM     32  H52 UNL     1     -19.494  -7.965  22.675  1.00  0.00     0.274 HD
ATOM     33  H51 UNL     1     -19.428  -6.337  23.161  1.00  0.00     0.274 HD
ENDBRANCH   9  30
BRANCH   8  34
HETATM   34  O1  UNL     1     -20.362  -7.963  19.428  1.00  0.00    -0.387 OA
ATOM     35  H1  UNL     1     -20.032  -8.782  19.078  1.00  0.00     0.210 HD
ENDBRANCH   8  34
BRANCH   1  36
HETATM   36  C1  UNL     1     -16.682  -8.783  20.068  1.00  0.00     0.201 C 
HETATM   37  N1  UNL     1     -15.398  -8.933  20.175  1.00  0.00    -0.394 N 
ATOM     38  H12 UNL     1     -14.748  -8.201  19.889  1.00  0.00     0.156 HD
ATOM     39  H11 UNL     1     -15.101  -9.829  20.562  1.00  0.00     0.156 HD
ENDBRANCH   1  36
TORSDOF 9
ENDMDL
