MODEL 1
REMARK VINA RESULT: -8.614739430      0.000      0.000
REMARK  8 active torsions:
REMARK  status: ('A' for Active; 'I' for Inactive)
REMARK    1  A    between atoms: N1_1  and  C1_4 
REMARK    2  A    between atoms: C2_7  and  N3_8 
REMARK    3  A    between atoms: N3_8  and  C3_10 
REMARK    4  A    between atoms: C3_10  and  C4_11 
REMARK    5  A    between atoms: C4_11  and  O1_12 
REMARK    6  A    between atoms: N5_21  and  C8_22 
REMARK    7  A    between atoms: C10_24  and  C11_25 
REMARK    8  A    between atoms: C11_25  and  O4_26 
ROOT
HETATM    1  C1  UNL     1     -17.482  -5.021  22.735  1.00  0.00     0.679 A 
HETATM    2  N2  UNL     1     -18.535  -5.100  21.877  1.00  0.00    -0.176 N 
ATOM      3  H2  UNL     1     -19.286  -4.413  21.944  1.00  0.00     0.186 HD
HETATM    4  C2  UNL     1     -18.610  -6.064  20.942  1.00  0.00     0.136 A 
HETATM    5  C5  UNL     1     -17.588  -6.982  20.867  1.00  0.00     0.121 A 
HETATM    6  C6  UNL     1     -17.622  -7.983  19.928  1.00  0.00     0.267 A 
HETATM    7  O2  UNL     1     -18.598  -8.038  19.150  1.00  0.00    -0.267 OA
HETATM    8  N4  UNL     1     -16.589  -8.878  19.881  1.00  0.00    -0.274 N 
ATOM      9  H4  UNL     1     -16.602  -9.627  19.188  1.00  0.00     0.173 HD
HETATM   10  C7  UNL     1     -15.564  -8.785  20.731  1.00  0.00     0.333 A 
HETATM   11  O3  UNL     1     -14.637  -9.606  20.674  1.00  0.00    -0.246 OA
HETATM   12  N5  UNL     1     -15.524  -7.811  21.649  1.00  0.00    -0.254 N 
HETATM   13  C13 UNL     1     -16.513  -6.886  21.756  1.00  0.00     0.149 A 
HETATM   14  N7  UNL     1     -16.479  -5.909  22.673  1.00  0.00    -0.175 N 
ATOM     15  H7  UNL     1     -15.694  -5.842  23.320  1.00  0.00     0.186 HD
ENDROOT
BRANCH  12  16
HETATM   16  C8  UNL     1     -14.403  -7.766  22.528  1.00  0.00     0.259 C 
HETATM   17  C9  UNL     1     -14.725  -8.080  23.969  1.00  0.00     0.064 C 
HETATM   18  C10 UNL     1     -13.393  -8.139  24.701  1.00  0.00     0.030 C 
HETATM   19  C12 UNL     1     -12.773  -6.772  24.588  1.00  0.00     0.149 C 
HETATM   20  N6  UNL     1     -12.654  -6.456  23.180  1.00  0.00    -0.098 NA
HETATM   21  O5  UNL     1     -13.799  -6.481  22.520  1.00  0.00    -0.260 OA
BRANCH  18  22
HETATM   22  C11 UNL     1     -13.562  -8.588  26.132  1.00  0.00     0.170 C 
BRANCH  22  23
HETATM   23  O4  UNL     1     -12.672  -7.998  26.992  1.00  0.00    -0.400 OA
ATOM     24  H4  UNL     1     -13.093  -7.545  27.713  1.00  0.00     0.209 HD
ENDBRANCH  22  23
ENDBRANCH  18  22
ENDBRANCH  12  16
BRANCH   4  25
HETATM   25  N3  UNL     1     -19.579  -6.188  20.105  1.00  0.00    -0.373 N 
ATOM     26  H3  UNL     1     -19.806  -7.136  19.806  1.00  0.00     0.161 HD
BRANCH  25  27
HETATM   27  C3  UNL     1     -20.371  -5.134  19.554  1.00  0.00     0.147 C 
BRANCH  27  28
HETATM   28  C4  UNL     1     -21.348  -5.772  18.558  1.00  0.00     0.183 C 
BRANCH  28  29
HETATM   29  O1  UNL     1     -20.582  -6.474  17.641  1.00  0.00    -0.399 OA
ATOM     30  H1  UNL     1     -20.079  -7.111  18.134  1.00  0.00     0.209 HD
ENDBRANCH  28  29
ENDBRANCH  27  28
ENDBRANCH  25  27
ENDBRANCH   4  25
BRANCH   1  31
HETATM   31  N1  UNL     1     -17.481  -4.057  23.615  1.00  0.00    -0.234 N 
ATOM     32  H12 UNL     1     -18.303  -3.857  24.184  1.00  0.00     0.174 HD
ATOM     33  H11 UNL     1     -16.629  -3.504  23.719  1.00  0.00     0.174 HD
ENDBRANCH   1  31
TORSDOF 8
ENDMDL
MODEL 2
REMARK VINA RESULT: -8.426336607      1.224      1.229
REMARK  8 active torsions:
REMARK  status: ('A' for Active; 'I' for Inactive)
REMARK    1  A    between atoms: N1_1  and  C1_4 
REMARK    2  A    between atoms: C2_7  and  N3_8 
REMARK    3  A    between atoms: N3_8  and  C3_10 
REMARK    4  A    between atoms: C3_10  and  C4_11 
REMARK    5  A    between atoms: C4_11  and  O1_12 
REMARK    6  A    between atoms: N5_21  and  C8_22 
REMARK    7  A    between atoms: C10_24  and  C11_25 
REMARK    8  A    between atoms: C11_25  and  O4_26 
ROOT
HETATM    1  C1  UNL     1     -17.717  -5.182  22.666  1.00  0.00     0.679 A 
HETATM    2  N2  UNL     1     -18.878  -5.452  22.008  1.00  0.00    -0.176 N 
ATOM      3  H2  UNL     1     -19.690  -4.855  22.163  1.00  0.00     0.186 HD
HETATM    4  C2  UNL     1     -18.979  -6.488  21.157  1.00  0.00     0.136 A 
HETATM    5  C5  UNL     1     -17.873  -7.283  20.960  1.00  0.00     0.121 A 
HETATM    6  C6  UNL     1     -17.930  -8.351  20.100  1.00  0.00     0.267 A 
HETATM    7  O2  UNL     1     -19.005  -8.582  19.506  1.00  0.00    -0.267 OA
HETATM    8  N4  UNL     1     -16.812  -9.120  19.928  1.00  0.00    -0.274 N 
ATOM      9  H4  UNL     1     -16.842  -9.917  19.292  1.00  0.00     0.173 HD
HETATM   10  C7  UNL     1     -15.683  -8.840  20.583  1.00  0.00     0.333 A 
HETATM   11  O3  UNL     1     -14.680  -9.548  20.414  1.00  0.00    -0.246 OA
HETATM   12  N5  UNL     1     -15.619  -7.799  21.422  1.00  0.00    -0.254 N 
HETATM   13  C13 UNL     1     -16.689  -6.991  21.644  1.00  0.00     0.149 A 
HETATM   14  N7  UNL     1     -16.632  -5.949  22.484  1.00  0.00    -0.175 N 
ATOM     15  H7  UNL     1     -15.767  -5.738  22.981  1.00  0.00     0.186 HD
ENDROOT
BRANCH  12  16
HETATM   16  C8  UNL     1     -14.385  -7.554  22.091  1.00  0.00     0.259 C 
HETATM   17  C9  UNL     1     -14.350  -8.013  23.528  1.00  0.00     0.064 C 
HETATM   18  C10 UNL     1     -12.920  -7.813  24.006  1.00  0.00     0.030 C 
HETATM   19  C12 UNL     1     -12.635  -6.337  23.921  1.00  0.00     0.149 C 
HETATM   20  N6  UNL     1     -12.858  -5.923  22.551  1.00  0.00    -0.098 NA
HETATM   21  O5  UNL     1     -14.078  -6.167  22.103  1.00  0.00    -0.260 OA
BRANCH  18  22
HETATM   22  C11 UNL     1     -12.712  -8.369  25.394  1.00  0.00     0.170 C 
BRANCH  22  23
HETATM   23  O4  UNL     1     -11.451  -8.869  25.592  1.00  0.00    -0.400 OA
ATOM     24  H4  UNL     1     -11.168  -9.456  24.902  1.00  0.00     0.209 HD
ENDBRANCH  22  23
ENDBRANCH  18  22
ENDBRANCH  12  16
BRANCH   4  25
HETATM   25  N3  UNL     1     -20.048  -6.791  20.508  1.00  0.00    -0.373 N 
ATOM     26  H3  UNL     1     -19.925  -7.116  19.549  1.00  0.00     0.161 HD
BRANCH  25  27
HETATM   27  C3  UNL     1     -21.390  -6.719  20.994  1.00  0.00     0.147 C 
BRANCH  27  28
HETATM   28  C4  UNL     1     -22.071  -5.547  20.276  1.00  0.00     0.183 C 
BRANCH  28  29
HETATM   29  O1  UNL     1     -23.431  -5.670  20.513  1.00  0.00    -0.399 OA
ATOM     30  H1  UNL     1     -23.642  -6.592  20.428  1.00  0.00     0.209 HD
ENDBRANCH  28  29
ENDBRANCH  27  28
ENDBRANCH  25  27
ENDBRANCH   4  25
BRANCH   1  31
HETATM   31  N1  UNL     1     -17.698  -4.158  23.476  1.00  0.00    -0.234 N 
ATOM     32  H12 UNL     1     -16.940  -3.476  23.451  1.00  0.00     0.174 HD
ATOM     33  H11 UNL     1     -18.466  -4.058  24.139  1.00  0.00     0.174 HD
ENDBRANCH   1  31
TORSDOF 8
ENDMDL
MODEL 3
REMARK VINA RESULT: -8.135303279      2.403      7.019
REMARK  8 active torsions:
REMARK  status: ('A' for Active; 'I' for Inactive)
REMARK    1  A    between atoms: N1_1  and  C1_4 
REMARK    2  A    between atoms: C2_7  and  N3_8 
REMARK    3  A    between atoms: N3_8  and  C3_10 
REMARK    4  A    between atoms: C3_10  and  C4_11 
REMARK    5  A    between atoms: C4_11  and  O1_12 
REMARK    6  A    between atoms: N5_21  and  C8_22 
REMARK    7  A    between atoms: C10_24  and  C11_25 
REMARK    8  A    between atoms: C11_25  and  O4_26 
ROOT
HETATM    1  C1  UNL     1     -15.385  -8.411  21.275  1.00  0.00     0.679 A 
HETATM    2  N2  UNL     1     -14.515  -8.444  22.322  1.00  0.00    -0.176 N 
ATOM      3  H2  UNL     1     -13.564  -8.778  22.169  1.00  0.00     0.186 HD
HETATM    4  C2  UNL     1     -14.880  -8.046  23.553  1.00  0.00     0.136 A 
HETATM    5  C5  UNL     1     -16.168  -7.598  23.739  1.00  0.00     0.121 A 
HETATM    6  C6  UNL     1     -16.585  -7.182  24.979  1.00  0.00     0.267 A 
HETATM    7  O2  UNL     1     -15.770  -7.220  25.927  1.00  0.00    -0.267 OA
HETATM    8  N4  UNL     1     -17.871  -6.742  25.130  1.00  0.00    -0.274 N 
ATOM      9  H4  UNL     1     -18.194  -6.430  26.046  1.00  0.00     0.173 HD
HETATM   10  C7  UNL     1     -18.710  -6.718  24.092  1.00  0.00     0.333 A 
HETATM   11  O3  UNL     1     -19.873  -6.316  24.247  1.00  0.00    -0.246 OA
HETATM   12  N5  UNL     1     -18.311  -7.122  22.879  1.00  0.00    -0.254 N 
HETATM   13  C13 UNL     1     -17.048  -7.571  22.654  1.00  0.00     0.149 A 
HETATM   14  N7  UNL     1     -16.642  -7.977  21.444  1.00  0.00    -0.175 N 
ATOM     15  H7  UNL     1     -17.287  -7.956  20.653  1.00  0.00     0.186 HD
ENDROOT
BRANCH  12  16
HETATM   16  C8  UNL     1     -19.254  -7.071  21.813  1.00  0.00     0.259 C 
HETATM   17  C9  UNL     1     -19.425  -8.372  21.067  1.00  0.00     0.064 C 
HETATM   18  C10 UNL     1     -20.573  -8.158  20.092  1.00  0.00     0.030 C 
HETATM   19  C12 UNL     1     -20.144  -7.066  19.148  1.00  0.00     0.149 C 
HETATM   20  N6  UNL     1     -19.825  -5.898  19.942  1.00  0.00    -0.098 NA
HETATM   21  O5  UNL     1     -18.882  -6.098  20.846  1.00  0.00    -0.260 OA
BRANCH  18  22
HETATM   22  C11 UNL     1     -20.945  -9.434  19.378  1.00  0.00     0.170 C 
BRANCH  22  23
HETATM   23  O4  UNL     1     -21.216 -10.472  20.233  1.00  0.00    -0.400 OA
ATOM     24  H4  UNL     1     -22.131 -10.523  20.481  1.00  0.00     0.209 HD
ENDBRANCH  22  23
ENDBRANCH  18  22
ENDBRANCH  12  16
BRANCH   4  25
HETATM   25  N3  UNL     1     -14.103  -8.055  24.578  1.00  0.00    -0.373 N 
ATOM     26  H3  UNL     1     -14.541  -8.220  25.484  1.00  0.00     0.161 HD
BRANCH  25  27
HETATM   27  C3  UNL     1     -12.687  -7.858  24.577  1.00  0.00     0.147 C 
BRANCH  27  28
HETATM   28  C4  UNL     1     -12.434  -6.381  24.249  1.00  0.00     0.183 C 
BRANCH  28  29
HETATM   29  O1  UNL     1     -11.477  -6.353  23.247  1.00  0.00    -0.399 OA
ATOM     30  H1  UNL     1     -11.942  -6.237  22.427  1.00  0.00     0.209 HD
ENDBRANCH  28  29
ENDBRANCH  27  28
ENDBRANCH  25  27
ENDBRANCH   4  25
BRANCH   1  31
HETATM   31  N1  UNL     1     -14.955  -8.814  20.110  1.00  0.00    -0.234 N 
ATOM     32  H12 UNL     1     -14.742  -8.152  19.365  1.00  0.00     0.174 HD
ATOM     33  H11 UNL     1     -14.837  -9.817  19.964  1.00  0.00     0.174 HD
ENDBRANCH   1  31
TORSDOF 8
ENDMDL
MODEL 4
REMARK VINA RESULT: -8.100564274      2.216      3.649
REMARK  8 active torsions:
REMARK  status: ('A' for Active; 'I' for Inactive)
REMARK    1  A    between atoms: N1_1  and  C1_4 
REMARK    2  A    between atoms: C2_7  and  N3_8 
REMARK    3  A    between atoms: N3_8  and  C3_10 
REMARK    4  A    between atoms: C3_10  and  C4_11 
REMARK    5  A    between atoms: C4_11  and  O1_12 
REMARK    6  A    between atoms: N5_21  and  C8_22 
REMARK    7  A    between atoms: C10_24  and  C11_25 
REMARK    8  A    between atoms: C11_25  and  O4_26 
ROOT
HETATM    1  C1  UNL     1     -16.487  -8.777  20.610  1.00  0.00     0.679 A 
HETATM    2  N2  UNL     1     -17.773  -8.823  20.168  1.00  0.00    -0.176 N 
ATOM      3  H2  UNL     1     -17.973  -9.237  19.257  1.00  0.00     0.186 HD
HETATM    4  C2  UNL     1     -18.788  -8.334  20.902  1.00  0.00     0.136 A 
HETATM    5  C5  UNL     1     -18.499  -7.778  22.127  1.00  0.00     0.121 A 
HETATM    6  C6  UNL     1     -19.503  -7.267  22.911  1.00  0.00     0.267 A 
HETATM    7  O2  UNL     1     -20.677  -7.319  22.486  1.00  0.00    -0.267 OA
HETATM    8  N4  UNL     1     -19.181  -6.723  24.124  1.00  0.00    -0.274 N 
ATOM      9  H4  UNL     1     -19.918  -6.340  24.716  1.00  0.00     0.173 HD
HETATM   10  C7  UNL     1     -17.913  -6.687  24.541  1.00  0.00     0.333 A 
HETATM   11  O3  UNL     1     -17.640  -6.189  25.644  1.00  0.00    -0.246 OA
HETATM   12  N5  UNL     1     -16.929  -7.183  23.783  1.00  0.00    -0.254 N 
HETATM   13  C13 UNL     1     -17.172  -7.740  22.567  1.00  0.00     0.149 A 
HETATM   14  N7  UNL     1     -16.192  -8.238  21.802  1.00  0.00    -0.175 N 
ATOM     15  H7  UNL     1     -15.225  -8.208  22.126  1.00  0.00     0.186 HD
ENDROOT
BRANCH  12  16
HETATM   16  C8  UNL     1     -15.597  -7.114  24.285  1.00  0.00     0.259 C 
HETATM   17  C9  UNL     1     -14.605  -6.480  23.340  1.00  0.00     0.064 C 
HETATM   18  C10 UNL     1     -13.300  -6.355  24.112  1.00  0.00     0.030 C 
HETATM   19  C12 UNL     1     -12.868  -7.752  24.466  1.00  0.00     0.149 C 
HETATM   20  N6  UNL     1     -13.938  -8.368  25.222  1.00  0.00    -0.098 NA
HETATM   21  O5  UNL     1     -15.096  -8.409  24.586  1.00  0.00    -0.260 OA
BRANCH  18  22
HETATM   22  C11 UNL     1     -12.256  -5.601  23.325  1.00  0.00     0.170 C 
BRANCH  22  23
HETATM   23  O4  UNL     1     -12.789  -4.656  22.486  1.00  0.00    -0.400 OA
ATOM     24  H4  UNL     1     -13.524  -4.190  22.867  1.00  0.00     0.209 HD
ENDBRANCH  22  23
ENDBRANCH  18  22
ENDBRANCH  12  16
BRANCH   4  25
HETATM   25  N3  UNL     1     -20.021  -8.350  20.535  1.00  0.00    -0.373 N 
ATOM     26  H3  UNL     1     -20.719  -8.358  21.279  1.00  0.00     0.161 HD
BRANCH  25  27
HETATM   27  C3  UNL     1     -20.512  -8.355  19.193  1.00  0.00     0.147 C 
BRANCH  27  28
HETATM   28  C4  UNL     1     -20.561  -6.896  18.721  1.00  0.00     0.183 C 
BRANCH  28  29
HETATM   29  O1  UNL     1     -20.903  -6.923  17.378  1.00  0.00    -0.399 OA
ATOM     30  H1  UNL     1     -20.369  -6.267  16.946  1.00  0.00     0.209 HD
ENDBRANCH  28  29
ENDBRANCH  27  28
ENDBRANCH  25  27
ENDBRANCH   4  25
BRANCH   1  31
HETATM   31  N1  UNL     1     -15.557  -9.272  19.840  1.00  0.00    -0.234 N 
ATOM     32  H12 UNL     1     -15.738 -10.074  19.236  1.00  0.00     0.174 HD
ATOM     33  H11 UNL     1     -14.636  -8.832  19.857  1.00  0.00     0.174 HD
ENDBRANCH   1  31
TORSDOF 8
ENDMDL
MODEL 5
REMARK VINA RESULT: -8.032861456      2.348      7.241
REMARK  8 active torsions:
REMARK  status: ('A' for Active; 'I' for Inactive)
REMARK    1  A    between atoms: N1_1  and  C1_4 
REMARK    2  A    between atoms: C2_7  and  N3_8 
REMARK    3  A    between atoms: N3_8  and  C3_10 
REMARK    4  A    between atoms: C3_10  and  C4_11 
REMARK    5  A    between atoms: C4_11  and  O1_12 
REMARK    6  A    between atoms: N5_21  and  C8_22 
REMARK    7  A    between atoms: C10_24  and  C11_25 
REMARK    8  A    between atoms: C11_25  and  O4_26 
ROOT
HETATM    1  C1  UNL     1     -15.154  -8.227  22.202  1.00  0.00     0.679 A 
HETATM    2  N2  UNL     1     -14.752  -8.470  23.480  1.00  0.00    -0.176 N 
ATOM      3  H2  UNL     1     -13.943  -9.069  23.642  1.00  0.00     0.186 HD
HETATM    4  C2  UNL     1     -15.396  -7.938  24.533  1.00  0.00     0.136 A 
HETATM    5  C5  UNL     1     -16.485  -7.132  24.293  1.00  0.00     0.121 A 
HETATM    6  C6  UNL     1     -17.174  -6.567  25.338  1.00  0.00     0.267 A 
HETATM    7  O2  UNL     1     -16.788  -6.803  26.504  1.00  0.00    -0.267 OA
HETATM    8  N4  UNL     1     -18.251  -5.771  25.065  1.00  0.00    -0.274 N 
ATOM      9  H4  UNL     1     -18.771  -5.345  25.832  1.00  0.00     0.173 HD
HETATM   10  C7  UNL     1     -18.631  -5.544  23.805  1.00  0.00     0.333 A 
HETATM   11  O3  UNL     1     -19.611  -4.820  23.576  1.00  0.00    -0.246 OA
HETATM   12  N5  UNL     1     -17.965  -6.091  22.781  1.00  0.00    -0.254 N 
HETATM   13  C13 UNL     1     -16.885  -6.893  22.975  1.00  0.00     0.149 A 
HETATM   14  N7  UNL     1     -16.214  -7.444  21.955  1.00  0.00    -0.175 N 
ATOM     15  H7  UNL     1     -16.508  -7.268  20.994  1.00  0.00     0.186 HD
ENDROOT
BRANCH  12  16
HETATM   16  C8  UNL     1     -18.421  -5.811  21.460  1.00  0.00     0.259 C 
HETATM   17  C9  UNL     1     -19.161  -6.948  20.800  1.00  0.00     0.064 C 
HETATM   18  C10 UNL     1     -19.697  -6.403  19.485  1.00  0.00     0.030 C 
HETATM   19  C12 UNL     1     -18.502  -6.006  18.659  1.00  0.00     0.149 C 
HETATM   20  N6  UNL     1     -17.738  -5.044  19.424  1.00  0.00    -0.098 NA
HETATM   21  O5  UNL     1     -17.336  -5.485  20.603  1.00  0.00    -0.260 OA
BRANCH  18  22
HETATM   22  C11 UNL     1     -20.584  -7.404  18.786  1.00  0.00     0.170 C 
BRANCH  22  23
HETATM   23  O4  UNL     1     -20.899  -7.042  17.501  1.00  0.00    -0.400 OA
ATOM     24  H4  UNL     1     -21.264  -6.168  17.437  1.00  0.00     0.209 HD
ENDBRANCH  22  23
ENDBRANCH  18  22
ENDBRANCH  12  16
BRANCH   4  25
HETATM   25  N3  UNL     1     -15.062  -8.132  25.760  1.00  0.00    -0.373 N 
ATOM     26  H3  UNL     1     -15.728  -7.827  26.469  1.00  0.00     0.161 HD
BRANCH  25  27
HETATM   27  C3  UNL     1     -13.853  -8.732  26.231  1.00  0.00     0.147 C 
BRANCH  27  28
HETATM   28  C4  UNL     1     -14.074  -9.104  27.703  1.00  0.00     0.183 C 
BRANCH  28  29
HETATM   29  O1  UNL     1     -15.172  -8.379  28.138  1.00  0.00    -0.399 OA
ATOM     30  H1  UNL     1     -15.560  -8.872  28.851  1.00  0.00     0.209 HD
ENDBRANCH  28  29
ENDBRANCH  27  28
ENDBRANCH  25  27
ENDBRANCH   4  25
BRANCH   1  31
HETATM   31  N1  UNL     1     -14.477  -8.780  21.232  1.00  0.00    -0.234 N 
ATOM     32  H12 UNL     1     -14.426  -9.793  21.130  1.00  0.00     0.174 HD
ATOM     33  H11 UNL     1     -13.996  -8.166  20.574  1.00  0.00     0.174 HD
ENDBRANCH   1  31
TORSDOF 8
ENDMDL
