MODEL 1
REMARK VINA RESULT: -8.068038678      0.000      0.000
REMARK  11 active torsions:
REMARK  status: ('A' for Active; 'I' for Inactive)
REMARK    1  A    between atoms: C2_2  and  O1_3 
REMARK    2  A    between atoms: C2_2  and  C3_5 
REMARK    3  A    between atoms: C3_5  and  O2_6 
REMARK    4  A    between atoms: C3_5  and  C4_8 
REMARK    5  A    between atoms: C4_8  and  O3_9 
REMARK    6  A    between atoms: C4_8  and  C5_11 
REMARK    7  A    between atoms: C5_11  and  O4_12 
REMARK    8  A    between atoms: C5_11  and  N1_14 
REMARK    9  A    between atoms: N1_14  and  C6_16 
REMARK   10  A    between atoms: C8_21  and  S1_22 
REMARK   11  A    between atoms: S1_22  and  N4_23 
ROOT
HETATM    1  C6  UNL     1     -15.791  -6.950  23.053  1.00  0.00     0.682 A 
HETATM    2  N2  UNL     1     -16.243  -6.210  24.059  1.00  0.00    -0.177 N 
ATOM      3  H2  UNL     1     -15.572  -5.702  24.634  1.00  0.00     0.185 HD
HETATM    4  C7  UNL     1     -17.555  -6.103  24.348  1.00  0.00     0.158 A 
HETATM    5  N3  UNL     1     -18.032  -5.310  25.425  1.00  0.00    -0.080 NA
HETATM    6  C8  UNL     1     -18.437  -6.807  23.543  1.00  0.00     0.159 A 
HETATM    7  C9  UNL     1     -17.959  -7.566  22.509  1.00  0.00     0.143 A 
HETATM    8  S2  UNL     1     -18.995  -8.397  21.559  1.00  0.00    -0.058 SA
HETATM    9  N5  UNL     1     -16.639  -7.630  22.275  1.00  0.00    -0.180 N 
ATOM     10  H5  UNL     1     -16.283  -8.196  21.505  1.00  0.00     0.185 HD
ENDROOT
BRANCH   1  11
HETATM   11  N1  UNL     1     -14.533  -7.049  22.778  1.00  0.00    -0.197 N 
ATOM     12  H1  UNL     1     -14.207  -7.809  22.179  1.00  0.00     0.180 HD
BRANCH  11  13
HETATM   13  C5  UNL     1     -13.553  -6.076  23.319  1.00  0.00     0.266 C 
BRANCH  13  14
HETATM   14  C4  UNL     1     -12.854  -6.835  24.414  1.00  0.00     0.198 C 
BRANCH  14  15
HETATM   15  C3  UNL     1     -13.097  -8.332  24.418  1.00  0.00     0.179 C 
BRANCH  15  16
HETATM   16  C2  UNL     1     -12.527  -9.055  25.610  1.00  0.00     0.145 C 
HETATM   17  C1  UNL     1     -13.143  -8.723  26.922  1.00  0.00     0.042 C 
BRANCH  16  18
HETATM   18  O1  UNL     1     -11.147  -9.097  25.581  1.00  0.00    -0.393 OA
ATOM     19  H1  UNL     1     -10.761  -9.796  25.066  1.00  0.00     0.210 HD
ENDBRANCH  16  18
ENDBRANCH  15  16
BRANCH  15  20
HETATM   20  O2  UNL     1     -12.357  -8.761  23.260  1.00  0.00    -0.390 OA
ATOM     21  H2  UNL     1     -11.688  -8.108  23.093  1.00  0.00     0.210 HD
ENDBRANCH  15  20
ENDBRANCH  14  15
BRANCH  14  22
HETATM   22  O3  UNL     1     -11.470  -6.747  24.043  1.00  0.00    -0.389 OA
ATOM     23  H3  UNL     1     -11.149  -7.620  24.238  1.00  0.00     0.210 HD
ENDBRANCH  14  22
ENDBRANCH  13  14
BRANCH  13  24
HETATM   24  O4  UNL     1     -12.737  -5.820  22.211  1.00  0.00    -0.373 OA
ATOM     25  H4  UNL     1     -12.177  -5.060  22.321  1.00  0.00     0.212 HD
ENDBRANCH  13  24
ENDBRANCH  11  13
ENDBRANCH   1  11
BRANCH   6  26
HETATM   26  S1  UNL     1     -20.141  -6.732  23.838  1.00  0.00     0.263 S 
HETATM   27  O5  UNL     1     -20.511  -7.669  24.960  1.00  0.00    -0.201 OA
HETATM   28  O6  UNL     1     -20.888  -7.191  22.613  1.00  0.00    -0.201 OA
BRANCH  26  29
HETATM   29  N4  UNL     1     -20.666  -5.162  24.259  1.00  0.00    -0.324 N 
ATOM     30  H42 UNL     1     -21.645  -4.880  24.228  1.00  0.00     0.169 HD
ATOM     31  H41 UNL     1     -19.897  -4.553  24.538  1.00  0.00     0.169 HD
ENDBRANCH  26  29
ENDBRANCH   6  26
TORSDOF 11
ENDMDL
MODEL 2
REMARK VINA RESULT: -7.937361407      3.696      6.940
REMARK  11 active torsions:
REMARK  status: ('A' for Active; 'I' for Inactive)
REMARK    1  A    between atoms: C2_2  and  O1_3 
REMARK    2  A    between atoms: C2_2  and  C3_5 
REMARK    3  A    between atoms: C3_5  and  O2_6 
REMARK    4  A    between atoms: C3_5  and  C4_8 
REMARK    5  A    between atoms: C4_8  and  O3_9 
REMARK    6  A    between atoms: C4_8  and  C5_11 
REMARK    7  A    between atoms: C5_11  and  O4_12 
REMARK    8  A    between atoms: C5_11  and  N1_14 
REMARK    9  A    between atoms: N1_14  and  C6_16 
REMARK   10  A    between atoms: C8_21  and  S1_22 
REMARK   11  A    between atoms: S1_22  and  N4_23 
ROOT
HETATM    1  C6  UNL     1     -15.768  -7.803  21.992  1.00  0.00     0.682 A 
HETATM    2  N2  UNL     1     -14.572  -8.379  22.034  1.00  0.00    -0.177 N 
ATOM      3  H2  UNL     1     -14.130  -8.655  21.158  1.00  0.00     0.185 HD
HETATM    4  C7  UNL     1     -13.921  -8.613  23.190  1.00  0.00     0.158 A 
HETATM    5  N3  UNL     1     -12.642  -9.231  23.229  1.00  0.00    -0.080 NA
HETATM    6  C8  UNL     1     -14.554  -8.224  24.360  1.00  0.00     0.159 A 
HETATM    7  C9  UNL     1     -15.785  -7.631  24.304  1.00  0.00     0.143 A 
HETATM    8  S2  UNL     1     -16.535  -7.171  25.681  1.00  0.00    -0.058 SA
HETATM    9  N5  UNL     1     -16.380  -7.426  23.119  1.00  0.00    -0.180 N 
ATOM     10  H5  UNL     1     -17.299  -6.984  23.077  1.00  0.00     0.185 HD
ENDROOT
BRANCH   1  11
HETATM   11  N1  UNL     1     -16.390  -7.579  20.882  1.00  0.00    -0.197 N 
ATOM     12  H1  UNL     1     -16.002  -6.911  20.215  1.00  0.00     0.180 HD
BRANCH  11  13
HETATM   13  C5  UNL     1     -17.658  -8.278  20.561  1.00  0.00     0.266 C 
BRANCH  13  14
HETATM   14  C4  UNL     1     -18.561  -7.181  20.065  1.00  0.00     0.198 C 
BRANCH  14  15
HETATM   15  C3  UNL     1     -17.852  -5.989  19.453  1.00  0.00     0.179 C 
BRANCH  15  16
HETATM   16  C2  UNL     1     -18.770  -4.953  18.858  1.00  0.00     0.145 C 
HETATM   17  C1  UNL     1     -19.884  -4.499  19.733  1.00  0.00     0.042 C 
BRANCH  16  18
HETATM   18  O1  UNL     1     -19.106  -5.245  17.551  1.00  0.00    -0.393 OA
ATOM     19  H1  UNL     1     -19.903  -5.748  17.427  1.00  0.00     0.210 HD
ENDBRANCH  16  18
ENDBRANCH  15  16
BRANCH  15  20
HETATM   20  O2  UNL     1     -17.125  -6.593  18.367  1.00  0.00    -0.390 OA
ATOM     21  H2  UNL     1     -17.659  -6.509  17.587  1.00  0.00     0.210 HD
ENDBRANCH  15  20
ENDBRANCH  14  15
BRANCH  14  22
HETATM   22  O3  UNL     1     -19.205  -7.776  18.927  1.00  0.00    -0.389 OA
ATOM     23  H3  UNL     1     -19.797  -7.088  18.644  1.00  0.00     0.210 HD
ENDBRANCH  14  22
ENDBRANCH  13  14
BRANCH  13  24
HETATM   24  O4  UNL     1     -17.266  -9.172  19.558  1.00  0.00    -0.373 OA
ATOM     25  H4  UNL     1     -17.261 -10.079  19.841  1.00  0.00     0.212 HD
ENDBRANCH  13  24
ENDBRANCH  11  13
ENDBRANCH   1  11
BRANCH   6  26
HETATM   26  S1  UNL     1     -13.794  -8.485  25.894  1.00  0.00     0.263 S 
HETATM   27  O5  UNL     1     -14.839  -8.577  26.977  1.00  0.00    -0.201 OA
HETATM   28  O6  UNL     1     -12.912  -7.310  26.228  1.00  0.00    -0.201 OA
BRANCH  26  29
HETATM   29  N4  UNL     1     -12.860  -9.914  25.930  1.00  0.00    -0.324 N 
ATOM     30  H42 UNL     1     -12.146 -10.090  26.635  1.00  0.00     0.169 HD
ATOM     31  H41 UNL     1     -13.099 -10.558  25.176  1.00  0.00     0.169 HD
ENDBRANCH  26  29
ENDBRANCH   6  26
TORSDOF 11
ENDMDL
MODEL 3
REMARK VINA RESULT: -7.861337401      2.514      3.326
REMARK  11 active torsions:
REMARK  status: ('A' for Active; 'I' for Inactive)
REMARK    1  A    between atoms: C2_2  and  O1_3 
REMARK    2  A    between atoms: C2_2  and  C3_5 
REMARK    3  A    between atoms: C3_5  and  O2_6 
REMARK    4  A    between atoms: C3_5  and  C4_8 
REMARK    5  A    between atoms: C4_8  and  O3_9 
REMARK    6  A    between atoms: C4_8  and  C5_11 
REMARK    7  A    between atoms: C5_11  and  O4_12 
REMARK    8  A    between atoms: C5_11  and  N1_14 
REMARK    9  A    between atoms: N1_14  and  C6_16 
REMARK   10  A    between atoms: C8_21  and  S1_22 
REMARK   11  A    between atoms: S1_22  and  N4_23 
ROOT
HETATM    1  C6  UNL     1     -17.015  -6.548  22.185  1.00  0.00     0.682 A 
HETATM    2  N2  UNL     1     -17.701  -7.645  22.486  1.00  0.00    -0.177 N 
ATOM      3  H2  UNL     1     -17.445  -8.170  23.322  1.00  0.00     0.185 HD
HETATM    4  C7  UNL     1     -18.722  -8.092  21.728  1.00  0.00     0.158 A 
HETATM    5  N3  UNL     1     -19.452  -9.266  22.054  1.00  0.00    -0.080 NA
HETATM    6  C8  UNL     1     -19.040  -7.352  20.600  1.00  0.00     0.159 A 
HETATM    7  C9  UNL     1     -18.327  -6.223  20.302  1.00  0.00     0.143 A 
HETATM    8  S2  UNL     1     -18.699  -5.349  18.973  1.00  0.00    -0.058 SA
HETATM    9  N5  UNL     1     -17.320  -5.833  21.099  1.00  0.00    -0.180 N 
ATOM     10  H5  UNL     1     -16.788  -4.991  20.875  1.00  0.00     0.185 HD
ENDROOT
BRANCH   1  11
HETATM   11  N1  UNL     1     -16.037  -6.122  22.915  1.00  0.00    -0.197 N 
ATOM     12  H1  UNL     1     -16.199  -5.364  23.579  1.00  0.00     0.180 HD
BRANCH  11  13
HETATM   13  C5  UNL     1     -14.684  -6.718  22.802  1.00  0.00     0.266 C 
BRANCH  13  14
HETATM   14  C4  UNL     1     -14.515  -7.480  24.089  1.00  0.00     0.198 C 
BRANCH  14  15
HETATM   15  C3  UNL     1     -13.081  -7.782  24.476  1.00  0.00     0.179 C 
BRANCH  15  16
HETATM   16  C2  UNL     1     -12.892  -9.086  25.207  1.00  0.00     0.145 C 
HETATM   17  C1  UNL     1     -13.044  -9.026  26.685  1.00  0.00     0.042 C 
BRANCH  16  18
HETATM   18  O1  UNL     1     -11.803  -9.792  24.736  1.00  0.00    -0.393 OA
ATOM     19  H1  UNL     1     -11.997 -10.570  24.227  1.00  0.00     0.210 HD
ENDBRANCH  16  18
ENDBRANCH  15  16
BRANCH  15  20
HETATM   20  O2  UNL     1     -12.789  -6.722  25.406  1.00  0.00    -0.390 OA
ATOM     21  H2  UNL     1     -13.320  -5.974  25.160  1.00  0.00     0.210 HD
ENDBRANCH  15  20
ENDBRANCH  14  15
BRANCH  14  22
HETATM   22  O3  UNL     1     -14.912  -6.528  25.088  1.00  0.00    -0.389 OA
ATOM     23  H3  UNL     1     -15.286  -5.827  24.567  1.00  0.00     0.210 HD
ENDBRANCH  14  22
ENDBRANCH  13  14
BRANCH  13  24
HETATM   24  O4  UNL     1     -14.809  -7.543  21.679  1.00  0.00    -0.373 OA
ATOM     25  H4  UNL     1     -14.590  -7.107  20.864  1.00  0.00     0.212 HD
ENDBRANCH  13  24
ENDBRANCH  11  13
ENDBRANCH   1  11
BRANCH   6  26
HETATM   26  S1  UNL     1     -20.336  -7.849  19.566  1.00  0.00     0.263 S 
HETATM   27  O5  UNL     1     -20.208  -7.178  18.221  1.00  0.00    -0.201 OA
HETATM   28  O6  UNL     1     -21.652  -7.409  20.155  1.00  0.00    -0.201 OA
BRANCH  26  29
HETATM   29  N4  UNL     1     -20.370  -9.538  19.319  1.00  0.00    -0.324 N 
ATOM     30  H42 UNL     1     -20.109 -10.207  20.042  1.00  0.00     0.169 HD
ATOM     31  H41 UNL     1     -20.677  -9.792  18.380  1.00  0.00     0.169 HD
ENDBRANCH  26  29
ENDBRANCH   6  26
TORSDOF 11
ENDMDL
MODEL 4
REMARK VINA RESULT: -7.853780690      1.531      2.156
REMARK  11 active torsions:
REMARK  status: ('A' for Active; 'I' for Inactive)
REMARK    1  A    between atoms: C2_2  and  O1_3 
REMARK    2  A    between atoms: C2_2  and  C3_5 
REMARK    3  A    between atoms: C3_5  and  O2_6 
REMARK    4  A    between atoms: C3_5  and  C4_8 
REMARK    5  A    between atoms: C4_8  and  O3_9 
REMARK    6  A    between atoms: C4_8  and  C5_11 
REMARK    7  A    between atoms: C5_11  and  O4_12 
REMARK    8  A    between atoms: C5_11  and  N1_14 
REMARK    9  A    between atoms: N1_14  and  C6_16 
REMARK   10  A    between atoms: C8_21  and  S1_22 
REMARK   11  A    between atoms: S1_22  and  N4_23 
ROOT
HETATM    1  C6  UNL     1     -16.110  -6.694  23.092  1.00  0.00     0.682 A 
HETATM    2  N2  UNL     1     -17.109  -7.558  22.941  1.00  0.00    -0.177 N 
ATOM      3  H2  UNL     1     -16.890  -8.517  22.675  1.00  0.00     0.185 HD
HETATM    4  C7  UNL     1     -18.398  -7.214  23.127  1.00  0.00     0.158 A 
HETATM    5  N3  UNL     1     -19.462  -8.142  22.964  1.00  0.00    -0.080 NA
HETATM    6  C8  UNL     1     -18.655  -5.901  23.488  1.00  0.00     0.159 A 
HETATM    7  C9  UNL     1     -17.618  -5.021  23.640  1.00  0.00     0.143 A 
HETATM    8  S2  UNL     1     -17.917  -3.472  24.066  1.00  0.00    -0.058 SA
HETATM    9  N5  UNL     1     -16.355  -5.427  23.440  1.00  0.00    -0.180 N 
ATOM     10  H5  UNL     1     -15.582  -4.770  23.553  1.00  0.00     0.185 HD
ENDROOT
BRANCH   1  11
HETATM   11  N1  UNL     1     -14.875  -7.027  22.914  1.00  0.00    -0.197 N 
ATOM     12  H1  UNL     1     -14.653  -7.934  22.503  1.00  0.00     0.180 HD
BRANCH  11  13
HETATM   13  C5  UNL     1     -13.773  -6.111  23.298  1.00  0.00     0.266 C 
BRANCH  13  14
HETATM   14  C4  UNL     1     -12.990  -6.892  24.317  1.00  0.00     0.198 C 
BRANCH  14  15
HETATM   15  C3  UNL     1     -13.263  -8.384  24.336  1.00  0.00     0.179 C 
BRANCH  15  16
HETATM   16  C2  UNL     1     -12.695  -9.108  25.528  1.00  0.00     0.145 C 
HETATM   17  C1  UNL     1     -13.391  -8.870  26.821  1.00  0.00     0.042 C 
BRANCH  16  18
HETATM   18  O1  UNL     1     -11.316  -9.052  25.562  1.00  0.00    -0.393 OA
ATOM     19  H1  UNL     1     -10.909  -8.415  24.985  1.00  0.00     0.210 HD
ENDBRANCH  16  18
ENDBRANCH  15  16
BRANCH  15  20
HETATM   20  O2  UNL     1     -12.544  -8.837  23.174  1.00  0.00    -0.390 OA
ATOM     21  H2  UNL     1     -12.452  -8.095  22.590  1.00  0.00     0.210 HD
ENDBRANCH  15  20
ENDBRANCH  14  15
BRANCH  14  22
HETATM   22  O3  UNL     1     -11.645  -6.830  23.818  1.00  0.00    -0.389 OA
ATOM     23  H3  UNL     1     -11.136  -6.718  24.612  1.00  0.00     0.210 HD
ENDBRANCH  14  22
ENDBRANCH  13  14
BRANCH  13  24
HETATM   24  O4  UNL     1     -13.091  -5.935  22.088  1.00  0.00    -0.373 OA
ATOM     25  H4  UNL     1     -13.211  -5.072  21.709  1.00  0.00     0.212 HD
ENDBRANCH  13  24
ENDBRANCH  11  13
ENDBRANCH   1  11
BRANCH   6  26
HETATM   26  S1  UNL     1     -20.281  -5.367  23.747  1.00  0.00     0.263 S 
HETATM   27  O5  UNL     1     -20.944  -5.075  22.425  1.00  0.00    -0.201 OA
HETATM   28  O6  UNL     1     -20.273  -4.080  24.531  1.00  0.00    -0.201 OA
BRANCH  26  29
HETATM   29  N4  UNL     1     -21.227  -6.522  24.576  1.00  0.00    -0.324 N 
ATOM     30  H42 UNL     1     -21.230  -7.512  24.332  1.00  0.00     0.169 HD
ATOM     31  H41 UNL     1     -21.779  -6.111  25.329  1.00  0.00     0.169 HD
ENDBRANCH  26  29
ENDBRANCH   6  26
TORSDOF 11
ENDMDL
MODEL 5
REMARK VINA RESULT: -7.820928347      2.413      2.697
REMARK  11 active torsions:
REMARK  status: ('A' for Active; 'I' for Inactive)
REMARK    1  A    between atoms: C2_2  and  O1_3 
REMARK    2  A    between atoms: C2_2  and  C3_5 
REMARK    3  A    between atoms: C3_5  and  O2_6 
REMARK    4  A    between atoms: C3_5  and  C4_8 
REMARK    5  A    between atoms: C4_8  and  O3_9 
REMARK    6  A    between atoms: C4_8  and  C5_11 
REMARK    7  A    between atoms: C5_11  and  O4_12 
REMARK    8  A    between atoms: C5_11  and  N1_14 
REMARK    9  A    between atoms: N1_14  and  C6_16 
REMARK   10  A    between atoms: C8_21  and  S1_22 
REMARK   11  A    between atoms: S1_22  and  N4_23 
ROOT
HETATM    1  C6  UNL     1     -15.699  -6.461  23.042  1.00  0.00     0.682 A 
HETATM    2  N2  UNL     1     -16.632  -5.542  22.820  1.00  0.00    -0.177 N 
ATOM      3  H2  UNL     1     -16.702  -4.751  23.460  1.00  0.00     0.185 HD
HETATM    4  C7  UNL     1     -17.489  -5.614  21.783  1.00  0.00     0.158 A 
HETATM    5  N3  UNL     1     -18.485  -4.628  21.552  1.00  0.00    -0.080 NA
HETATM    6  C8  UNL     1     -17.362  -6.704  20.936  1.00  0.00     0.159 A 
HETATM    7  C9  UNL     1     -16.397  -7.644  21.174  1.00  0.00     0.143 A 
HETATM    8  S2  UNL     1     -16.244  -8.929  20.177  1.00  0.00    -0.058 SA
HETATM    9  N5  UNL     1     -15.574  -7.512  22.226  1.00  0.00    -0.180 N 
ATOM     10  H5  UNL     1     -14.855  -8.214  22.403  1.00  0.00     0.185 HD
ENDROOT
BRANCH   1  11
HETATM   11  N1  UNL     1     -14.878  -6.388  24.037  1.00  0.00    -0.197 N 
ATOM     12  H1  UNL     1     -15.168  -6.730  24.953  1.00  0.00     0.180 HD
BRANCH  11  13
HETATM   13  C5  UNL     1     -13.520  -5.815  23.867  1.00  0.00     0.266 C 
BRANCH  13  14
HETATM   14  C4  UNL     1     -12.626  -6.776  24.602  1.00  0.00     0.198 C 
BRANCH  14  15
HETATM   15  C3  UNL     1     -13.104  -8.215  24.621  1.00  0.00     0.179 C 
BRANCH  15  16
HETATM   16  C2  UNL     1     -12.441  -9.080  25.662  1.00  0.00     0.145 C 
HETATM   17  C1  UNL     1     -12.970  -8.944  27.045  1.00  0.00     0.042 C 
BRANCH  16  18
HETATM   18  O1  UNL     1     -11.066  -9.085  25.535  1.00  0.00    -0.393 OA
ATOM     19  H1  UNL     1     -10.651  -9.939  25.518  1.00  0.00     0.210 HD
ENDBRANCH  16  18
ENDBRANCH  15  16
BRANCH  15  20
HETATM   20  O2  UNL     1     -12.678  -8.692  23.331  1.00  0.00    -0.390 OA
ATOM     21  H2  UNL     1     -13.356  -8.463  22.707  1.00  0.00     0.210 HD
ENDBRANCH  15  20
ENDBRANCH  14  15
BRANCH  14  22
HETATM   22  O3  UNL     1     -11.462  -6.848  23.765  1.00  0.00    -0.389 OA
ATOM     23  H3  UNL     1     -10.807  -7.202  24.354  1.00  0.00     0.210 HD
ENDBRANCH  14  22
ENDBRANCH  13  14
BRANCH  13  24
HETATM   24  O4  UNL     1     -13.350  -5.846  22.479  1.00  0.00    -0.373 OA
ATOM     25  H4  UNL     1     -12.870  -5.099  22.139  1.00  0.00     0.212 HD
ENDBRANCH  13  24
ENDBRANCH  11  13
ENDBRANCH   1  11
BRANCH   6  26
HETATM   26  S1  UNL     1     -18.419  -6.882  19.576  1.00  0.00     0.263 S 
HETATM   27  O5  UNL     1     -18.414  -8.314  19.104  1.00  0.00    -0.201 OA
HETATM   28  O6  UNL     1     -17.921  -6.037  18.433  1.00  0.00    -0.201 OA
BRANCH  26  29
HETATM   29  N4  UNL     1     -20.030  -6.444  19.935  1.00  0.00    -0.324 N 
ATOM     30  H42 UNL     1     -20.350  -5.477  19.948  1.00  0.00     0.169 HD
ATOM     31  H41 UNL     1     -20.622  -7.252  20.131  1.00  0.00     0.169 HD
ENDBRANCH  26  29
ENDBRANCH   6  26
TORSDOF 11
ENDMDL
