MODEL 1
REMARK VINA RESULT: -8.003674027      0.000      0.000
REMARK  9 active torsions:
REMARK  status: ('A' for Active; 'I' for Inactive)
REMARK    1  A    between atoms: N1_2  and  C2_4 
REMARK    2  A    between atoms: C3_7  and  N3_8 
REMARK    3  A    between atoms: N3_8  and  N4_10 
REMARK    4  A    between atoms: N4_10  and  C4_12 
REMARK    5  A    between atoms: C4_12  and  O1_13 
REMARK    6  A    between atoms: O1_13  and  C5_14 
REMARK    7  A    between atoms: C5_14  and  C6_16 
REMARK    8  A    between atoms: C6_16  and  N5_17 
REMARK    9  A    between atoms: C10_30  and  N9_31 
ROOT
HETATM    1  C2  UNL     1     -15.149  -9.366  20.512  1.00  0.00     0.681 A 
HETATM    2  N2  UNL     1     -14.852  -8.253  21.202  1.00  0.00    -0.173 N 
ATOM      3  H2  UNL     1     -13.891  -8.113  21.516  1.00  0.00     0.186 HD
HETATM    4  C3  UNL     1     -15.772  -7.315  21.497  1.00  0.00     0.167 A 
HETATM    5  C7  UNL     1     -17.058  -7.519  21.069  1.00  0.00     0.152 A 
HETATM    6  C8  UNL     1     -17.390  -8.674  20.346  1.00  0.00     0.168 A 
HETATM    7  N6  UNL     1     -16.403  -9.559  20.097  1.00  0.00    -0.174 N 
ATOM      8  H6  UNL     1     -16.623 -10.406  19.572  1.00  0.00     0.186 HD
HETATM    9  N7  UNL     1     -18.698  -8.652  20.038  1.00  0.00    -0.172 N 
ATOM     10  H7  UNL     1     -19.221  -9.357  19.519  1.00  0.00     0.186 HD
HETATM   11  C9  UNL     1     -19.175  -7.504  20.559  1.00  0.00     0.709 A 
HETATM   12  N8  UNL     1     -20.429  -6.993  20.536  1.00  0.00    -0.022 N 
ATOM     13  H8  UNL     1     -21.179  -7.503  20.070  1.00  0.00     0.203 HD
HETATM   14  C10 UNL     1     -20.680  -5.817  21.127  1.00  0.00     0.694 A 
HETATM   15  N10 UNL     1     -19.711  -5.134  21.743  1.00  0.00    -0.140 N 
ATOM     16  H10 UNL     1     -19.924  -4.241  22.187  1.00  0.00     0.189 HD
HETATM   17  C11 UNL     1     -18.434  -5.629  21.782  1.00  0.00     0.360 A 
HETATM   18  O3  UNL     1     -17.580  -4.924  22.381  1.00  0.00    -0.245 OA
HETATM   19  N11 UNL     1     -18.208  -6.802  21.185  1.00  0.00    -0.087 N 
ENDROOT
BRANCH   4  20
HETATM   20  N3  UNL     1     -15.352  -6.318  22.156  1.00  0.00    -0.285 N 
ATOM     21  H3  UNL     1     -15.249  -5.434  21.658  1.00  0.00     0.188 HD
BRANCH  20  22
HETATM   22  N4  UNL     1     -15.024  -6.337  23.501  1.00  0.00    -0.311 N 
ATOM     23  H4  UNL     1     -14.312  -5.688  23.837  1.00  0.00     0.182 HD
BRANCH  22  24
HETATM   24  C4  UNL     1     -15.644  -7.237  24.456  1.00  0.00     0.318 C 
BRANCH  24  25
HETATM   25  O1  UNL     1     -15.004  -8.483  24.499  1.00  0.00    -0.299 OA
BRANCH  25  26
HETATM   26  C5  UNL     1     -13.618  -8.496  24.531  1.00  0.00     0.286 C 
HETATM   27  O2  UNL     1     -12.946  -8.233  23.482  1.00  0.00    -0.263 OA
BRANCH  26  28
HETATM   28  C6  UNL     1     -12.854  -8.813  25.761  1.00  0.00     0.340 C 
BRANCH  28  29
HETATM   29  N5  UNL     1     -11.449  -8.975  25.439  1.00  0.00    -0.070 N 
ATOM     30  H53 UNL     1     -11.041  -9.787  25.902  1.00  0.00     0.274 HD
ATOM     31  H52 UNL     1     -11.310  -9.271  24.473  1.00  0.00     0.274 HD
ATOM     32  H51 UNL     1     -10.944  -8.116  25.654  1.00  0.00     0.274 HD
ENDBRANCH  28  29
ENDBRANCH  26  28
ENDBRANCH  25  26
ENDBRANCH  24  25
ENDBRANCH  22  24
ENDBRANCH  20  22
ENDBRANCH   4  20
BRANCH   1  33
HETATM   33  N1  UNL     1     -14.221 -10.254  20.246  1.00  0.00    -0.230 N 
HETATM   34  C1  UNL     1     -14.519 -11.608  19.912  1.00  0.00     0.165 C 
ATOM     35  H1  UNL     1     -13.244  -9.963  20.280  1.00  0.00     0.177 HD
ENDBRANCH   1  33
BRANCH  14  36
HETATM   36  N9  UNL     1     -21.878  -5.287  21.128  1.00  0.00    -0.234 N 
ATOM     37  H92 UNL     1     -22.173  -4.799  20.281  1.00  0.00     0.174 HD
ATOM     38  H91 UNL     1     -22.495  -5.354  21.937  1.00  0.00     0.174 HD
ENDBRANCH  14  36
TORSDOF 9
ENDMDL
MODEL 2
REMARK VINA RESULT: -7.836164391      1.134      1.346
REMARK  9 active torsions:
REMARK  status: ('A' for Active; 'I' for Inactive)
REMARK    1  A    between atoms: N1_2  and  C2_4 
REMARK    2  A    between atoms: C3_7  and  N3_8 
REMARK    3  A    between atoms: N3_8  and  N4_10 
REMARK    4  A    between atoms: N4_10  and  C4_12 
REMARK    5  A    between atoms: C4_12  and  O1_13 
REMARK    6  A    between atoms: O1_13  and  C5_14 
REMARK    7  A    between atoms: C5_14  and  C6_16 
REMARK    8  A    between atoms: C6_16  and  N5_17 
REMARK    9  A    between atoms: C10_30  and  N9_31 
ROOT
HETATM    1  C2  UNL     1     -15.001  -9.656  20.449  1.00  0.00     0.681 A 
HETATM    2  N2  UNL     1     -14.507  -8.716  21.270  1.00  0.00    -0.173 N 
ATOM      3  H2  UNL     1     -13.557  -8.827  21.625  1.00  0.00     0.186 HD
HETATM    4  C3  UNL     1     -15.215  -7.634  21.643  1.00  0.00     0.167 A 
HETATM    5  C7  UNL     1     -16.490  -7.501  21.158  1.00  0.00     0.152 A 
HETATM    6  C8  UNL     1     -17.026  -8.471  20.299  1.00  0.00     0.168 A 
HETATM    7  N6  UNL     1     -16.244  -9.522  19.979  1.00  0.00    -0.174 N 
ATOM      8  H6  UNL     1     -16.615 -10.239  19.355  1.00  0.00     0.186 HD
HETATM    9  N7  UNL     1     -18.280  -8.126  19.959  1.00  0.00    -0.172 N 
ATOM     10  H7  UNL     1     -18.916  -8.639  19.348  1.00  0.00     0.186 HD
HETATM   11  C9  UNL     1     -18.524  -6.963  20.593  1.00  0.00     0.709 A 
HETATM   12  N8  UNL     1     -19.633  -6.187  20.593  1.00  0.00    -0.022 N 
ATOM     13  H8  UNL     1     -20.451  -6.465  20.051  1.00  0.00     0.203 HD
HETATM   14  C10 UNL     1     -19.654  -5.053  21.307  1.00  0.00     0.694 A 
HETATM   15  N10 UNL     1     -18.593  -4.671  22.025  1.00  0.00    -0.140 N 
ATOM     16  H10 UNL     1     -18.630  -3.804  22.562  1.00  0.00     0.189 HD
HETATM   17  C11 UNL     1     -17.458  -5.438  22.044  1.00  0.00     0.360 A 
HETATM   18  O3  UNL     1     -16.504  -5.008  22.744  1.00  0.00    -0.245 OA
HETATM   19  N11 UNL     1     -17.462  -6.563  21.323  1.00  0.00    -0.087 N 
ENDROOT
BRANCH   4  20
HETATM   20  N3  UNL     1     -14.624  -6.829  22.424  1.00  0.00    -0.285 N 
ATOM     21  H3  UNL     1     -15.105  -5.962  22.659  1.00  0.00     0.188 HD
BRANCH  20  22
HETATM   22  N4  UNL     1     -13.375  -7.039  22.982  1.00  0.00    -0.311 N 
ATOM     23  H4  UNL     1     -12.859  -7.879  22.718  1.00  0.00     0.182 HD
BRANCH  22  24
HETATM   24  C4  UNL     1     -12.763  -6.121  23.926  1.00  0.00     0.318 C 
BRANCH  24  25
HETATM   25  O1  UNL     1     -12.640  -6.683  25.204  1.00  0.00    -0.299 OA
BRANCH  25  26
HETATM   26  C5  UNL     1     -13.406  -7.802  25.494  1.00  0.00     0.286 C 
HETATM   27  O2  UNL     1     -14.677  -7.735  25.482  1.00  0.00    -0.263 OA
BRANCH  26  28
HETATM   28  C6  UNL     1     -12.801  -9.114  25.828  1.00  0.00     0.340 C 
BRANCH  28  29
HETATM   29  N5  UNL     1     -11.387  -9.097  25.512  1.00  0.00    -0.070 N 
ATOM     30  H53 UNL     1     -11.204  -9.400  24.555  1.00  0.00     0.274 HD
ATOM     31  H52 UNL     1     -11.021  -8.148  25.438  1.00  0.00     0.274 HD
ATOM     32  H51 UNL     1     -10.874  -9.654  26.195  1.00  0.00     0.274 HD
ENDBRANCH  28  29
ENDBRANCH  26  28
ENDBRANCH  25  26
ENDBRANCH  24  25
ENDBRANCH  22  24
ENDBRANCH  20  22
ENDBRANCH   4  20
BRANCH   1  33
HETATM   33  N1  UNL     1     -14.276 -10.695  20.110  1.00  0.00    -0.230 N 
HETATM   34  C1  UNL     1     -14.845 -11.952  19.748  1.00  0.00     0.165 C 
ATOM     35  H1  UNL     1     -13.261 -10.600  20.105  1.00  0.00     0.177 HD
ENDBRANCH   1  33
BRANCH  14  36
HETATM   36  N9  UNL     1     -20.706  -4.273  21.335  1.00  0.00    -0.234 N 
ATOM     37  H92 UNL     1     -21.094  -3.983  20.437  1.00  0.00     0.174 HD
ATOM     38  H91 UNL     1     -21.124  -3.966  22.213  1.00  0.00     0.174 HD
ENDBRANCH  14  36
TORSDOF 9
ENDMDL
MODEL 3
REMARK VINA RESULT: -7.740939646      2.436      7.079
REMARK  9 active torsions:
REMARK  status: ('A' for Active; 'I' for Inactive)
REMARK    1  A    between atoms: N1_2  and  C2_4 
REMARK    2  A    between atoms: C3_7  and  N3_8 
REMARK    3  A    between atoms: N3_8  and  N4_10 
REMARK    4  A    between atoms: N4_10  and  C4_12 
REMARK    5  A    between atoms: C4_12  and  O1_13 
REMARK    6  A    between atoms: O1_13  and  C5_14 
REMARK    7  A    between atoms: C5_14  and  C6_16 
REMARK    8  A    between atoms: C6_16  and  N5_17 
REMARK    9  A    between atoms: C10_30  and  N9_31 
ROOT
HETATM    1  C2  UNL     1     -18.849  -6.600  24.188  1.00  0.00     0.681 A 
HETATM    2  N2  UNL     1     -18.298  -6.767  22.975  1.00  0.00    -0.173 N 
ATOM      3  H2  UNL     1     -18.857  -6.549  22.149  1.00  0.00     0.186 HD
HETATM    4  C3  UNL     1     -17.039  -7.211  22.805  1.00  0.00     0.167 A 
HETATM    5  C7  UNL     1     -16.303  -7.501  23.924  1.00  0.00     0.152 A 
HETATM    6  C8  UNL     1     -16.858  -7.333  25.201  1.00  0.00     0.168 A 
HETATM    7  N6  UNL     1     -18.127  -6.884  25.275  1.00  0.00    -0.174 N 
ATOM      8  H6  UNL     1     -18.551  -6.755  26.194  1.00  0.00     0.186 HD
HETATM    9  N7  UNL     1     -15.954  -7.679  26.133  1.00  0.00    -0.172 N 
ATOM     10  H7  UNL     1     -16.075  -7.661  27.146  1.00  0.00     0.186 HD
HETATM   11  C9  UNL     1     -14.853  -8.055  25.453  1.00  0.00     0.709 A 
HETATM   12  N8  UNL     1     -13.656  -8.493  25.908  1.00  0.00    -0.022 N 
ATOM     13  H8  UNL     1     -13.491  -8.577  26.910  1.00  0.00     0.203 HD
HETATM   14  C10 UNL     1     -12.689  -8.816  25.037  1.00  0.00     0.694 A 
HETATM   15  N10 UNL     1     -12.886  -8.714  23.720  1.00  0.00    -0.140 N 
ATOM     16  H10 UNL     1     -12.138  -8.965  23.074  1.00  0.00     0.189 HD
HETATM   17  C11 UNL     1     -14.089  -8.274  23.232  1.00  0.00     0.360 A 
HETATM   18  O3  UNL     1     -14.193  -8.206  21.979  1.00  0.00    -0.245 OA
HETATM   19  N11 UNL     1     -15.036  -7.957  24.120  1.00  0.00    -0.087 N 
ENDROOT
BRANCH   4  20
HETATM   20  N3  UNL     1     -16.650  -7.323  21.604  1.00  0.00    -0.285 N 
ATOM     21  H3  UNL     1     -16.028  -6.601  21.241  1.00  0.00     0.188 HD
BRANCH  20  22
HETATM   22  N4  UNL     1     -17.005  -8.352  20.748  1.00  0.00    -0.311 N 
ATOM     23  H4  UNL     1     -16.594  -9.273  20.899  1.00  0.00     0.182 HD
BRANCH  22  24
HETATM   24  C4  UNL     1     -17.935  -8.182  19.646  1.00  0.00     0.318 C 
BRANCH  24  25
HETATM   25  O1  UNL     1     -19.247  -7.974  20.091  1.00  0.00    -0.299 OA
BRANCH  25  26
HETATM   26  C5  UNL     1     -19.916  -9.048  20.658  1.00  0.00     0.286 C 
HETATM   27  O2  UNL     1     -19.622  -9.445  21.831  1.00  0.00    -0.263 OA
BRANCH  26  28
HETATM   28  C6  UNL     1     -20.989  -9.782  19.946  1.00  0.00     0.340 C 
BRANCH  28  29
HETATM   29  N5  UNL     1     -21.150  -9.241  18.610  1.00  0.00    -0.070 N 
ATOM     30  H53 UNL     1     -21.831  -9.767  18.063  1.00  0.00     0.274 HD
ATOM     31  H52 UNL     1     -21.629  -8.341  18.616  1.00  0.00     0.274 HD
ATOM     32  H51 UNL     1     -20.243  -9.190  18.147  1.00  0.00     0.274 HD
ENDBRANCH  28  29
ENDBRANCH  26  28
ENDBRANCH  25  26
ENDBRANCH  24  25
ENDBRANCH  22  24
ENDBRANCH  20  22
ENDBRANCH   4  20
BRANCH   1  33
HETATM   33  N1  UNL     1     -20.080  -6.165  24.308  1.00  0.00    -0.230 N 
HETATM   34  C1  UNL     1     -20.450  -4.810  24.056  1.00  0.00     0.165 C 
ATOM     35  H1  UNL     1     -20.804  -6.823  24.594  1.00  0.00     0.177 HD
ENDBRANCH   1  33
BRANCH  14  36
HETATM   36  N9  UNL     1     -11.517  -9.244  25.435  1.00  0.00    -0.234 N 
ATOM     37  H92 UNL     1     -10.914  -8.573  25.913  1.00  0.00     0.174 HD
ATOM     38  H91 UNL     1     -11.213 -10.204  25.276  1.00  0.00     0.174 HD
ENDBRANCH  14  36
TORSDOF 9
ENDMDL
MODEL 4
REMARK VINA RESULT: -7.624246790      2.400      7.092
REMARK  9 active torsions:
REMARK  status: ('A' for Active; 'I' for Inactive)
REMARK    1  A    between atoms: N1_2  and  C2_4 
REMARK    2  A    between atoms: C3_7  and  N3_8 
REMARK    3  A    between atoms: N3_8  and  N4_10 
REMARK    4  A    between atoms: N4_10  and  C4_12 
REMARK    5  A    between atoms: C4_12  and  O1_13 
REMARK    6  A    between atoms: O1_13  and  C5_14 
REMARK    7  A    between atoms: C5_14  and  C6_16 
REMARK    8  A    between atoms: C6_16  and  N5_17 
REMARK    9  A    between atoms: C10_30  and  N9_31 
ROOT
HETATM    1  C2  UNL     1     -18.862  -6.718  23.936  1.00  0.00     0.681 A 
HETATM    2  N2  UNL     1     -18.342  -7.062  22.746  1.00  0.00    -0.173 N 
ATOM      3  H2  UNL     1     -18.922  -6.966  21.912  1.00  0.00     0.186 HD
HETATM    4  C3  UNL     1     -17.087  -7.528  22.611  1.00  0.00     0.167 A 
HETATM    5  C7  UNL     1     -16.321  -7.652  23.742  1.00  0.00     0.152 A 
HETATM    6  C8  UNL     1     -16.844  -7.298  24.993  1.00  0.00     0.168 A 
HETATM    7  N6  UNL     1     -18.111  -6.840  25.034  1.00  0.00    -0.174 N 
ATOM      8  H6  UNL     1     -18.511  -6.577  25.935  1.00  0.00     0.186 HD
HETATM    9  N7  UNL     1     -15.915  -7.505  25.943  1.00  0.00    -0.172 N 
ATOM     10  H7  UNL     1     -16.010  -7.339  26.945  1.00  0.00     0.186 HD
HETATM   11  C9  UNL     1     -14.832  -7.979  25.297  1.00  0.00     0.709 A 
HETATM   12  N8  UNL     1     -13.623  -8.348  25.780  1.00  0.00    -0.022 N 
ATOM     13  H8  UNL     1     -13.431  -8.285  26.779  1.00  0.00     0.203 HD
HETATM   14  C10 UNL     1     -12.678  -8.797  24.941  1.00  0.00     0.694 A 
HETATM   15  N10 UNL     1     -12.910  -8.889  23.629  1.00  0.00    -0.140 N 
ATOM     16  H10 UNL     1     -12.177  -9.234  23.007  1.00  0.00     0.189 HD
HETATM   17  C11 UNL     1     -14.125  -8.523  23.113  1.00  0.00     0.360 A 
HETATM   18  O3  UNL     1     -14.261  -8.639  21.867  1.00  0.00    -0.245 OA
HETATM   19  N11 UNL     1     -15.049  -8.078  23.969  1.00  0.00    -0.087 N 
ENDROOT
BRANCH   4  20
HETATM   20  N3  UNL     1     -16.729  -7.816  21.430  1.00  0.00    -0.285 N 
ATOM     21  H3  UNL     1     -16.896  -8.768  21.106  1.00  0.00     0.188 HD
BRANCH  20  22
HETATM   22  N4  UNL     1     -16.128  -6.935  20.547  1.00  0.00    -0.311 N 
ATOM     23  H4  UNL     1     -15.405  -6.308  20.901  1.00  0.00     0.182 HD
BRANCH  22  24
HETATM   24  C4  UNL     1     -16.477  -6.861  19.140  1.00  0.00     0.318 C 
BRANCH  24  25
HETATM   25  O1  UNL     1     -17.078  -5.639  18.809  1.00  0.00    -0.299 OA
BRANCH  25  26
HETATM   26  C5  UNL     1     -18.309  -5.350  19.378  1.00  0.00     0.286 C 
HETATM   27  O2  UNL     1     -18.391  -5.020  20.605  1.00  0.00    -0.263 OA
BRANCH  26  28
HETATM   28  C6  UNL     1     -19.574  -5.406  18.607  1.00  0.00     0.340 C 
BRANCH  28  29
HETATM   29  N5  UNL     1     -20.146  -4.078  18.506  1.00  0.00    -0.070 N 
ATOM     30  H53 UNL     1     -20.485  -3.877  17.564  1.00  0.00     0.274 HD
ATOM     31  H52 UNL     1     -21.035  -4.005  19.001  1.00  0.00     0.274 HD
ATOM     32  H51 UNL     1     -19.471  -3.385  18.826  1.00  0.00     0.274 HD
ENDBRANCH  28  29
ENDBRANCH  26  28
ENDBRANCH  25  26
ENDBRANCH  24  25
ENDBRANCH  22  24
ENDBRANCH  20  22
ENDBRANCH   4  20
BRANCH   1  33
HETATM   33  N1  UNL     1     -20.090  -6.266  24.022  1.00  0.00    -0.230 N 
HETATM   34  C1  UNL     1     -20.401  -4.876  24.100  1.00  0.00     0.165 C 
ATOM     35  H1  UNL     1     -20.856  -6.939  24.035  1.00  0.00     0.177 HD
ENDBRANCH   1  33
BRANCH  14  36
HETATM   36  N9  UNL     1     -11.495  -9.165  25.367  1.00  0.00    -0.234 N 
ATOM     37  H92 UNL     1     -10.685  -8.738  24.917  1.00  0.00     0.174 HD
ATOM     38  H91 UNL     1     -11.381  -9.848  26.115  1.00  0.00     0.174 HD
ENDBRANCH  14  36
TORSDOF 9
ENDMDL
MODEL 5
REMARK VINA RESULT: -7.605001745      2.410      4.525
REMARK  9 active torsions:
REMARK  status: ('A' for Active; 'I' for Inactive)
REMARK    1  A    between atoms: N1_2  and  C2_4 
REMARK    2  A    between atoms: C3_7  and  N3_8 
REMARK    3  A    between atoms: N3_8  and  N4_10 
REMARK    4  A    between atoms: N4_10  and  C4_12 
REMARK    5  A    between atoms: C4_12  and  O1_13 
REMARK    6  A    between atoms: O1_13  and  C5_14 
REMARK    7  A    between atoms: C5_14  and  C6_16 
REMARK    8  A    between atoms: C6_16  and  N5_17 
REMARK    9  A    between atoms: C10_30  and  N9_31 
ROOT
HETATM    1  C2  UNL     1     -17.971  -3.975  23.376  1.00  0.00     0.681 A 
HETATM    2  N2  UNL     1     -16.987  -4.859  23.149  1.00  0.00    -0.173 N 
ATOM      3  H2  UNL     1     -16.052  -4.651  23.500  1.00  0.00     0.186 HD
HETATM    4  C3  UNL     1     -17.186  -6.008  22.477  1.00  0.00     0.167 A 
HETATM    5  C7  UNL     1     -18.448  -6.271  22.012  1.00  0.00     0.152 A 
HETATM    6  C8  UNL     1     -19.491  -5.362  22.238  1.00  0.00     0.168 A 
HETATM    7  N6  UNL     1     -19.200  -4.236  22.922  1.00  0.00    -0.174 N 
ATOM      8  H6  UNL     1     -19.944  -3.561  23.097  1.00  0.00     0.186 HD
HETATM    9  N7  UNL     1     -20.625  -5.833  21.693  1.00  0.00    -0.172 N 
ATOM     10  H7  UNL     1     -21.543  -5.388  21.698  1.00  0.00     0.186 HD
HETATM   11  C9  UNL     1     -20.298  -7.015  21.136  1.00  0.00     0.709 A 
HETATM   12  N8  UNL     1     -21.067  -7.901  20.459  1.00  0.00    -0.022 N 
ATOM     13  H8  UNL     1     -22.057  -7.708  20.309  1.00  0.00     0.203 HD
HETATM   14  C10 UNL     1     -20.523  -9.031  19.987  1.00  0.00     0.694 A 
HETATM   15  N10 UNL     1     -19.228  -9.302  20.171  1.00  0.00    -0.140 N 
ATOM     16  H10 UNL     1     -18.833 -10.168  19.803  1.00  0.00     0.189 HD
HETATM   17  C11 UNL     1     -18.427  -8.423  20.851  1.00  0.00     0.360 A 
HETATM   18  O3  UNL     1     -17.219  -8.753  20.982  1.00  0.00    -0.245 OA
HETATM   19  N11 UNL     1     -18.992  -7.304  21.313  1.00  0.00    -0.087 N 
ENDROOT
BRANCH   4  20
HETATM   20  N3  UNL     1     -16.167  -6.748  22.334  1.00  0.00    -0.285 N 
ATOM     21  H3  UNL     1     -15.637  -6.657  21.468  1.00  0.00     0.188 HD
BRANCH  20  22
HETATM   22  N4  UNL     1     -15.719  -7.669  23.265  1.00  0.00    -0.311 N 
ATOM     23  H4  UNL     1     -16.346  -7.938  24.023  1.00  0.00     0.182 HD
BRANCH  22  24
HETATM   24  C4  UNL     1     -14.399  -8.272  23.214  1.00  0.00     0.318 C 
BRANCH  24  25
HETATM   25  O1  UNL     1     -13.399  -7.328  22.944  1.00  0.00    -0.299 OA
BRANCH  25  26
HETATM   26  C5  UNL     1     -13.043  -6.454  23.960  1.00  0.00     0.286 C 
HETATM   27  O2  UNL     1     -13.698  -6.431  25.050  1.00  0.00    -0.263 OA
BRANCH  26  28
HETATM   28  C6  UNL     1     -11.901  -5.517  23.838  1.00  0.00     0.340 C 
BRANCH  28  29
HETATM   29  N5  UNL     1     -11.446  -5.474  22.463  1.00  0.00    -0.070 N 
ATOM     30  H53 UNL     1     -10.819  -6.247  22.241  1.00  0.00     0.274 HD
ATOM     31  H52 UNL     1     -12.193  -5.696  21.805  1.00  0.00     0.274 HD
ATOM     32  H51 UNL     1     -11.021  -4.568  22.268  1.00  0.00     0.274 HD
ENDBRANCH  28  29
ENDBRANCH  26  28
ENDBRANCH  25  26
ENDBRANCH  24  25
ENDBRANCH  22  24
ENDBRANCH  20  22
ENDBRANCH   4  20
BRANCH   1  33
HETATM   33  N1  UNL     1     -17.734  -2.867  24.037  1.00  0.00    -0.230 N 
HETATM   34  C1  UNL     1     -18.720  -1.854  24.231  1.00  0.00     0.165 C 
ATOM     35  H1  UNL     1     -16.804  -2.723  24.429  1.00  0.00     0.177 HD
ENDBRANCH   1  33
BRANCH  14  36
HETATM   36  N9  UNL     1     -21.230  -9.915  19.327  1.00  0.00    -0.234 N 
ATOM     37  H92 UNL     1     -22.238  -9.916  19.485  1.00  0.00     0.174 HD
ATOM     38  H91 UNL     1     -20.798 -10.577  18.683  1.00  0.00     0.174 HD
ENDBRANCH  14  36
TORSDOF 9
ENDMDL
