MODEL 1
REMARK VINA RESULT: -8.166507651      0.000      0.000
REMARK  8 active torsions:
REMARK  status: ('A' for Active; 'I' for Inactive)
REMARK    1  A    between atoms: C3_8  and  N4_9 
REMARK    2  A    between atoms: N4_9  and  C4_11 
REMARK    3  A    between atoms: C4_11  and  C5_12 
REMARK    4  A    between atoms: C5_12  and  N5_13 
REMARK    5  A    between atoms: N5_13  and  C6_15 
REMARK    6  A    between atoms: C8_19  and  C9_20 
REMARK    7  A    between atoms: C9_20  and  O2_21 
REMARK    8  A    between atoms: C9_20  and  O3_23 
ROOT
HETATM    1  N4  UNL     1     -21.930  -3.702  19.120  1.00  0.00    -0.369 N 
ATOM      2  H4  UNL     1     -22.696  -3.974  18.503  1.00  0.00     0.161 HD
ENDROOT
BRANCH   1   3
HETATM    3  C3  UNL     1     -21.035  -4.579  19.229  1.00  0.00     0.187 A 
HETATM    4  C2  UNL     1     -21.127  -5.765  19.911  1.00  0.00     0.313 A 
HETATM    5  N3  UNL     1     -20.085  -6.647  19.961  1.00  0.00    -0.191 N 
HETATM    6  O1  UNL     1     -22.159  -6.082  20.507  1.00  0.00    -0.262 OA
HETATM    7  N2  UNL     1     -20.208  -7.791  20.633  1.00  0.00    -0.262 N 
HETATM    8  C10 UNL     1     -18.927  -6.368  19.334  1.00  0.00     0.214 A 
HETATM    9  C1  UNL     1     -19.232  -8.690  20.720  1.00  0.00     0.210 A 
ATOM     10  H2  UNL     1     -21.092  -7.986  21.102  1.00  0.00     0.190 HD
HETATM   11  N1  UNL     1     -19.408  -9.905  21.453  1.00  0.00    -0.062 NA
HETATM   12  N10 UNL     1     -18.067  -8.424  20.096  1.00  0.00    -0.293 N 
HETATM   13  C11 UNL     1     -17.893  -7.282  19.404  1.00  0.00     0.295 A 
ATOM     14  H10 UNL     1     -17.304  -9.099  20.149  1.00  0.00     0.172 HD
HETATM   15  O4  UNL     1     -16.810  -7.027  18.820  1.00  0.00    -0.264 OA
HETATM   16  N9  UNL     1     -18.852  -5.213  18.675  1.00  0.00    -0.278 N 
HETATM   17  N8  UNL     1     -19.843  -4.339  18.608  1.00  0.00    -0.279 N 
ATOM     18  H9  UNL     1     -17.981  -4.989  18.195  1.00  0.00     0.189 HD
ATOM     19  H8  UNL     1     -19.715  -3.473  18.084  1.00  0.00     0.189 HD
ENDBRANCH   1   3
BRANCH   1  20
HETATM   20  C4  UNL     1     -22.086  -2.420  19.679  1.00  0.00     0.141 C 
BRANCH  20  21
HETATM   21  C5  UNL     1     -23.134  -2.494  20.798  1.00  0.00     0.157 C 
BRANCH  21  22
HETATM   22  N5  UNL     1     -22.459  -2.176  22.027  1.00  0.00    -0.224 N 
ATOM     23  H5  UNL     1     -22.685  -1.299  22.496  1.00  0.00     0.177 HD
BRANCH  22  24
HETATM   24  C6  UNL     1     -21.579  -2.958  22.562  1.00  0.00     0.678 A 
HETATM   25  N6  UNL     1     -20.273  -2.786  22.763  1.00  0.00    -0.200 N 
HETATM   26  C7  UNL     1     -19.744  -3.874  23.359  1.00  0.00     0.136 A 
ATOM     27  H6  UNL     1     -19.747  -1.951  22.504  1.00  0.00     0.183 HD
HETATM   28  C8  UNL     1     -20.776  -4.771  23.538  1.00  0.00     0.096 A 
HETATM   29  N7  UNL     1     -21.883  -4.183  23.042  1.00  0.00    -0.189 N 
ATOM     30  H7  UNL     1     -22.813  -4.602  23.030  1.00  0.00     0.184 HD
BRANCH  28  31
HETATM   31  C9  UNL     1     -20.700  -6.138  24.162  1.00  0.00     0.307 C 
BRANCH  31  32
HETATM   32  O2  UNL     1     -21.211  -7.109  23.306  1.00  0.00    -0.366 OA
ATOM     33  H2  UNL     1     -22.045  -7.439  23.621  1.00  0.00     0.213 HD
ENDBRANCH  31  32
BRANCH  31  34
HETATM   34  O3  UNL     1     -21.511  -6.141  25.316  1.00  0.00    -0.366 OA
ATOM     35  H3  UNL     1     -20.976  -6.409  26.054  1.00  0.00     0.213 HD
ENDBRANCH  31  34
ENDBRANCH  28  31
ENDBRANCH  22  24
ENDBRANCH  21  22
ENDBRANCH  20  21
ENDBRANCH   1  20
TORSDOF 8
ENDMDL
MODEL 2
REMARK VINA RESULT: -8.129313426      2.690      4.252
REMARK  8 active torsions:
REMARK  status: ('A' for Active; 'I' for Inactive)
REMARK    1  A    between atoms: C3_8  and  N4_9 
REMARK    2  A    between atoms: N4_9  and  C4_11 
REMARK    3  A    between atoms: C4_11  and  C5_12 
REMARK    4  A    between atoms: C5_12  and  N5_13 
REMARK    5  A    between atoms: N5_13  and  C6_15 
REMARK    6  A    between atoms: C8_19  and  C9_20 
REMARK    7  A    between atoms: C9_20  and  O2_21 
REMARK    8  A    between atoms: C9_20  and  O3_23 
ROOT
HETATM    1  N4  UNL     1     -19.359  -9.203  19.946  1.00  0.00    -0.369 N 
ATOM      2  H4  UNL     1     -19.116 -10.152  19.663  1.00  0.00     0.161 HD
ENDROOT
BRANCH   1   3
HETATM    3  C3  UNL     1     -18.444  -8.615  20.578  1.00  0.00     0.187 A 
HETATM    4  C2  UNL     1     -18.495  -8.176  21.876  1.00  0.00     0.313 A 
HETATM    5  N3  UNL     1     -17.434  -7.547  22.463  1.00  0.00    -0.191 N 
HETATM    6  O1  UNL     1     -19.505  -8.332  22.566  1.00  0.00    -0.262 OA
HETATM    7  N2  UNL     1     -17.516  -7.133  23.726  1.00  0.00    -0.262 N 
HETATM    8  C10 UNL     1     -16.297  -7.341  21.771  1.00  0.00     0.214 A 
HETATM    9  C1  UNL     1     -16.520  -6.515  24.354  1.00  0.00     0.210 A 
ATOM     10  H2  UNL     1     -18.384  -7.297  24.236  1.00  0.00     0.190 HD
HETATM   11  N1  UNL     1     -16.653  -6.087  25.712  1.00  0.00    -0.062 NA
HETATM   12  N10 UNL     1     -15.376  -6.303  23.674  1.00  0.00    -0.293 N 
HETATM   13  C11 UNL     1     -15.243  -6.703  22.395  1.00  0.00     0.295 A 
ATOM     14  H10 UNL     1     -14.598  -5.831  24.135  1.00  0.00     0.172 HD
HETATM   15  O4  UNL     1     -14.179  -6.508  21.754  1.00  0.00    -0.264 OA
HETATM   16  N9  UNL     1     -16.262  -7.773  20.512  1.00  0.00    -0.278 N 
HETATM   17  N8  UNL     1     -17.272  -8.385  19.916  1.00  0.00    -0.279 N 
ATOM     18  H9  UNL     1     -15.407  -7.624  19.976  1.00  0.00     0.189 HD
ATOM     19  H8  UNL     1     -17.175  -8.690  18.947  1.00  0.00     0.189 HD
ENDBRANCH   1   3
BRANCH   1  20
HETATM   20  C4  UNL     1     -20.652  -8.811  19.550  1.00  0.00     0.141 C 
BRANCH  20  21
HETATM   21  C5  UNL     1     -20.553  -7.481  18.789  1.00  0.00     0.157 C 
BRANCH  21  22
HETATM   22  N5  UNL     1     -21.338  -6.522  19.517  1.00  0.00    -0.224 N 
ATOM     23  H5  UNL     1     -22.305  -6.365  19.233  1.00  0.00     0.177 HD
BRANCH  22  24
HETATM   24  C6  UNL     1     -20.869  -5.850  20.517  1.00  0.00     0.678 A 
HETATM   25  N6  UNL     1     -19.983  -4.854  20.556  1.00  0.00    -0.200 N 
HETATM   26  C7  UNL     1     -19.788  -4.451  21.828  1.00  0.00     0.136 A 
ATOM     27  H6  UNL     1     -19.520  -4.454  19.740  1.00  0.00     0.183 HD
HETATM   28  C8  UNL     1     -20.595  -5.238  22.623  1.00  0.00     0.096 A 
HETATM   29  N7  UNL     1     -21.241  -6.081  21.794  1.00  0.00    -0.189 N 
ATOM     30  H7  UNL     1     -21.913  -6.790  22.089  1.00  0.00     0.184 HD
BRANCH  28  31
HETATM   31  C9  UNL     1     -20.737  -5.180  24.120  1.00  0.00     0.307 C 
BRANCH  31  32
HETATM   32  O2  UNL     1     -19.513  -4.926  24.731  1.00  0.00    -0.366 OA
ATOM     33  H2  UNL     1     -19.399  -5.465  25.505  1.00  0.00     0.213 HD
ENDBRANCH  31  32
BRANCH  31  34
HETATM   34  O3  UNL     1     -21.167  -6.446  24.571  1.00  0.00    -0.366 OA
ATOM     35  H3  UNL     1     -20.496  -6.800  25.142  1.00  0.00     0.213 HD
ENDBRANCH  31  34
ENDBRANCH  28  31
ENDBRANCH  22  24
ENDBRANCH  21  22
ENDBRANCH  20  21
ENDBRANCH   1  20
TORSDOF 8
ENDMDL
MODEL 3
REMARK VINA RESULT: -7.863214301      2.233      3.074
REMARK  8 active torsions:
REMARK  status: ('A' for Active; 'I' for Inactive)
REMARK    1  A    between atoms: C3_8  and  N4_9 
REMARK    2  A    between atoms: N4_9  and  C4_11 
REMARK    3  A    between atoms: C4_11  and  C5_12 
REMARK    4  A    between atoms: C5_12  and  N5_13 
REMARK    5  A    between atoms: N5_13  and  C6_15 
REMARK    6  A    between atoms: C8_19  and  C9_20 
REMARK    7  A    between atoms: C9_20  and  O2_21 
REMARK    8  A    between atoms: C9_20  and  O3_23 
ROOT
HETATM    1  N4  UNL     1     -21.669  -4.048  21.066  1.00  0.00    -0.369 N 
ATOM      2  H4  UNL     1     -21.369  -3.353  20.382  1.00  0.00     0.161 HD
ENDROOT
BRANCH   1   3
HETATM    3  C3  UNL     1     -21.153  -5.181  20.893  1.00  0.00     0.187 A 
HETATM    4  C2  UNL     1     -19.843  -5.449  20.588  1.00  0.00     0.313 A 
HETATM    5  N3  UNL     1     -19.391  -6.727  20.422  1.00  0.00    -0.191 N 
HETATM    6  O1  UNL     1     -19.020  -4.541  20.450  1.00  0.00    -0.262 OA
HETATM    7  N2  UNL     1     -18.112  -6.952  20.126  1.00  0.00    -0.262 N 
HETATM    8  C10 UNL     1     -20.233  -7.769  20.557  1.00  0.00     0.214 A 
HETATM    9  C1  UNL     1     -17.610  -8.171  19.952  1.00  0.00     0.210 A 
ATOM     10  H2  UNL     1     -17.488  -6.151  20.028  1.00  0.00     0.190 HD
HETATM   11  N1  UNL     1     -16.230  -8.365  19.635  1.00  0.00    -0.062 NA
HETATM   12  N10 UNL     1     -18.442  -9.224  20.085  1.00  0.00    -0.293 N 
HETATM   13  C11 UNL     1     -19.744  -9.049  20.384  1.00  0.00     0.295 A 
ATOM     14  H10 UNL     1     -18.079 -10.169  19.957  1.00  0.00     0.172 HD
HETATM   15  O4  UNL     1     -20.524 -10.026  20.508  1.00  0.00    -0.264 OA
HETATM   16  N9  UNL     1     -21.502  -7.495  20.854  1.00  0.00    -0.278 N 
HETATM   17  N8  UNL     1     -21.969  -6.269  21.020  1.00  0.00    -0.279 N 
ATOM     18  H9  UNL     1     -22.151  -8.275  20.959  1.00  0.00     0.189 HD
ATOM     19  H8  UNL     1     -22.955  -6.133  21.247  1.00  0.00     0.189 HD
ENDBRANCH   1   3
BRANCH   1  20
HETATM   20  C4  UNL     1     -22.580  -3.546  22.015  1.00  0.00     0.141 C 
BRANCH  20  21
HETATM   21  C5  UNL     1     -21.790  -2.962  23.195  1.00  0.00     0.157 C 
BRANCH  21  22
HETATM   22  N5  UNL     1     -21.803  -3.950  24.239  1.00  0.00    -0.224 N 
ATOM     23  H5  UNL     1     -22.477  -3.850  24.999  1.00  0.00     0.177 HD
BRANCH  22  24
HETATM   24  C6  UNL     1     -20.996  -4.959  24.255  1.00  0.00     0.678 A 
HETATM   25  N6  UNL     1     -21.212  -6.241  24.551  1.00  0.00    -0.200 N 
HETATM   26  C7  UNL     1     -20.070  -6.948  24.433  1.00  0.00     0.136 A 
ATOM     27  H6  UNL     1     -22.113  -6.631  24.827  1.00  0.00     0.183 HD
HETATM   28  C8  UNL     1     -19.090  -6.059  24.042  1.00  0.00     0.096 A 
HETATM   29  N7  UNL     1     -19.686  -4.854  23.942  1.00  0.00    -0.189 N 
ATOM     30  H7  UNL     1     -19.217  -3.990  23.670  1.00  0.00     0.184 HD
BRANCH  28  31
HETATM   31  C9  UNL     1     -17.639  -6.357  23.777  1.00  0.00     0.307 C 
BRANCH  31  32
HETATM   32  O2  UNL     1     -17.128  -5.525  22.786  1.00  0.00    -0.366 OA
ATOM     33  H2  UNL     1     -16.179  -5.544  22.778  1.00  0.00     0.213 HD
ENDBRANCH  31  32
BRANCH  31  34
HETATM   34  O3  UNL     1     -17.543  -7.679  23.292  1.00  0.00    -0.366 OA
ATOM     35  H3  UNL     1     -17.043  -7.662  22.485  1.00  0.00     0.213 HD
ENDBRANCH  31  34
ENDBRANCH  28  31
ENDBRANCH  22  24
ENDBRANCH  21  22
ENDBRANCH  20  21
ENDBRANCH   1  20
TORSDOF 8
ENDMDL
MODEL 4
REMARK VINA RESULT: -7.853770086      2.745      4.937
REMARK  8 active torsions:
REMARK  status: ('A' for Active; 'I' for Inactive)
REMARK    1  A    between atoms: C3_8  and  N4_9 
REMARK    2  A    between atoms: N4_9  and  C4_11 
REMARK    3  A    between atoms: C4_11  and  C5_12 
REMARK    4  A    between atoms: C5_12  and  N5_13 
REMARK    5  A    between atoms: N5_13  and  C6_15 
REMARK    6  A    between atoms: C8_19  and  C9_20 
REMARK    7  A    between atoms: C9_20  and  O2_21 
REMARK    8  A    between atoms: C9_20  and  O3_23 
ROOT
HETATM    1  N4  UNL     1     -15.384  -7.156  21.346  1.00  0.00    -0.369 N 
ATOM      2  H4  UNL     1     -14.771  -7.200  20.531  1.00  0.00     0.161 HD
ENDROOT
BRANCH   1   3
HETATM    3  C3  UNL     1     -16.573  -7.485  21.101  1.00  0.00     0.187 A 
HETATM    4  C2  UNL     1     -17.634  -6.641  20.901  1.00  0.00     0.313 A 
HETATM    5  N3  UNL     1     -18.889  -7.113  20.640  1.00  0.00    -0.191 N 
HETATM    6  O1  UNL     1     -17.496  -5.416  20.950  1.00  0.00    -0.262 OA
HETATM    7  N2  UNL     1     -19.898  -6.264  20.451  1.00  0.00    -0.262 N 
HETATM    8  C10 UNL     1     -19.116  -8.438  20.572  1.00  0.00     0.214 A 
HETATM    9  C1  UNL     1     -21.141  -6.660  20.194  1.00  0.00     0.210 A 
ATOM     10  H2  UNL     1     -19.709  -5.264  20.506  1.00  0.00     0.190 HD
HETATM   11  N1  UNL     1     -22.194  -5.713  19.997  1.00  0.00    -0.062 NA
HETATM   12  N10 UNL     1     -21.383  -7.985  20.122  1.00  0.00    -0.293 N 
HETATM   13  C11 UNL     1     -20.397  -8.884  20.305  1.00  0.00     0.295 A 
ATOM     14  H10 UNL     1     -22.329  -8.312  19.925  1.00  0.00     0.172 HD
HETATM   15  O4  UNL     1     -20.615 -10.119  20.240  1.00  0.00    -0.264 OA
HETATM   16  N9  UNL     1     -18.076  -9.248  20.768  1.00  0.00    -0.278 N 
HETATM   17  N8  UNL     1     -16.850  -8.820  21.022  1.00  0.00    -0.279 N 
ATOM     18  H9  UNL     1     -18.234 -10.254  20.718  1.00  0.00     0.189 HD
ATOM     19  H8  UNL     1     -16.101  -9.498  21.162  1.00  0.00     0.189 HD
ENDBRANCH   1   3
BRANCH   1  20
HETATM   20  C4  UNL     1     -14.730  -6.738  22.520  1.00  0.00     0.141 C 
BRANCH  20  21
HETATM   21  C5  UNL     1     -15.318  -7.507  23.712  1.00  0.00     0.157 C 
BRANCH  21  22
HETATM   22  N5  UNL     1     -15.905  -6.532  24.591  1.00  0.00    -0.224 N 
ATOM     23  H5  UNL     1     -15.341  -6.161  25.356  1.00  0.00     0.177 HD
BRANCH  22  24
HETATM   24  C6  UNL     1     -17.117  -6.107  24.451  1.00  0.00     0.678 A 
HETATM   25  N6  UNL     1     -17.583  -4.903  24.120  1.00  0.00    -0.200 N 
HETATM   26  C7  UNL     1     -18.932  -4.914  24.093  1.00  0.00     0.136 A 
ATOM     27  H6  UNL     1     -17.003  -4.089  23.916  1.00  0.00     0.183 HD
HETATM   28  C8  UNL     1     -19.326  -6.193  24.425  1.00  0.00     0.096 A 
HETATM   29  N7  UNL     1     -18.197  -6.898  24.637  1.00  0.00    -0.189 N 
ATOM     30  H7  UNL     1     -18.162  -7.883  24.901  1.00  0.00     0.184 HD
BRANCH  28  31
HETATM   31  C9  UNL     1     -20.733  -6.717  24.533  1.00  0.00     0.307 C 
BRANCH  31  32
HETATM   32  O2  UNL     1     -20.788  -7.844  25.346  1.00  0.00    -0.366 OA
ATOM     33  H2  UNL     1     -21.412  -8.478  25.011  1.00  0.00     0.213 HD
ENDBRANCH  31  32
BRANCH  31  34
HETATM   34  O3  UNL     1     -21.153  -7.116  23.248  1.00  0.00    -0.366 OA
ATOM     35  H3  UNL     1     -20.650  -6.629  22.606  1.00  0.00     0.213 HD
ENDBRANCH  31  34
ENDBRANCH  28  31
ENDBRANCH  22  24
ENDBRANCH  21  22
ENDBRANCH  20  21
ENDBRANCH   1  20
TORSDOF 8
ENDMDL
MODEL 5
REMARK VINA RESULT: -7.826201315      2.357      3.757
REMARK  8 active torsions:
REMARK  status: ('A' for Active; 'I' for Inactive)
REMARK    1  A    between atoms: C3_8  and  N4_9 
REMARK    2  A    between atoms: N4_9  and  C4_11 
REMARK    3  A    between atoms: C4_11  and  C5_12 
REMARK    4  A    between atoms: C5_12  and  N5_13 
REMARK    5  A    between atoms: N5_13  and  C6_15 
REMARK    6  A    between atoms: C8_19  and  C9_20 
REMARK    7  A    between atoms: C9_20  and  O2_21 
REMARK    8  A    between atoms: C9_20  and  O3_23 
ROOT
HETATM    1  N4  UNL     1     -18.870  -4.230  22.605  1.00  0.00    -0.369 N 
ATOM      2  H4  UNL     1     -18.208  -3.676  22.061  1.00  0.00     0.161 HD
ENDROOT
BRANCH   1   3
HETATM    3  C3  UNL     1     -19.098  -5.366  22.115  1.00  0.00     0.187 A 
HETATM    4  C2  UNL     1     -19.650  -5.636  20.889  1.00  0.00     0.313 A 
HETATM    5  N3  UNL     1     -19.852  -6.916  20.458  1.00  0.00    -0.191 N 
HETATM    6  O1  UNL     1     -19.986  -4.728  20.125  1.00  0.00    -0.262 OA
HETATM    7  N2  UNL     1     -20.390  -7.143  19.261  1.00  0.00    -0.262 N 
HETATM    8  C10 UNL     1     -19.509  -7.958  21.238  1.00  0.00     0.214 A 
HETATM    9  C1  UNL     1     -20.613  -8.364  18.784  1.00  0.00     0.210 A 
ATOM     10  H2  UNL     1     -20.643  -6.342  18.683  1.00  0.00     0.190 HD
HETATM   11  N1  UNL     1     -21.193  -8.560  17.493  1.00  0.00    -0.062 NA
HETATM   12  N10 UNL     1     -20.274  -9.417  19.555  1.00  0.00    -0.293 N 
HETATM   13  C11 UNL     1     -19.726  -9.241  20.773  1.00  0.00     0.295 A 
ATOM     14  H10 UNL     1     -20.435 -10.363  19.210  1.00  0.00     0.172 HD
HETATM   15  O4  UNL     1     -19.409 -10.217  21.497  1.00  0.00    -0.264 OA
HETATM   16  N9  UNL     1     -18.974  -7.682  22.427  1.00  0.00    -0.278 N 
HETATM   17  N8  UNL     1     -18.766  -6.454  22.871  1.00  0.00    -0.279 N 
ATOM     18  H9  UNL     1     -18.710  -8.462  23.028  1.00  0.00     0.189 HD
ATOM     19  H8  UNL     1     -18.352  -6.316  23.794  1.00  0.00     0.189 HD
ENDBRANCH   1   3
BRANCH   1  20
HETATM   20  C4  UNL     1     -19.345  -3.571  23.754  1.00  0.00     0.141 C 
BRANCH  20  21
HETATM   21  C5  UNL     1     -19.954  -2.226  23.333  1.00  0.00     0.157 C 
BRANCH  21  22
HETATM   22  N5  UNL     1     -21.377  -2.415  23.255  1.00  0.00    -0.224 N 
ATOM     23  H5  UNL     1     -21.914  -2.453  24.121  1.00  0.00     0.177 HD
BRANCH  22  24
HETATM   24  C6  UNL     1     -22.003  -2.539  22.131  1.00  0.00     0.678 A 
HETATM   25  N6  UNL     1     -22.264  -1.644  21.178  1.00  0.00    -0.200 N 
HETATM   26  C7  UNL     1     -22.951  -2.220  20.170  1.00  0.00     0.136 A 
ATOM     27  H6  UNL     1     -21.985  -0.663  21.207  1.00  0.00     0.183 HD
HETATM   28  C8  UNL     1     -23.126  -3.544  20.514  1.00  0.00     0.096 A 
HETATM   29  N7  UNL     1     -22.537  -3.708  21.714  1.00  0.00    -0.189 N 
ATOM     30  H7  UNL     1     -22.500  -4.586  22.233  1.00  0.00     0.184 HD
BRANCH  28  31
HETATM   31  C9  UNL     1     -23.832  -4.608  19.718  1.00  0.00     0.307 C 
BRANCH  31  32
HETATM   32  O2  UNL     1     -24.583  -5.439  20.544  1.00  0.00    -0.366 OA
ATOM     33  H2  UNL     1     -24.135  -5.599  21.366  1.00  0.00     0.213 HD
ENDBRANCH  31  32
BRANCH  31  34
HETATM   34  O3  UNL     1     -22.855  -5.417  19.101  1.00  0.00    -0.366 OA
ATOM     35  H3  UNL     1     -23.128  -5.580  18.205  1.00  0.00     0.213 HD
ENDBRANCH  31  34
ENDBRANCH  28  31
ENDBRANCH  22  24
ENDBRANCH  21  22
ENDBRANCH  20  21
ENDBRANCH   1  20
TORSDOF 8
ENDMDL
