MODEL 1
REMARK VINA RESULT: -6.455021821      0.000      0.000
REMARK  9 active torsions:
REMARK  status: ('A' for Active; 'I' for Inactive)
REMARK    1  A    between atoms: N1_5  and  C5_6 
REMARK    2  A    between atoms: C5_6  and  N2_8 
REMARK    3  A    between atoms: N2_8  and  C7_10 
REMARK    4  A    between atoms: C7_10  and  C8_11 
REMARK    5  A    between atoms: C8_11  and  N4_15 
REMARK    6  A    between atoms: N5_18  and  C12_20 
REMARK    7  A    between atoms: C12_20  and  C13_21 
REMARK    8  A    between atoms: C20_29  and  N7_30 
REMARK    9  A    between atoms: N7_30  and  N8_31 
ROOT
HETATM    1  N4  UNL     1      -2.982   4.570  26.367  1.00  0.00    -0.287 N 
HETATM    2  C9  UNL     1      -2.148   3.478  26.645  1.00  0.00     0.102 C 
HETATM    3  C10 UNL     1      -2.502   2.940  28.004  1.00  0.00     0.289 C 
HETATM    4  N5  UNL     1      -2.780   3.928  29.018  1.00  0.00    -0.028 N 
HETATM    5  C11 UNL     1      -1.753   3.509  30.072  1.00  0.00     0.280 C 
HETATM    6  C14 UNL     1      -2.562   5.282  28.675  1.00  0.00     0.207 C 
HETATM    7  C15 UNL     1      -1.175   5.572  28.192  1.00  0.00     0.049 C 
HETATM    8  C16 UNL     1      -0.575   6.866  28.784  1.00  0.00     0.003 C 
HETATM    9  C17 UNL     1      -0.666   6.827  30.290  1.00  0.00     0.000 C 
HETATM   10  C18 UNL     1      -2.118   6.944  30.595  1.00  0.00     0.003 C 
HETATM   11  C19 UNL     1      -3.025   6.363  29.550  1.00  0.00     0.049 C 
HETATM   12  C20 UNL     1      -3.436   5.491  27.348  1.00  0.00     0.226 C 
ENDROOT
BRANCH   1  13
HETATM   13  C8  UNL     1      -3.503   4.793  24.999  1.00  0.00     0.101 C 
HETATM   14  N3  UNL     1      -4.745   4.715  24.786  1.00  0.00    -0.387 N 
ATOM     15  H32 UNL     1      -5.104   4.867  23.843  1.00  0.00     0.157 HD
ATOM     16  H31 UNL     1      -5.432   4.481  25.502  1.00  0.00     0.157 HD
BRANCH  13  17
HETATM   17  C7  UNL     1      -2.532   5.123  23.985  1.00  0.00     0.201 C 
BRANCH  17  18
HETATM   18  N2  UNL     1      -2.164   4.079  23.029  1.00  0.00    -0.355 N 
HETATM   19  C6  UNL     1      -1.076   3.204  23.313  1.00  0.00     0.152 C 
BRANCH  18  20
HETATM   20  C5  UNL     1      -2.938   3.985  21.824  1.00  0.00     0.172 C 
HETATM   21  S1  UNL     1      -3.925   2.616  21.784  1.00  0.00    -0.041 SA
BRANCH  20  22
HETATM   22  N1  UNL     1      -3.016   4.812  20.728  1.00  0.00    -0.358 N 
HETATM   23  C4  UNL     1      -1.761   4.966  19.886  1.00  0.00     0.125 C 
HETATM   24  C3  UNL     1      -1.246   6.365  20.188  1.00  0.00     0.024 C 
HETATM   25  C2  UNL     1      -2.330   7.376  20.382  1.00  0.00    -0.015 C 
HETATM   26  C1  UNL     1      -1.922   8.632  19.586  1.00  0.00     0.010 C 
HETATM   27  C22 UNL     1      -3.679   6.993  19.854  1.00  0.00     0.024 C 
HETATM   28  C21 UNL     1      -4.086   5.565  20.130  1.00  0.00     0.125 C 
ENDBRANCH  20  22
ENDBRANCH  18  20
ENDBRANCH  17  18
ENDBRANCH  13  17
ENDBRANCH   1  13
BRANCH  12  29
HETATM   29  N7  UNL     1      -4.256   6.300  27.326  1.00  0.00    -0.293 NA
BRANCH  29  30
HETATM   30  N8  UNL     1      -5.197   7.203  27.305  1.00  0.00    -0.181 N 
HETATM   31  N9  UNL     1      -6.466   7.084  27.391  1.00  0.00    -0.320 N 
ATOM     32  H92 UNL     1      -6.778   6.118  27.491  1.00  0.00     0.179 HD
ATOM     33  H91 UNL     1      -7.202   7.791  27.375  1.00  0.00     0.179 HD
ATOM     34  H8  UNL     1      -4.865   8.162  27.204  1.00  0.00     0.223 HD
ENDBRANCH  29  30
ENDBRANCH  12  29
BRANCH   4  35
HETATM   35  C12 UNL     1      -3.956   3.549  29.713  1.00  0.00     0.218 C 
BRANCH  35  36
HETATM   36  C13 UNL     1      -5.233   3.184  29.107  1.00  0.00     0.125 C 
HETATM   37  N6  UNL     1      -6.300   4.062  28.965  1.00  0.00    -0.114 NA
ENDBRANCH  35  36
ENDBRANCH   4  35
TORSDOF 9
ENDMDL
MODEL 2
REMARK VINA RESULT: -6.447500921      2.710      8.108
REMARK  9 active torsions:
REMARK  status: ('A' for Active; 'I' for Inactive)
REMARK    1  A    between atoms: N1_5  and  C5_6 
REMARK    2  A    between atoms: C5_6  and  N2_8 
REMARK    3  A    between atoms: N2_8  and  C7_10 
REMARK    4  A    between atoms: C7_10  and  C8_11 
REMARK    5  A    between atoms: C8_11  and  N4_15 
REMARK    6  A    between atoms: N5_18  and  C12_20 
REMARK    7  A    between atoms: C12_20  and  C13_21 
REMARK    8  A    between atoms: C20_29  and  N7_30 
REMARK    9  A    between atoms: N7_30  and  N8_31 
ROOT
HETATM    1  N4  UNL     1      -1.668   3.426  23.341  1.00  0.00    -0.287 N 
HETATM    2  C9  UNL     1      -2.392   2.300  23.760  1.00  0.00     0.102 C 
HETATM    3  C10 UNL     1      -2.620   1.408  22.571  1.00  0.00     0.289 C 
HETATM    4  N5  UNL     1      -2.952   2.078  21.337  1.00  0.00    -0.028 N 
HETATM    5  C11 UNL     1      -4.280   1.387  21.020  1.00  0.00     0.280 C 
HETATM    6  C14 UNL     1      -3.163   3.475  21.399  1.00  0.00     0.207 C 
HETATM    7  C15 UNL     1      -4.211   3.889  22.384  1.00  0.00     0.049 C 
HETATM    8  C16 UNL     1      -5.171   4.971  21.843  1.00  0.00     0.003 C 
HETATM    9  C17 UNL     1      -5.759   4.518  20.529  1.00  0.00     0.000 C 
HETATM   10  C18 UNL     1      -4.626   4.544  19.564  1.00  0.00     0.003 C 
HETATM   11  C19 UNL     1      -3.281   4.272  20.174  1.00  0.00     0.049 C 
HETATM   12  C20 UNL     1      -1.822   4.039  22.070  1.00  0.00     0.226 C 
ENDROOT
BRANCH   1  13
HETATM   13  C8  UNL     1      -0.622   4.015  24.208  1.00  0.00     0.101 C 
HETATM   14  N3  UNL     1       0.584   3.983  23.837  1.00  0.00    -0.387 N 
ATOM     15  H32 UNL     1       1.305   4.389  24.434  1.00  0.00     0.157 HD
ATOM     16  H31 UNL     1       0.902   3.549  22.971  1.00  0.00     0.157 HD
BRANCH  13  17
HETATM   17  C7  UNL     1      -1.071   4.629  25.433  1.00  0.00     0.201 C 
BRANCH  17  18
HETATM   18  N2  UNL     1      -1.137   3.792  26.630  1.00  0.00    -0.355 N 
HETATM   19  C6  UNL     1      -0.328   2.623  26.729  1.00  0.00     0.152 C 
BRANCH  18  20
HETATM   20  C5  UNL     1      -2.034   4.201  27.674  1.00  0.00     0.172 C 
HETATM   21  S1  UNL     1      -3.654   3.914  27.296  1.00  0.00    -0.041 SA
BRANCH  20  22
HETATM   22  N1  UNL     1      -1.796   4.762  28.906  1.00  0.00    -0.358 N 
HETATM   23  C4  UNL     1      -2.952   5.489  29.572  1.00  0.00     0.125 C 
HETATM   24  C3  UNL     1      -2.607   6.966  29.470  1.00  0.00     0.024 C 
HETATM   25  C2  UNL     1      -1.150   7.256  29.631  1.00  0.00    -0.015 C 
HETATM   26  C1  UNL     1      -1.034   8.463  30.584  1.00  0.00     0.010 C 
HETATM   27  C22 UNL     1      -0.337   6.169  30.266  1.00  0.00     0.024 C 
HETATM   28  C21 UNL     1      -0.657   4.775  29.786  1.00  0.00     0.125 C 
ENDBRANCH  20  22
ENDBRANCH  18  20
ENDBRANCH  17  18
ENDBRANCH  13  17
ENDBRANCH   1  13
BRANCH  12  29
HETATM   29  N7  UNL     1      -1.188   4.821  21.509  1.00  0.00    -0.293 NA
BRANCH  29  30
HETATM   30  N8  UNL     1      -0.481   5.720  20.880  1.00  0.00    -0.181 N 
HETATM   31  N9  UNL     1      -0.826   6.829  20.351  1.00  0.00    -0.320 N 
ATOM     32  H92 UNL     1      -1.822   7.030  20.443  1.00  0.00     0.179 HD
ATOM     33  H91 UNL     1      -0.274   7.531  19.859  1.00  0.00     0.179 HD
ATOM     34  H8  UNL     1       0.512   5.499  20.798  1.00  0.00     0.223 HD
ENDBRANCH  29  30
ENDBRANCH  12  29
BRANCH   4  35
HETATM   35  C12 UNL     1      -2.174   1.519  20.292  1.00  0.00     0.218 C 
BRANCH  35  36
HETATM   36  C13 UNL     1      -0.805   1.026  20.407  1.00  0.00     0.125 C 
HETATM   37  N6  UNL     1       0.312   1.850  20.456  1.00  0.00    -0.114 NA
ENDBRANCH  35  36
ENDBRANCH   4  35
TORSDOF 9
ENDMDL
MODEL 3
REMARK VINA RESULT: -6.387953777      5.165      7.671
REMARK  9 active torsions:
REMARK  status: ('A' for Active; 'I' for Inactive)
REMARK    1  A    between atoms: N1_5  and  C5_6 
REMARK    2  A    between atoms: C5_6  and  N2_8 
REMARK    3  A    between atoms: N2_8  and  C7_10 
REMARK    4  A    between atoms: C7_10  and  C8_11 
REMARK    5  A    between atoms: C8_11  and  N4_15 
REMARK    6  A    between atoms: N5_18  and  C12_20 
REMARK    7  A    between atoms: C12_20  and  C13_21 
REMARK    8  A    between atoms: C20_29  and  N7_30 
REMARK    9  A    between atoms: N7_30  and  N8_31 
ROOT
HETATM    1  N4  UNL     1      -0.587   1.479  21.450  1.00  0.00    -0.287 N 
HETATM    2  C9  UNL     1      -1.199   0.341  21.993  1.00  0.00     0.102 C 
HETATM    3  C10 UNL     1      -2.467   0.762  22.683  1.00  0.00     0.289 C 
HETATM    4  N5  UNL     1      -2.393   1.988  23.441  1.00  0.00    -0.028 N 
HETATM    5  C11 UNL     1      -2.841   1.470  24.809  1.00  0.00     0.280 C 
HETATM    6  C14 UNL     1      -1.120   2.588  23.570  1.00  0.00     0.207 C 
HETATM    7  C15 UNL     1      -0.076   1.686  24.151  1.00  0.00     0.049 C 
HETATM    8  C16 UNL     1       0.811   2.373  25.211  1.00  0.00     0.003 C 
HETATM    9  C17 UNL     1      -0.058   3.006  26.270  1.00  0.00     0.000 C 
HETATM   10  C18 UNL     1      -0.733   4.145  25.589  1.00  0.00     0.003 C 
HETATM   11  C19 UNL     1      -0.979   3.939  24.123  1.00  0.00     0.049 C 
HETATM   12  C20 UNL     1      -0.618   2.762  22.058  1.00  0.00     0.226 C 
ENDROOT
BRANCH   1  13
HETATM   13  C8  UNL     1       0.092   1.417  20.135  1.00  0.00     0.101 C 
HETATM   14  N3  UNL     1      -0.490   1.875  19.112  1.00  0.00    -0.387 N 
ATOM     15  H32 UNL     1      -0.022   1.832  18.206  1.00  0.00     0.157 HD
ATOM     16  H31 UNL     1      -1.428   2.276  19.122  1.00  0.00     0.157 HD
BRANCH  13  17
HETATM   17  C7  UNL     1       1.418   0.850  20.121  1.00  0.00     0.201 C 
BRANCH  17  18
HETATM   18  N2  UNL     1       1.536  -0.606  20.177  1.00  0.00    -0.355 N 
HETATM   19  C6  UNL     1       1.651  -1.266  21.435  1.00  0.00     0.152 C 
BRANCH  18  20
HETATM   20  C5  UNL     1       1.528  -1.317  18.929  1.00  0.00     0.172 C 
HETATM   21  S1  UNL     1       2.987  -2.107  18.615  1.00  0.00    -0.041 SA
BRANCH  20  22
HETATM   22  N1  UNL     1       0.547  -1.469  17.978  1.00  0.00    -0.358 N 
HETATM   23  C4  UNL     1      -0.372  -2.671  18.115  1.00  0.00     0.125 C 
HETATM   24  C3  UNL     1       0.047  -3.623  17.008  1.00  0.00     0.024 C 
HETATM   25  C2  UNL     1       0.447  -2.936  15.742  1.00  0.00    -0.015 C 
HETATM   26  C1  UNL     1      -0.227  -3.698  14.584  1.00  0.00     0.010 C 
HETATM   27  C22 UNL     1      -0.008  -1.516  15.601  1.00  0.00     0.024 C 
HETATM   28  C21 UNL     1       0.131  -0.678  16.850  1.00  0.00     0.125 C 
ENDBRANCH  20  22
ENDBRANCH  18  20
ENDBRANCH  17  18
ENDBRANCH  13  17
ENDBRANCH   1  13
BRANCH  12  29
HETATM   29  N7  UNL     1      -0.347   3.810  21.663  1.00  0.00    -0.293 NA
BRANCH  29  30
HETATM   30  N8  UNL     1      -0.028   4.989  21.205  1.00  0.00    -0.181 N 
HETATM   31  N9  UNL     1      -0.732   5.863  20.594  1.00  0.00    -0.320 N 
ATOM     32  H92 UNL     1      -1.700   5.575  20.449  1.00  0.00     0.179 HD
ATOM     33  H91 UNL     1      -0.482   6.785  20.236  1.00  0.00     0.179 HD
ATOM     34  H8  UNL     1       0.944   5.257  21.360  1.00  0.00     0.223 HD
ENDBRANCH  29  30
ENDBRANCH  12  29
BRANCH   4  35
HETATM   35  C12 UNL     1      -3.528   2.780  23.138  1.00  0.00     0.218 C 
BRANCH  35  36
HETATM   36  C13 UNL     1      -4.022   3.101  21.802  1.00  0.00     0.125 C 
HETATM   37  N6  UNL     1      -3.692   4.262  21.114  1.00  0.00    -0.114 NA
ENDBRANCH  35  36
ENDBRANCH   4  35
TORSDOF 9
ENDMDL
MODEL 4
REMARK VINA RESULT: -6.364749951      2.083      7.858
REMARK  9 active torsions:
REMARK  status: ('A' for Active; 'I' for Inactive)
REMARK    1  A    between atoms: N1_5  and  C5_6 
REMARK    2  A    between atoms: C5_6  and  N2_8 
REMARK    3  A    between atoms: N2_8  and  C7_10 
REMARK    4  A    between atoms: C7_10  and  C8_11 
REMARK    5  A    between atoms: C8_11  and  N4_15 
REMARK    6  A    between atoms: N5_18  and  C12_20 
REMARK    7  A    between atoms: C12_20  and  C13_21 
REMARK    8  A    between atoms: C20_29  and  N7_30 
REMARK    9  A    between atoms: N7_30  and  N8_31 
ROOT
HETATM    1  N4  UNL     1      -3.770   4.757  23.482  1.00  0.00    -0.287 N 
HETATM    2  C9  UNL     1      -5.082   4.656  23.000  1.00  0.00     0.102 C 
HETATM    3  C10 UNL     1      -5.067   3.836  21.739  1.00  0.00     0.289 C 
HETATM    4  N5  UNL     1      -3.971   4.093  20.837  1.00  0.00    -0.028 N 
HETATM    5  C11 UNL     1      -4.758   4.443  19.572  1.00  0.00     0.280 C 
HETATM    6  C14 UNL     1      -3.111   5.168  21.157  1.00  0.00     0.207 C 
HETATM    7  C15 UNL     1      -3.813   6.479  21.330  1.00  0.00     0.049 C 
HETATM    8  C16 UNL     1      -3.086   7.661  20.653  1.00  0.00     0.003 C 
HETATM    9  C17 UNL     1      -2.822   7.333  19.203  1.00  0.00     0.000 C 
HETATM   10  C18 UNL     1      -1.792   6.258  19.228  1.00  0.00     0.003 C 
HETATM   11  C19 UNL     1      -1.851   5.364  20.433  1.00  0.00     0.049 C 
HETATM   12  C20 UNL     1      -2.624   4.843  22.649  1.00  0.00     0.226 C 
ENDROOT
BRANCH   1  13
HETATM   13  C8  UNL     1      -3.495   4.715  24.937  1.00  0.00     0.101 C 
HETATM   14  N3  UNL     1      -3.014   5.733  25.509  1.00  0.00    -0.387 N 
ATOM     15  H32 UNL     1      -2.824   5.704  26.511  1.00  0.00     0.157 HD
ATOM     16  H31 UNL     1      -2.773   6.597  25.025  1.00  0.00     0.157 HD
BRANCH  13  17
HETATM   17  C7  UNL     1      -3.835   3.493  25.622  1.00  0.00     0.201 C 
BRANCH  17  18
HETATM   18  N2  UNL     1      -2.972   3.067  26.723  1.00  0.00    -0.355 N 
HETATM   19  C6  UNL     1      -1.810   2.287  26.459  1.00  0.00     0.152 C 
BRANCH  18  20
HETATM   20  C5  UNL     1      -3.348   3.470  28.050  1.00  0.00     0.172 C 
HETATM   21  S1  UNL     1      -4.931   3.035  28.443  1.00  0.00    -0.041 SA
BRANCH  20  22
HETATM   22  N1  UNL     1      -2.643   4.123  29.033  1.00  0.00    -0.358 N 
HETATM   23  C4  UNL     1      -3.311   5.322  29.684  1.00  0.00     0.125 C 
HETATM   24  C3  UNL     1      -2.568   6.534  29.146  1.00  0.00     0.024 C 
HETATM   25  C2  UNL     1      -1.102   6.310  28.964  1.00  0.00    -0.015 C 
HETATM   26  C1  UNL     1      -0.383   7.547  29.538  1.00  0.00     0.010 C 
HETATM   27  C22 UNL     1      -0.527   5.139  29.702  1.00  0.00     0.024 C 
HETATM   28  C21 UNL     1      -1.370   3.888  29.662  1.00  0.00     0.125 C 
ENDBRANCH  20  22
ENDBRANCH  18  20
ENDBRANCH  17  18
ENDBRANCH  13  17
ENDBRANCH   1  13
BRANCH  12  29
HETATM   29  N7  UNL     1      -1.498   4.736  22.871  1.00  0.00    -0.293 NA
BRANCH  29  30
HETATM   30  N8  UNL     1      -0.227   4.597  23.128  1.00  0.00    -0.181 N 
HETATM   31  N9  UNL     1       0.369   4.188  24.181  1.00  0.00    -0.320 N 
ATOM     32  H92 UNL     1      -0.268   3.932  24.935  1.00  0.00     0.179 HD
ATOM     33  H91 UNL     1       1.364   4.079  24.382  1.00  0.00     0.179 HD
ATOM     34  H8  UNL     1       0.394   4.859  22.362  1.00  0.00     0.223 HD
ENDBRANCH  29  30
ENDBRANCH  12  29
BRANCH   4  35
HETATM   35  C12 UNL     1      -3.434   2.852  20.409  1.00  0.00     0.218 C 
BRANCH  35  36
HETATM   36  C13 UNL     1      -3.481   1.594  21.147  1.00  0.00     0.125 C 
HETATM   37  N6  UNL     1      -2.966   0.396  20.667  1.00  0.00    -0.114 NA
ENDBRANCH  35  36
ENDBRANCH   4  35
TORSDOF 9
ENDMDL
MODEL 5
REMARK VINA RESULT: -6.344038791      1.090      1.147
REMARK  9 active torsions:
REMARK  status: ('A' for Active; 'I' for Inactive)
REMARK    1  A    between atoms: N1_5  and  C5_6 
REMARK    2  A    between atoms: C5_6  and  N2_8 
REMARK    3  A    between atoms: N2_8  and  C7_10 
REMARK    4  A    between atoms: C7_10  and  C8_11 
REMARK    5  A    between atoms: C8_11  and  N4_15 
REMARK    6  A    between atoms: N5_18  and  C12_20 
REMARK    7  A    between atoms: C12_20  and  C13_21 
REMARK    8  A    between atoms: C20_29  and  N7_30 
REMARK    9  A    between atoms: N7_30  and  N8_31 
ROOT
HETATM    1  N4  UNL     1      -2.254   4.315  25.918  1.00  0.00    -0.287 N 
HETATM    2  C9  UNL     1      -1.133   3.504  26.147  1.00  0.00     0.102 C 
HETATM    3  C10 UNL     1      -1.379   2.687  27.386  1.00  0.00     0.289 C 
HETATM    4  N5  UNL     1      -2.021   3.378  28.477  1.00  0.00    -0.028 N 
HETATM    5  C11 UNL     1      -0.981   3.144  29.575  1.00  0.00     0.280 C 
HETATM    6  C14 UNL     1      -2.227   4.768  28.327  1.00  0.00     0.207 C 
HETATM    7  C15 UNL     1      -0.979   5.541  28.032  1.00  0.00     0.049 C 
HETATM    8  C16 UNL     1      -0.863   6.853  28.838  1.00  0.00     0.003 C 
HETATM    9  C17 UNL     1      -1.030   6.563  30.310  1.00  0.00     0.000 C 
HETATM   10  C18 UNL     1      -2.459   6.180  30.472  1.00  0.00     0.003 C 
HETATM   11  C19 UNL     1      -3.066   5.510  29.274  1.00  0.00     0.049 C 
HETATM   12  C20 UNL     1      -3.039   4.893  26.951  1.00  0.00     0.226 C 
ENDROOT
BRANCH   1  13
HETATM   13  C8  UNL     1      -2.734   4.567  24.540  1.00  0.00     0.101 C 
HETATM   14  N3  UNL     1      -3.114   5.727  24.216  1.00  0.00    -0.387 N 
ATOM     15  H32 UNL     1      -3.445   5.901  23.267  1.00  0.00     0.157 HD
ATOM     16  H31 UNL     1      -3.137   6.519  24.859  1.00  0.00     0.157 HD
BRANCH  13  17
HETATM   17  C7  UNL     1      -2.702   3.448  23.631  1.00  0.00     0.201 C 
BRANCH  17  18
HETATM   18  N2  UNL     1      -1.907   3.585  22.411  1.00  0.00    -0.355 N 
HETATM   19  C6  UNL     1      -0.490   3.707  22.493  1.00  0.00     0.152 C 
BRANCH  18  20
HETATM   20  C5  UNL     1      -2.612   3.587  21.160  1.00  0.00     0.172 C 
HETATM   21  S1  UNL     1      -3.316   2.095  20.802  1.00  0.00    -0.041 SA
BRANCH  20  22
HETATM   22  N1  UNL     1      -2.815   4.584  20.236  1.00  0.00    -0.358 N 
HETATM   23  C4  UNL     1      -1.615   5.022  19.414  1.00  0.00     0.125 C 
HETATM   24  C3  UNL     1      -1.237   6.391  19.956  1.00  0.00     0.024 C 
HETATM   25  C2  UNL     1      -2.412   7.227  20.350  1.00  0.00    -0.015 C 
HETATM   26  C1  UNL     1      -2.165   8.642  19.789  1.00  0.00     0.010 C 
HETATM   27  C22 UNL     1      -3.732   6.801  19.785  1.00  0.00     0.024 C 
HETATM   28  C21 UNL     1      -3.979   5.312  19.803  1.00  0.00     0.125 C 
ENDBRANCH  20  22
ENDBRANCH  18  20
ENDBRANCH  17  18
ENDBRANCH  13  17
ENDBRANCH   1  13
BRANCH  12  29
HETATM   29  N7  UNL     1      -4.072   5.403  26.941  1.00  0.00    -0.293 NA
BRANCH  29  30
HETATM   30  N8  UNL     1      -5.244   5.975  26.913  1.00  0.00    -0.181 N 
HETATM   31  N9  UNL     1      -5.611   7.139  27.290  1.00  0.00    -0.320 N 
ATOM     32  H92 UNL     1      -4.850   7.700  27.673  1.00  0.00     0.179 HD
ATOM     33  H91 UNL     1      -6.527   7.587  27.267  1.00  0.00     0.179 HD
ATOM     34  H8  UNL     1      -5.991   5.397  26.527  1.00  0.00     0.223 HD
ENDBRANCH  29  30
ENDBRANCH  12  29
BRANCH   4  35
HETATM   35  C12 UNL     1      -3.054   2.555  28.993  1.00  0.00     0.218 C 
BRANCH  35  36
HETATM   36  C13 UNL     1      -3.821   1.566  28.241  1.00  0.00     0.125 C 
HETATM   37  N6  UNL     1      -4.927   1.877  27.459  1.00  0.00    -0.114 NA
ENDBRANCH  35  36
ENDBRANCH   4  35
TORSDOF 9
ENDMDL
