MODEL 1
REMARK VINA RESULT: -9.441990265      0.000      0.000
REMARK  6 active torsions:
REMARK  status: ('A' for Active; 'I' for Inactive)
REMARK    1  A    between atoms: C1_2  and  C2_3 
REMARK       I    between atoms: C1_2  and  N4_28 
REMARK    2  A    between atoms: C2_3  and  N1_4 
REMARK    3  A    between atoms: N2_7  and  C5_8 
REMARK    4  A    between atoms: C5_8  and  C6_9 
REMARK       I    between atoms: C6_9  and  N3_11 
REMARK    5  A    between atoms: N3_11  and  C7_13 
REMARK    6  A    between atoms: N4_28  and  C21_30 
ROOT
HETATM    1  N1  UNL     1      -2.334   3.971  21.400  1.00  0.00    -0.032 N 
HETATM    2  C3  UNL     1      -2.692   2.958  20.452  1.00  0.00     0.271 C 
HETATM    3  C4  UNL     1      -1.442   2.096  20.196  1.00  0.00     0.302 C 
HETATM    4  N2  UNL     1      -0.737   2.052  21.459  1.00  0.00     0.060 N 
HETATM    5  C18 UNL     1      -1.674   1.993  22.562  1.00  0.00     0.302 C 
HETATM    6  C19 UNL     1      -2.324   3.370  22.725  1.00  0.00     0.271 C 
HETATM    7  O3  UNL     1      -0.120   3.281  21.592  1.00  0.00    -0.173 OA
HETATM    8  C20 UNL     1      -0.921   4.293  21.129  1.00  0.00     0.445 C 
ENDROOT
BRANCH   4   9
HETATM    9  C5  UNL     1       0.301   1.085  21.540  1.00  0.00     0.375 C 
BRANCH   9  10
HETATM   10  C6  UNL     1       0.805   0.550  20.278  1.00  0.00     0.246 C 
HETATM   11  O2  UNL     1       1.741   1.108  19.625  1.00  0.00    -0.272 OA
HETATM   12  N3  UNL     1       0.280  -0.643  19.686  1.00  0.00    -0.355 N 
ATOM     13  H3  UNL     1      -0.475  -1.134  20.165  1.00  0.00     0.162 HD
BRANCH  12  14
HETATM   14  C7  UNL     1       0.774  -1.184  18.436  1.00  0.00     0.084 C 
HETATM   15  C8  UNL     1       0.245  -0.376  17.302  1.00  0.00     0.025 C 
HETATM   16  C9  UNL     1      -1.213  -0.240  17.174  1.00  0.00     0.002 C 
HETATM   17  C10 UNL     1      -1.918  -1.109  16.169  1.00  0.00     0.000 C 
HETATM   18  C11 UNL     1      -1.399  -1.087  14.791  1.00  0.00     0.000 C 
HETATM   19  C12 UNL     1      -0.886  -2.352  14.196  1.00  0.00     0.000 C 
HETATM   20  C13 UNL     1      -1.238  -3.638  14.820  1.00  0.00     0.000 C 
HETATM   21  C14 UNL     1      -0.434  -4.209  15.895  1.00  0.00     0.000 C 
HETATM   22  C15 UNL     1       0.935  -3.716  16.137  1.00  0.00     0.000 C 
HETATM   23  C16 UNL     1       1.317  -3.479  17.559  1.00  0.00     0.002 C 
HETATM   24  C17 UNL     1       0.463  -2.652  18.410  1.00  0.00     0.025 C 
ENDBRANCH  12  14
ENDBRANCH   9  10
ENDBRANCH   4   9
BRANCH   1  25
HETATM   25  C2  UNL     1      -3.089   5.181  21.330  1.00  0.00     0.342 C 
BRANCH  25  26
HETATM   26  C1  UNL     1      -3.428   5.633  19.979  1.00  0.00     0.249 C 
HETATM   27  O1  UNL     1      -4.309   5.084  19.312  1.00  0.00    -0.271 OA
HETATM   28  N4  UNL     1      -2.738   6.736  19.393  1.00  0.00    -0.311 N 
ATOM     29  H4  UNL     1      -1.874   6.557  18.881  1.00  0.00     0.170 HD
BRANCH  28  30
HETATM   30  C21 UNL     1      -3.159   7.941  19.484  1.00  0.00     0.123 A 
HETATM   31  C22 UNL     1      -2.341   9.028  19.697  1.00  0.00     0.068 A 
HETATM   32  C23 UNL     1      -3.182  10.131  19.727  1.00  0.00     0.111 A 
HETATM   33  N5  UNL     1      -4.439   9.716  19.541  1.00  0.00    -0.310 N 
HETATM   34  N6  UNL     1      -4.442   8.385  19.390  1.00  0.00    -0.286 N 
ATOM     35  H5  UNL     1      -5.264  10.316  19.517  1.00  0.00     0.186 HD
ATOM     36  H6  UNL     1      -5.265   7.803  19.231  1.00  0.00     0.188 HD
ENDBRANCH  28  30
ENDBRANCH  25  26
ENDBRANCH   1  25
TORSDOF 6
ENDMDL
MODEL 2
REMARK VINA RESULT: -9.095671998      1.352      1.493
REMARK  6 active torsions:
REMARK  status: ('A' for Active; 'I' for Inactive)
REMARK    1  A    between atoms: C1_2  and  C2_3 
REMARK       I    between atoms: C1_2  and  N4_28 
REMARK    2  A    between atoms: C2_3  and  N1_4 
REMARK    3  A    between atoms: N2_7  and  C5_8 
REMARK    4  A    between atoms: C5_8  and  C6_9 
REMARK       I    between atoms: C6_9  and  N3_11 
REMARK    5  A    between atoms: N3_11  and  C7_13 
REMARK    6  A    between atoms: N4_28  and  C21_30 
ROOT
HETATM    1  N1  UNL     1      -1.820   3.830  20.532  1.00  0.00    -0.032 N 
HETATM    2  C3  UNL     1      -2.777   3.037  21.246  1.00  0.00     0.271 C 
HETATM    3  C4  UNL     1      -2.191   1.621  21.395  1.00  0.00     0.302 C 
HETATM    4  N2  UNL     1      -0.764   1.807  21.547  1.00  0.00     0.060 N 
HETATM    5  C18 UNL     1      -0.487   2.996  22.327  1.00  0.00     0.302 C 
HETATM    6  C19 UNL     1      -0.774   4.227  21.463  1.00  0.00     0.271 C 
HETATM    7  O3  UNL     1      -0.283   2.100  20.285  1.00  0.00    -0.173 OA
HETATM    8  C20 UNL     1      -1.152   2.907  19.597  1.00  0.00     0.445 C 
ENDROOT
BRANCH   4   9
HETATM    9  C5  UNL     1      -0.046   0.661  21.980  1.00  0.00     0.375 C 
BRANCH   9  10
HETATM   10  C6  UNL     1       0.662  -0.102  20.954  1.00  0.00     0.246 C 
HETATM   11  O2  UNL     1       1.912  -0.322  21.008  1.00  0.00    -0.272 OA
HETATM   12  N3  UNL     1      -0.004  -0.655  19.814  1.00  0.00    -0.355 N 
ATOM     13  H3  UNL     1      -1.008  -0.508  19.717  1.00  0.00     0.162 HD
BRANCH  12  14
HETATM   14  C7  UNL     1       0.688  -1.414  18.792  1.00  0.00     0.084 C 
HETATM   15  C8  UNL     1       0.530  -0.734  17.476  1.00  0.00     0.025 C 
HETATM   16  C9  UNL     1      -0.834  -0.485  16.988  1.00  0.00     0.002 C 
HETATM   17  C10 UNL     1      -1.398  -1.423  15.956  1.00  0.00     0.000 C 
HETATM   18  C11 UNL     1      -0.585  -1.649  14.749  1.00  0.00     0.000 C 
HETATM   19  C12 UNL     1      -0.110  -3.028  14.449  1.00  0.00     0.000 C 
HETATM   20  C13 UNL     1      -0.748  -4.172  15.121  1.00  0.00     0.000 C 
HETATM   21  C14 UNL     1      -0.282  -4.653  16.417  1.00  0.00     0.000 C 
HETATM   22  C15 UNL     1       1.048  -4.257  16.918  1.00  0.00     0.000 C 
HETATM   23  C16 UNL     1       1.127  -3.852  18.351  1.00  0.00     0.002 C 
HETATM   24  C17 UNL     1       0.213  -2.835  18.868  1.00  0.00     0.025 C 
ENDBRANCH  12  14
ENDBRANCH   9  10
ENDBRANCH   4   9
BRANCH   1  25
HETATM   25  C2  UNL     1      -2.355   4.920  19.779  1.00  0.00     0.342 C 
BRANCH  25  26
HETATM   26  C1  UNL     1      -1.432   6.031  19.539  1.00  0.00     0.249 C 
HETATM   27  O1  UNL     1      -0.584   5.988  18.645  1.00  0.00    -0.271 OA
HETATM   28  N4  UNL     1      -1.493   7.206  20.346  1.00  0.00    -0.311 N 
ATOM     29  H4  UNL     1      -0.956   7.234  21.213  1.00  0.00     0.170 HD
BRANCH  28  30
HETATM   30  C21 UNL     1      -2.193   8.227  20.026  1.00  0.00     0.123 A 
HETATM   31  C22 UNL     1      -3.567   8.277  20.111  1.00  0.00     0.068 A 
HETATM   32  C23 UNL     1      -3.926   9.545  19.678  1.00  0.00     0.111 A 
HETATM   33  N5  UNL     1      -2.816  10.215  19.351  1.00  0.00    -0.310 N 
HETATM   34  N6  UNL     1      -1.753   9.427  19.558  1.00  0.00    -0.286 N 
ATOM     35  H5  UNL     1      -2.784  11.172  19.000  1.00  0.00     0.186 HD
ATOM     36  H6  UNL     1      -0.779   9.683  19.393  1.00  0.00     0.188 HD
ENDBRANCH  28  30
ENDBRANCH  25  26
ENDBRANCH   1  25
TORSDOF 6
ENDMDL
MODEL 3
REMARK VINA RESULT: -9.058360999      5.500     10.545
REMARK  6 active torsions:
REMARK  status: ('A' for Active; 'I' for Inactive)
REMARK    1  A    between atoms: C1_2  and  C2_3 
REMARK       I    between atoms: C1_2  and  N4_28 
REMARK    2  A    between atoms: C2_3  and  N1_4 
REMARK    3  A    between atoms: N2_7  and  C5_8 
REMARK    4  A    between atoms: C5_8  and  C6_9 
REMARK       I    between atoms: C6_9  and  N3_11 
REMARK    5  A    between atoms: N3_11  and  C7_13 
REMARK    6  A    between atoms: N4_28  and  C21_30 
ROOT
HETATM    1  N1  UNL     1      -2.622   4.741  22.180  1.00  0.00    -0.032 N 
HETATM    2  C3  UNL     1      -2.845   3.341  21.969  1.00  0.00     0.271 C 
HETATM    3  C4  UNL     1      -3.135   2.703  23.340  1.00  0.00     0.302 C 
HETATM    4  N2  UNL     1      -3.858   3.709  24.090  1.00  0.00     0.060 N 
HETATM    5  C18 UNL     1      -4.750   4.447  23.219  1.00  0.00     0.302 C 
HETATM    6  C19 UNL     1      -3.915   5.387  22.346  1.00  0.00     0.271 C 
HETATM    7  O3  UNL     1      -2.914   4.636  24.487  1.00  0.00    -0.173 OA
HETATM    8  C20 UNL     1      -1.982   4.850  23.504  1.00  0.00     0.445 C 
ENDROOT
BRANCH   4   9
HETATM    9  C5  UNL     1      -4.476   3.248  25.282  1.00  0.00     0.375 C 
BRANCH   9  10
HETATM   10  C6  UNL     1      -4.721   4.242  26.325  1.00  0.00     0.246 C 
HETATM   11  O2  UNL     1      -5.804   4.902  26.399  1.00  0.00    -0.272 OA
HETATM   12  N3  UNL     1      -3.757   4.542  27.340  1.00  0.00    -0.355 N 
ATOM     13  H3  UNL     1      -2.868   4.044  27.331  1.00  0.00     0.162 HD
BRANCH  12  14
HETATM   14  C7  UNL     1      -3.991   5.523  28.380  1.00  0.00     0.084 C 
HETATM   15  C8  UNL     1      -3.043   6.660  28.212  1.00  0.00     0.025 C 
HETATM   16  C9  UNL     1      -1.603   6.362  28.207  1.00  0.00     0.002 C 
HETATM   17  C10 UNL     1      -0.825   6.612  29.470  1.00  0.00     0.000 C 
HETATM   18  C11 UNL     1      -0.946   7.951  30.070  1.00  0.00     0.000 C 
HETATM   19  C12 UNL     1      -1.502   8.075  31.446  1.00  0.00     0.000 C 
HETATM   20  C13 UNL     1      -1.567   6.883  32.308  1.00  0.00     0.000 C 
HETATM   21  C14 UNL     1      -2.717   5.986  32.283  1.00  0.00     0.000 C 
HETATM   22  C15 UNL     1      -3.989   6.430  31.682  1.00  0.00     0.000 C 
HETATM   23  C16 UNL     1      -4.686   5.451  30.798  1.00  0.00     0.002 C 
HETATM   24  C17 UNL     1      -3.954   4.816  29.703  1.00  0.00     0.025 C 
ENDBRANCH  12  14
ENDBRANCH   9  10
ENDBRANCH   4   9
BRANCH   1  25
HETATM   25  C2  UNL     1      -1.781   5.387  21.223  1.00  0.00     0.342 C 
BRANCH  25  26
HETATM   26  C1  UNL     1      -2.412   5.691  19.937  1.00  0.00     0.249 C 
HETATM   27  O1  UNL     1      -3.180   4.898  19.388  1.00  0.00    -0.271 OA
HETATM   28  N4  UNL     1      -2.150   6.930  19.280  1.00  0.00    -0.311 N 
ATOM     29  H4  UNL     1      -1.347   6.991  18.654  1.00  0.00     0.170 HD
BRANCH  28  30
HETATM   30  C21 UNL     1      -2.880   7.967  19.444  1.00  0.00     0.123 A 
HETATM   31  C22 UNL     1      -2.385   9.220  19.727  1.00  0.00     0.068 A 
HETATM   32  C23 UNL     1      -3.493  10.050  19.824  1.00  0.00     0.111 A 
HETATM   33  N5  UNL     1      -4.593   9.320  19.609  1.00  0.00    -0.310 N 
HETATM   34  N6  UNL     1      -4.237   8.050  19.376  1.00  0.00    -0.286 N 
ATOM     35  H5  UNL     1      -5.550   9.674  19.621  1.00  0.00     0.186 HD
ATOM     36  H6  UNL     1      -4.874   7.278  19.179  1.00  0.00     0.188 HD
ENDBRANCH  28  30
ENDBRANCH  25  26
ENDBRANCH   1  25
TORSDOF 6
ENDMDL
MODEL 4
REMARK VINA RESULT: -8.862681445      4.026      8.508
REMARK  6 active torsions:
REMARK  status: ('A' for Active; 'I' for Inactive)
REMARK    1  A    between atoms: C1_2  and  C2_3 
REMARK       I    between atoms: C1_2  and  N4_28 
REMARK    2  A    between atoms: C2_3  and  N1_4 
REMARK    3  A    between atoms: N2_7  and  C5_8 
REMARK    4  A    between atoms: C5_8  and  C6_9 
REMARK       I    between atoms: C6_9  and  N3_11 
REMARK    5  A    between atoms: N3_11  and  C7_13 
REMARK    6  A    between atoms: N4_28  and  C21_30 
ROOT
HETATM    1  N1  UNL     1      -1.944   3.807  20.537  1.00  0.00    -0.032 N 
HETATM    2  C3  UNL     1      -1.407   2.669  19.852  1.00  0.00     0.271 C 
HETATM    3  C4  UNL     1      -0.460   1.943  20.825  1.00  0.00     0.302 C 
HETATM    4  N2  UNL     1      -1.049   2.110  22.136  1.00  0.00     0.060 N 
HETATM    5  C18 UNL     1      -2.495   2.049  22.055  1.00  0.00     0.302 C 
HETATM    6  C19 UNL     1      -3.004   3.347  21.422  1.00  0.00     0.271 C 
HETATM    7  O3  UNL     1      -0.776   3.412  22.512  1.00  0.00    -0.173 OA
HETATM    8  C20 UNL     1      -0.878   4.268  21.446  1.00  0.00     0.445 C 
ENDROOT
BRANCH   4   9
HETATM    9  C5  UNL     1      -0.501   1.288  23.157  1.00  0.00     0.375 C 
BRANCH   9  10
HETATM   10  C6  UNL     1      -1.047   1.453  24.502  1.00  0.00     0.246 C 
HETATM   11  O2  UNL     1      -1.606   0.503  25.133  1.00  0.00    -0.272 OA
HETATM   12  N3  UNL     1      -0.991   2.698  25.205  1.00  0.00    -0.355 N 
ATOM     13  H3  UNL     1      -0.555   3.498  24.748  1.00  0.00     0.162 HD
BRANCH  12  14
HETATM   14  C7  UNL     1      -1.528   2.872  26.540  1.00  0.00     0.084 C 
HETATM   15  C8  UNL     1      -2.825   3.600  26.463  1.00  0.00     0.025 C 
HETATM   16  C9  UNL     1      -2.839   4.917  25.811  1.00  0.00     0.002 C 
HETATM   17  C10 UNL     1      -2.830   6.140  26.688  1.00  0.00     0.000 C 
HETATM   18  C11 UNL     1      -3.859   6.211  27.739  1.00  0.00     0.000 C 
HETATM   19  C12 UNL     1      -3.429   6.279  29.163  1.00  0.00     0.000 C 
HETATM   20  C13 UNL     1      -2.039   6.646  29.480  1.00  0.00     0.000 C 
HETATM   21  C14 UNL     1      -0.984   5.642  29.557  1.00  0.00     0.000 C 
HETATM   22  C15 UNL     1      -1.330   4.213  29.684  1.00  0.00     0.000 C 
HETATM   23  C16 UNL     1      -0.561   3.262  28.830  1.00  0.00     0.002 C 
HETATM   24  C17 UNL     1      -0.463   3.499  27.391  1.00  0.00     0.025 C 
ENDBRANCH  12  14
ENDBRANCH   9  10
ENDBRANCH   4   9
BRANCH   1  25
HETATM   25  C2  UNL     1      -2.330   4.905  19.709  1.00  0.00     0.342 C 
BRANCH  25  26
HETATM   26  C1  UNL     1      -1.296   5.918  19.485  1.00  0.00     0.249 C 
HETATM   27  O1  UNL     1      -0.472   5.813  18.574  1.00  0.00    -0.271 OA
HETATM   28  N4  UNL     1      -1.218   7.066  20.328  1.00  0.00    -0.311 N 
ATOM     29  H4  UNL     1      -0.668   7.008  21.185  1.00  0.00     0.170 HD
BRANCH  28  30
HETATM   30  C21 UNL     1      -1.810   8.166  20.053  1.00  0.00     0.123 A 
HETATM   31  C22 UNL     1      -3.178   8.311  19.991  1.00  0.00     0.068 A 
HETATM   32  C23 UNL     1      -3.402   9.642  19.671  1.00  0.00     0.111 A 
HETATM   33  N5  UNL     1      -2.220  10.257  19.548  1.00  0.00    -0.310 N 
HETATM   34  N6  UNL     1      -1.241   9.372  19.778  1.00  0.00    -0.286 N 
ATOM     35  H5  UNL     1      -2.087  11.241  19.315  1.00  0.00     0.186 HD
ATOM     36  H6  UNL     1      -0.240   9.569  19.752  1.00  0.00     0.188 HD
ENDBRANCH  28  30
ENDBRANCH  25  26
ENDBRANCH   1  25
TORSDOF 6
ENDMDL
MODEL 5
REMARK VINA RESULT: -8.640429645      4.373      8.867
REMARK  6 active torsions:
REMARK  status: ('A' for Active; 'I' for Inactive)
REMARK    1  A    between atoms: C1_2  and  C2_3 
REMARK       I    between atoms: C1_2  and  N4_28 
REMARK    2  A    between atoms: C2_3  and  N1_4 
REMARK    3  A    between atoms: N2_7  and  C5_8 
REMARK    4  A    between atoms: C5_8  and  C6_9 
REMARK       I    between atoms: C6_9  and  N3_11 
REMARK    5  A    between atoms: N3_11  and  C7_13 
REMARK    6  A    between atoms: N4_28  and  C21_30 
ROOT
HETATM    1  N1  UNL     1      -1.926   4.072  20.679  1.00  0.00    -0.032 N 
HETATM    2  C3  UNL     1      -2.909   4.315  21.694  1.00  0.00     0.271 C 
HETATM    3  C4  UNL     1      -3.046   3.028  22.528  1.00  0.00     0.302 C 
HETATM    4  N2  UNL     1      -1.721   2.447  22.565  1.00  0.00     0.060 N 
HETATM    5  C18 UNL     1      -0.714   3.486  22.650  1.00  0.00     0.302 C 
HETATM    6  C19 UNL     1      -0.608   4.177  21.288  1.00  0.00     0.271 C 
HETATM    7  O3  UNL     1      -1.523   1.872  21.325  1.00  0.00    -0.173 OA
HETATM    8  C20 UNL     1      -2.057   2.646  20.327  1.00  0.00     0.445 C 
ENDROOT
BRANCH   4   9
HETATM    9  C5  UNL     1      -1.543   1.402  23.511  1.00  0.00     0.375 C 
BRANCH   9  10
HETATM   10  C6  UNL     1      -1.956   1.678  24.885  1.00  0.00     0.246 C 
HETATM   11  O2  UNL     1      -2.791   0.949  25.506  1.00  0.00    -0.272 OA
HETATM   12  N3  UNL     1      -1.448   2.790  25.630  1.00  0.00    -0.355 N 
ATOM     13  H3  UNL     1      -0.775   3.411  25.182  1.00  0.00     0.162 HD
BRANCH  12  14
HETATM   14  C7  UNL     1      -1.849   3.071  26.994  1.00  0.00     0.084 C 
HETATM   15  C8  UNL     1      -3.128   3.835  26.988  1.00  0.00     0.025 C 
HETATM   16  C9  UNL     1      -3.168   5.105  26.249  1.00  0.00     0.002 C 
HETATM   17  C10 UNL     1      -3.042   6.383  27.033  1.00  0.00     0.000 C 
HETATM   18  C11 UNL     1      -3.963   6.560  28.168  1.00  0.00     0.000 C 
HETATM   19  C12 UNL     1      -3.396   6.710  29.537  1.00  0.00     0.000 C 
HETATM   20  C13 UNL     1      -1.973   7.050  29.695  1.00  0.00     0.000 C 
HETATM   21  C14 UNL     1      -0.943   6.019  29.743  1.00  0.00     0.000 C 
HETATM   22  C15 UNL     1      -1.313   4.614  30.003  1.00  0.00     0.000 C 
HETATM   23  C16 UNL     1      -0.656   3.583  29.149  1.00  0.00     0.002 C 
HETATM   24  C17 UNL     1      -0.690   3.718  27.694  1.00  0.00     0.025 C 
ENDBRANCH  12  14
ENDBRANCH   9  10
ENDBRANCH   4   9
BRANCH   1  25
HETATM   25  C2  UNL     1      -2.064   4.842  19.485  1.00  0.00     0.342 C 
BRANCH  25  26
HETATM   26  C1  UNL     1      -1.199   6.021  19.394  1.00  0.00     0.249 C 
HETATM   27  O1  UNL     1      -0.278   6.089  18.577  1.00  0.00    -0.271 OA
HETATM   28  N4  UNL     1      -1.407   7.136  20.260  1.00  0.00    -0.311 N 
ATOM     29  H4  UNL     1      -0.948   7.139  21.171  1.00  0.00     0.170 HD
BRANCH  28  30
HETATM   30  C21 UNL     1      -2.144   8.130  19.941  1.00  0.00     0.123 A 
HETATM   31  C22 UNL     1      -3.495   8.203  20.199  1.00  0.00     0.068 A 
HETATM   32  C23 UNL     1      -3.909   9.429  19.701  1.00  0.00     0.111 A 
HETATM   33  N5  UNL     1      -2.852  10.055  19.172  1.00  0.00    -0.310 N 
HETATM   34  N6  UNL     1      -1.770   9.278  19.311  1.00  0.00    -0.286 N 
ATOM     35  H5  UNL     1      -2.868  10.975  18.733  1.00  0.00     0.186 HD
ATOM     36  H6  UNL     1      -0.826   9.507  18.998  1.00  0.00     0.188 HD
ENDBRANCH  28  30
ENDBRANCH  25  26
ENDBRANCH   1  25
TORSDOF 6
ENDMDL
