MODEL 1
REMARK VINA RESULT: -8.287812433      0.000      0.000
REMARK  5 active torsions:
REMARK  status: ('A' for Active; 'I' for Inactive)
REMARK       I    between atoms: N2_6  and  C5_7 
REMARK    1  A    between atoms: C5_7  and  C6_9 
REMARK    2  A    between atoms: C6_9  and  N3_10 
REMARK    3  A    between atoms: N4_13  and  C9_14 
REMARK    4  A    between atoms: C9_14  and  C10_15 
REMARK    5  A    between atoms: C20_25  and  N5_26 
REMARK       I    between atoms: N5_26  and  C21_28 
ROOT
HETATM    1  N3  UNL     1      -2.170   3.731  23.449  1.00  0.00    -0.052 N 
HETATM    2  C7  UNL     1      -2.236   2.427  24.034  1.00  0.00     0.266 C 
HETATM    3  C8  UNL     1      -2.618   2.597  25.502  1.00  0.00     0.268 C 
HETATM    4  N4  UNL     1      -2.214   3.912  25.977  1.00  0.00    -0.038 N 
HETATM    5  C18 UNL     1      -0.881   4.129  25.425  1.00  0.00     0.268 C 
HETATM    6  C19 UNL     1      -1.029   4.428  23.940  1.00  0.00     0.266 C 
HETATM    7  C20 UNL     1      -3.063   4.917  25.410  1.00  0.00     0.317 C 
HETATM    8  C22 UNL     1      -3.351   4.461  23.971  1.00  0.00     0.293 C 
ENDROOT
BRANCH   1   9
HETATM    9  C6  UNL     1      -2.348   3.758  22.019  1.00  0.00     0.340 C 
BRANCH   9  10
HETATM   10  C5  UNL     1      -1.367   4.511  21.259  1.00  0.00     0.246 C 
HETATM   11  N2  UNL     1      -1.642   5.838  20.868  1.00  0.00    -0.349 N 
HETATM   12  C4  UNL     1      -0.606   6.511  20.124  1.00  0.00     0.127 C 
HETATM   13  C23 UNL     1      -2.919   6.406  21.235  1.00  0.00     0.145 C 
HETATM   14  C3  UNL     1      -0.967   7.932  19.793  1.00  0.00     0.039 C 
HETATM   15  C2  UNL     1      -2.062   7.955  18.748  1.00  0.00     0.118 C 
HETATM   16  N1  UNL     1      -3.373   7.884  19.314  1.00  0.00    -0.415 N 
HETATM   17  C1  UNL     1      -3.796   9.060  20.006  1.00  0.00     0.143 C 
HETATM   18  C24 UNL     1      -3.686   6.654  19.956  1.00  0.00     0.136 C 
HETATM   19  O1  UNL     1      -0.272   4.001  20.939  1.00  0.00    -0.272 OA
ENDBRANCH   9  10
ENDBRANCH   1   9
BRANCH   7  20
HETATM   20  N5  UNL     1      -4.244   5.246  26.123  1.00  0.00    -0.335 N 
HETATM   21  C21 UNL     1      -5.495   4.602  26.091  1.00  0.00     0.183 C 
HETATM   22  N6  UNL     1      -5.936   3.967  27.115  1.00  0.00    -0.374 N 
HETATM   23  N7  UNL     1      -6.332   4.630  24.947  1.00  0.00    -0.064 NA
ATOM     24  H62 UNL     1      -5.335   3.946  27.939  1.00  0.00     0.158 HD
ATOM     25  H61 UNL     1      -6.843   3.500  27.093  1.00  0.00     0.158 HD
ATOM     26  H5  UNL     1      -4.178   6.055  26.740  1.00  0.00     0.164 HD
ENDBRANCH   7  20
BRANCH   4  27
HETATM   27  C9  UNL     1      -2.193   3.863  27.413  1.00  0.00     0.267 C 
BRANCH  27  28
HETATM   28  C10 UNL     1      -1.284   4.857  28.018  1.00  0.00     0.004 C 
HETATM   29  C11 UNL     1      -1.741   5.702  28.920  1.00  0.00    -0.077 C 
HETATM   30  C12 UNL     1      -0.887   6.743  29.585  1.00  0.00     0.039 C 
HETATM   31  C16 UNL     1      -3.084   5.890  29.516  1.00  0.00     0.014 C 
HETATM   32  C13 UNL     1      -1.834   7.524  30.470  1.00  0.00    -0.010 C 
HETATM   33  C14 UNL     1      -2.223   6.676  31.634  1.00  0.00     0.005 C 
HETATM   34  C17 UNL     1      -3.111   7.427  29.615  1.00  0.00     0.014 C 
HETATM   35  C15 UNL     1      -3.026   5.547  30.986  1.00  0.00     0.009 C 
ENDBRANCH  27  28
ENDBRANCH   4  27
TORSDOF 5
ENDMDL
MODEL 2
REMARK VINA RESULT: -8.167791153      3.475      5.539
REMARK  5 active torsions:
REMARK  status: ('A' for Active; 'I' for Inactive)
REMARK       I    between atoms: N2_6  and  C5_7 
REMARK    1  A    between atoms: C5_7  and  C6_9 
REMARK    2  A    between atoms: C6_9  and  N3_10 
REMARK    3  A    between atoms: N4_13  and  C9_14 
REMARK    4  A    between atoms: C9_14  and  C10_15 
REMARK    5  A    between atoms: C20_25  and  N5_26 
REMARK       I    between atoms: N5_26  and  C21_28 
ROOT
HETATM    1  N3  UNL     1      -1.733   2.313  21.424  1.00  0.00    -0.052 N 
HETATM    2  C7  UNL     1      -2.280   1.691  22.592  1.00  0.00     0.266 C 
HETATM    3  C8  UNL     1      -2.640   2.799  23.579  1.00  0.00     0.268 C 
HETATM    4  N4  UNL     1      -1.819   3.976  23.335  1.00  0.00    -0.038 N 
HETATM    5  C18 UNL     1      -0.473   3.464  23.100  1.00  0.00     0.268 C 
HETATM    6  C19 UNL     1      -0.442   2.839  21.713  1.00  0.00     0.266 C 
HETATM    7  C20 UNL     1      -2.233   4.617  22.123  1.00  0.00     0.317 C 
HETATM    8  C22 UNL     1      -2.601   3.483  21.154  1.00  0.00     0.293 C 
ENDROOT
BRANCH   1   9
HETATM    9  C6  UNL     1      -1.828   1.522  20.223  1.00  0.00     0.340 C 
BRANCH   9  10
HETATM   10  C5  UNL     1      -0.633   1.445  19.402  1.00  0.00     0.246 C 
HETATM   11  N2  UNL     1       0.255   0.358  19.546  1.00  0.00    -0.349 N 
HETATM   12  C4  UNL     1       1.410   0.361  18.684  1.00  0.00     0.127 C 
HETATM   13  C23 UNL     1      -0.056  -0.651  20.534  1.00  0.00     0.145 C 
HETATM   14  C3  UNL     1       2.272  -0.856  18.874  1.00  0.00     0.039 C 
HETATM   15  C2  UNL     1       2.976  -0.784  20.212  1.00  0.00     0.118 C 
HETATM   16  N1  UNL     1       2.196  -1.321  21.282  1.00  0.00    -0.415 N 
HETATM   17  C1  UNL     1       2.045  -2.741  21.264  1.00  0.00     0.143 C 
HETATM   18  C24 UNL     1       1.018  -0.588  21.596  1.00  0.00     0.136 C 
HETATM   19  O1  UNL     1      -0.372   2.332  18.562  1.00  0.00    -0.272 OA
ENDBRANCH   9  10
ENDBRANCH   1   9
BRANCH   7  20
HETATM   20  N5  UNL     1      -3.252   5.598  22.224  1.00  0.00    -0.335 N 
HETATM   21  C21 UNL     1      -3.785   6.416  21.211  1.00  0.00     0.183 C 
HETATM   22  N6  UNL     1      -4.995   6.265  20.809  1.00  0.00    -0.374 N 
HETATM   23  N7  UNL     1      -3.031   7.447  20.596  1.00  0.00    -0.064 NA
ATOM     24  H62 UNL     1      -5.538   5.523  21.251  1.00  0.00     0.158 HD
ATOM     25  H61 UNL     1      -5.381   6.858  20.074  1.00  0.00     0.158 HD
ATOM     26  H5  UNL     1      -3.651   5.728  23.154  1.00  0.00     0.164 HD
ENDBRANCH   7  20
BRANCH   4  27
HETATM   27  C9  UNL     1      -1.879   4.793  24.515  1.00  0.00     0.267 C 
BRANCH  27  28
HETATM   28  C10 UNL     1      -1.341   4.124  25.717  1.00  0.00     0.004 C 
HETATM   29  C11 UNL     1      -1.514   4.667  26.905  1.00  0.00    -0.077 C 
HETATM   30  C12 UNL     1      -1.002   4.055  28.177  1.00  0.00     0.039 C 
HETATM   31  C16 UNL     1      -2.191   5.911  27.340  1.00  0.00     0.014 C 
HETATM   32  C13 UNL     1      -1.353   5.049  29.262  1.00  0.00    -0.010 C 
HETATM   33  C14 UNL     1      -2.827   5.016  29.494  1.00  0.00     0.005 C 
HETATM   34  C17 UNL     1      -1.226   6.354  28.457  1.00  0.00     0.014 C 
HETATM   35  C15 UNL     1      -3.395   5.553  28.179  1.00  0.00     0.009 C 
ENDBRANCH  27  28
ENDBRANCH   4  27
TORSDOF 5
ENDMDL
MODEL 3
REMARK VINA RESULT: -8.045618664      1.371      2.342
REMARK  5 active torsions:
REMARK  status: ('A' for Active; 'I' for Inactive)
REMARK       I    between atoms: N2_6  and  C5_7 
REMARK    1  A    between atoms: C5_7  and  C6_9 
REMARK    2  A    between atoms: C6_9  and  N3_10 
REMARK    3  A    between atoms: N4_13  and  C9_14 
REMARK    4  A    between atoms: C9_14  and  C10_15 
REMARK    5  A    between atoms: C20_25  and  N5_26 
REMARK       I    between atoms: N5_26  and  C21_28 
ROOT
HETATM    1  N3  UNL     1      -2.295   3.896  23.462  1.00  0.00    -0.052 N 
HETATM    2  C7  UNL     1      -1.121   4.543  23.963  1.00  0.00     0.266 C 
HETATM    3  C8  UNL     1      -0.935   4.104  25.413  1.00  0.00     0.268 C 
HETATM    4  N4  UNL     1      -2.215   3.716  25.989  1.00  0.00    -0.038 N 
HETATM    5  C18 UNL     1      -3.165   4.725  25.531  1.00  0.00     0.268 C 
HETATM    6  C19 UNL     1      -3.456   4.464  24.060  1.00  0.00     0.266 C 
HETATM    7  C20 UNL     1      -2.641   2.467  25.433  1.00  0.00     0.317 C 
HETATM    8  C22 UNL     1      -2.221   2.500  23.955  1.00  0.00     0.293 C 
ENDROOT
BRANCH   1   9
HETATM    9  C6  UNL     1      -2.338   3.758  22.028  1.00  0.00     0.340 C 
BRANCH   9  10
HETATM   10  C5  UNL     1      -1.353   4.513  21.275  1.00  0.00     0.246 C 
HETATM   11  N2  UNL     1      -1.630   5.838  20.878  1.00  0.00    -0.349 N 
HETATM   12  C4  UNL     1      -0.589   6.512  20.141  1.00  0.00     0.127 C 
HETATM   13  C23 UNL     1      -2.913   6.402  21.230  1.00  0.00     0.145 C 
HETATM   14  C3  UNL     1      -0.954   7.931  19.803  1.00  0.00     0.039 C 
HETATM   15  C2  UNL     1      -2.038   7.946  18.747  1.00  0.00     0.118 C 
HETATM   16  N1  UNL     1      -3.354   7.871  19.300  1.00  0.00    -0.415 N 
HETATM   17  C1  UNL     1      -3.789   9.047  19.984  1.00  0.00     0.143 C 
HETATM   18  C24 UNL     1      -3.668   6.642  19.943  1.00  0.00     0.136 C 
HETATM   19  O1  UNL     1      -0.253   4.007  20.967  1.00  0.00    -0.272 OA
ENDBRANCH   9  10
ENDBRANCH   1   9
BRANCH   7  20
HETATM   20  N5  UNL     1      -2.216   1.285  26.092  1.00  0.00    -0.335 N 
HETATM   21  C21 UNL     1      -2.044  -0.004  25.556  1.00  0.00     0.183 C 
HETATM   22  N6  UNL     1      -0.875  -0.525  25.453  1.00  0.00    -0.374 N 
HETATM   23  N7  UNL     1      -3.137  -0.794  25.121  1.00  0.00    -0.064 NA
ATOM     24  H62 UNL     1      -0.088   0.043  25.766  1.00  0.00     0.158 HD
ATOM     25  H61 UNL     1      -0.750  -1.460  25.064  1.00  0.00     0.158 HD
ATOM     26  H5  UNL     1      -2.008   1.384  27.086  1.00  0.00     0.164 HD
ENDBRANCH   7  20
BRANCH   4  27
HETATM   27  C9  UNL     1      -2.067   3.736  27.418  1.00  0.00     0.267 C 
BRANCH  27  28
HETATM   28  C10 UNL     1      -1.248   4.864  27.905  1.00  0.00     0.004 C 
HETATM   29  C11 UNL     1      -1.746   5.704  28.789  1.00  0.00    -0.077 C 
HETATM   30  C12 UNL     1      -0.984   6.877  29.337  1.00  0.00     0.039 C 
HETATM   31  C16 UNL     1      -3.064   5.773  29.463  1.00  0.00     0.014 C 
HETATM   32  C13 UNL     1      -1.962   7.596  30.239  1.00  0.00    -0.010 C 
HETATM   33  C14 UNL     1      -2.176   6.784  31.472  1.00  0.00     0.005 C 
HETATM   34  C17 UNL     1      -3.268   7.300  29.480  1.00  0.00     0.014 C 
HETATM   35  C15 UNL     1      -2.877   5.531  30.942  1.00  0.00     0.009 C 
ENDBRANCH  27  28
ENDBRANCH   4  27
TORSDOF 5
ENDMDL
MODEL 4
REMARK VINA RESULT: -7.824209063      3.619      5.379
REMARK  5 active torsions:
REMARK  status: ('A' for Active; 'I' for Inactive)
REMARK       I    between atoms: N2_6  and  C5_7 
REMARK    1  A    between atoms: C5_7  and  C6_9 
REMARK    2  A    between atoms: C6_9  and  N3_10 
REMARK    3  A    between atoms: N4_13  and  C9_14 
REMARK    4  A    between atoms: C9_14  and  C10_15 
REMARK    5  A    between atoms: C20_25  and  N5_26 
REMARK       I    between atoms: N5_26  and  C21_28 
ROOT
HETATM    1  N3  UNL     1      -1.265   3.037  21.653  1.00  0.00    -0.052 N 
HETATM    2  C7  UNL     1      -1.844   2.089  22.556  1.00  0.00     0.266 C 
HETATM    3  C8  UNL     1      -2.591   2.873  23.632  1.00  0.00     0.268 C 
HETATM    4  N4  UNL     1      -2.018   4.204  23.773  1.00  0.00    -0.038 N 
HETATM    5  C18 UNL     1      -0.573   4.008  23.726  1.00  0.00     0.268 C 
HETATM    6  C19 UNL     1      -0.184   3.714  22.285  1.00  0.00     0.266 C 
HETATM    7  C20 UNL     1      -2.362   5.006  22.637  1.00  0.00     0.317 C 
HETATM    8  C22 UNL     1      -2.313   4.061  21.427  1.00  0.00     0.293 C 
ENDROOT
BRANCH   1   9
HETATM    9  C6  UNL     1      -0.992   2.520  20.336  1.00  0.00     0.340 C 
BRANCH   9  10
HETATM   10  C5  UNL     1      -1.369   1.140  20.090  1.00  0.00     0.246 C 
HETATM   11  N2  UNL     1      -0.383   0.132  20.063  1.00  0.00    -0.349 N 
HETATM   12  C4  UNL     1      -0.850  -1.211  19.821  1.00  0.00     0.127 C 
HETATM   13  C23 UNL     1       0.994   0.519  20.271  1.00  0.00     0.145 C 
HETATM   14  C3  UNL     1       0.262  -2.222  19.857  1.00  0.00     0.039 C 
HETATM   15  C2  UNL     1       1.147  -2.057  18.640  1.00  0.00     0.118 C 
HETATM   16  N1  UNL     1       2.184  -1.092  18.832  1.00  0.00    -0.415 N 
HETATM   17  C1  UNL     1       3.224  -1.494  19.725  1.00  0.00     0.143 C 
HETATM   18  C24 UNL     1       1.738   0.250  18.983  1.00  0.00     0.136 C 
HETATM   19  O1  UNL     1      -2.563   0.823  19.900  1.00  0.00    -0.272 OA
ENDBRANCH   9  10
ENDBRANCH   1   9
BRANCH   7  20
HETATM   20  N5  UNL     1      -3.573   5.741  22.705  1.00  0.00    -0.335 N 
HETATM   21  C21 UNL     1      -4.339   6.268  21.649  1.00  0.00     0.183 C 
HETATM   22  N6  UNL     1      -5.502   5.797  21.378  1.00  0.00    -0.374 N 
HETATM   23  N7  UNL     1      -3.882   7.343  20.846  1.00  0.00    -0.064 NA
ATOM     24  H62 UNL     1      -5.831   5.023  21.956  1.00  0.00     0.158 HD
ATOM     25  H61 UNL     1      -6.057   6.178  20.613  1.00  0.00     0.158 HD
ATOM     26  H5  UNL     1      -3.936   5.909  23.643  1.00  0.00     0.164 HD
ENDBRANCH   7  20
BRANCH   4  27
HETATM   27  C9  UNL     1      -2.443   4.723  25.044  1.00  0.00     0.267 C 
BRANCH  27  28
HETATM   28  C10 UNL     1      -1.691   4.161  26.184  1.00  0.00     0.004 C 
HETATM   29  C11 UNL     1      -1.664   4.805  27.334  1.00  0.00    -0.077 C 
HETATM   30  C12 UNL     1      -0.926   4.307  28.544  1.00  0.00     0.039 C 
HETATM   31  C16 UNL     1      -2.276   6.080  27.774  1.00  0.00     0.014 C 
HETATM   32  C13 UNL     1      -1.099   5.390  29.585  1.00  0.00    -0.010 C 
HETATM   33  C14 UNL     1      -2.508   5.373  30.075  1.00  0.00     0.005 C 
HETATM   34  C17 UNL     1      -1.138   6.621  28.662  1.00  0.00     0.014 C 
HETATM   35  C15 UNL     1      -3.307   5.793  28.839  1.00  0.00     0.009 C 
ENDBRANCH  27  28
ENDBRANCH   4  27
TORSDOF 5
ENDMDL
MODEL 5
REMARK VINA RESULT: -7.692222998      1.816      3.234
REMARK  5 active torsions:
REMARK  status: ('A' for Active; 'I' for Inactive)
REMARK       I    between atoms: N2_6  and  C5_7 
REMARK    1  A    between atoms: C5_7  and  C6_9 
REMARK    2  A    between atoms: C6_9  and  N3_10 
REMARK    3  A    between atoms: N4_13  and  C9_14 
REMARK    4  A    between atoms: C9_14  and  C10_15 
REMARK    5  A    between atoms: C20_25  and  N5_26 
REMARK       I    between atoms: N5_26  and  C21_28 
ROOT
HETATM    1  N3  UNL     1      -3.720   3.851  24.057  1.00  0.00    -0.052 N 
HETATM    2  C7  UNL     1      -3.130   5.102  24.423  1.00  0.00     0.266 C 
HETATM    3  C8  UNL     1      -2.200   4.846  25.606  1.00  0.00     0.268 C 
HETATM    4  N4  UNL     1      -2.632   3.664  26.339  1.00  0.00    -0.038 N 
HETATM    5  C18 UNL     1      -4.085   3.772  26.419  1.00  0.00     0.268 C 
HETATM    6  C19 UNL     1      -4.658   3.446  25.048  1.00  0.00     0.266 C 
HETATM    7  C20 UNL     1      -2.348   2.486  25.574  1.00  0.00     0.317 C 
HETATM    8  C22 UNL     1      -2.617   2.862  24.109  1.00  0.00     0.293 C 
ENDROOT
BRANCH   1   9
HETATM    9  C6  UNL     1      -4.185   3.783  22.694  1.00  0.00     0.340 C 
BRANCH   9  10
HETATM   10  C5  UNL     1      -4.600   5.036  22.089  1.00  0.00     0.246 C 
HETATM   11  N2  UNL     1      -3.817   5.625  21.075  1.00  0.00    -0.349 N 
HETATM   12  C4  UNL     1      -4.311   6.864  20.526  1.00  0.00     0.127 C 
HETATM   13  C23 UNL     1      -2.599   4.955  20.678  1.00  0.00     0.145 C 
HETATM   14  C3  UNL     1      -3.438   7.392  19.422  1.00  0.00     0.039 C 
HETATM   15  C2  UNL     1      -2.130   7.893  19.995  1.00  0.00     0.118 C 
HETATM   16  N1  UNL     1      -1.144   6.866  20.116  1.00  0.00    -0.415 N 
HETATM   17  C1  UNL     1      -0.602   6.402  18.878  1.00  0.00     0.143 C 
HETATM   18  C24 UNL     1      -1.445   5.851  21.066  1.00  0.00     0.136 C 
HETATM   19  O1  UNL     1      -5.650   5.609  22.452  1.00  0.00    -0.272 OA
ENDBRANCH   9  10
ENDBRANCH   1   9
BRANCH   7  20
HETATM   20  N5  UNL     1      -1.077   1.886  25.758  1.00  0.00    -0.335 N 
HETATM   21  C21 UNL     1       0.065   1.983  24.940  1.00  0.00     0.183 C 
HETATM   22  N6  UNL     1       1.116   2.597  25.345  1.00  0.00    -0.374 N 
HETATM   23  N7  UNL     1       0.120   1.402  23.648  1.00  0.00    -0.064 NA
ATOM     24  H62 UNL     1       1.077   3.014  26.275  1.00  0.00     0.158 HD
ATOM     25  H61 UNL     1       1.944   2.667  24.753  1.00  0.00     0.158 HD
ATOM     26  H5  UNL     1      -0.976   1.309  26.593  1.00  0.00     0.164 HD
ENDBRANCH   7  20
BRANCH   4  27
HETATM   27  C9  UNL     1      -2.022   3.717  27.638  1.00  0.00     0.267 C 
BRANCH  27  28
HETATM   28  C10 UNL     1      -1.228   4.942  27.862  1.00  0.00     0.004 C 
HETATM   29  C11 UNL     1      -1.611   5.817  28.769  1.00  0.00    -0.077 C 
HETATM   30  C12 UNL     1      -0.864   7.087  29.061  1.00  0.00     0.039 C 
HETATM   31  C16 UNL     1      -2.764   5.845  29.699  1.00  0.00     0.014 C 
HETATM   32  C13 UNL     1      -1.700   7.807  30.097  1.00  0.00    -0.010 C 
HETATM   33  C14 UNL     1      -1.582   7.092  31.400  1.00  0.00     0.005 C 
HETATM   34  C17 UNL     1      -3.099   7.348  29.651  1.00  0.00     0.014 C 
HETATM   35  C15 UNL     1      -2.257   5.748  31.119  1.00  0.00     0.009 C 
ENDBRANCH  27  28
ENDBRANCH   4  27
TORSDOF 5
ENDMDL
