MODEL 1
REMARK VINA RESULT: -7.633708069      0.000      0.000
REMARK  9 active torsions:
REMARK  status: ('A' for Active; 'I' for Inactive)
REMARK    1  A    between atoms: C4_4  and  C5_5 
REMARK    2  A    between atoms: C5_5  and  N1_6 
REMARK       I    between atoms: N1_6  and  C6_8 
REMARK       I    between atoms: C6_8  and  N3_12 
REMARK    3  A    between atoms: N3_12  and  C7_13 
REMARK    4  A    between atoms: N3_12  and  C9_15 
REMARK    5  A    between atoms: C9_15  and  C10_16 
REMARK       I    between atoms: N4_18  and  C12_19 
REMARK    6  A    between atoms: C12_19  and  C13_21 
REMARK    7  A    between atoms: N6_26  and  C16_27 
REMARK    8  A    between atoms: C16_27  and  O3_28 
REMARK    9  A    between atoms: C16_27  and  N7_30 
ROOT
HETATM    1  C1  UNL     1      -0.872   7.087  29.145  1.00  0.00     0.027 C 
HETATM    2  C2  UNL     1      -1.664   6.424  28.504  1.00  0.00    -0.026 C 
HETATM    3  C3  UNL     1      -2.610   5.646  27.775  1.00  0.00    -0.014 C 
HETATM    4  C4  UNL     1      -3.411   4.968  27.168  1.00  0.00    -0.072 C 
ENDROOT
BRANCH   4   5
HETATM    5  C5  UNL     1      -4.388   4.125  26.451  1.00  0.00     0.233 C 
BRANCH   5   6
HETATM    6  N1  UNL     1      -4.869   4.859  25.309  1.00  0.00    -0.216 N 
HETATM    7  C6  UNL     1      -6.042   4.543  24.586  1.00  0.00     0.670 C 
HETATM    8  N2  UNL     1      -7.166   4.413  25.147  1.00  0.00    -0.235 N 
HETATM    9  N3  UNL     1      -5.945   4.376  23.154  1.00  0.00    -0.218 N 
ATOM     10  H22 UNL     1      -7.234   4.530  26.157  1.00  0.00     0.174 HD
ATOM     11  H21 UNL     1      -8.012   4.185  24.625  1.00  0.00     0.174 HD
ATOM     12  H1  UNL     1      -4.325   5.665  25.000  1.00  0.00     0.178 HD
BRANCH   9  13
HETATM   13  C7  UNL     1      -6.307   3.099  22.608  1.00  0.00     0.136 C 
HETATM   14  C8  UNL     1      -7.187   3.208  21.361  1.00  0.00     0.027 C 
ENDBRANCH   9  13
BRANCH   9  15
HETATM   15  C9  UNL     1      -5.504   5.512  22.433  1.00  0.00     0.149 C 
BRANCH  15  16
HETATM   16  C10 UNL     1      -4.148   5.418  21.769  1.00  0.00     0.040 C 
HETATM   17  C11 UNL     1      -4.226   5.588  20.296  1.00  0.00     0.134 C 
HETATM   18  N4  UNL     1      -2.955   6.179  19.833  1.00  0.00    -0.342 N 
HETATM   19  C12 UNL     1      -2.987   7.513  19.406  1.00  0.00     0.308 C 
HETATM   20  C14 UNL     1      -1.702   5.477  19.798  1.00  0.00     0.146 C 
HETATM   21  O1  UNL     1      -4.104   8.157  19.427  1.00  0.00    -0.263 OA
HETATM   22  C15 UNL     1      -1.922   4.011  20.181  1.00  0.00     0.146 C 
HETATM   23  N6  UNL     1      -2.072   3.996  21.657  1.00  0.00    -0.345 N 
HETATM   24  C22 UNL     1      -3.250   4.400  22.349  1.00  0.00     0.134 C 
BRANCH  19  25
HETATM   25  C13 UNL     1      -1.857   8.252  18.937  1.00  0.00     0.322 C 
HETATM   26  N5  UNL     1      -1.302   9.335  19.718  1.00  0.00    -0.053 NA
HETATM   27  O2  UNL     1      -1.307   7.994  17.839  1.00  0.00    -0.266 OA
ENDBRANCH  19  25
BRANCH  23  28
HETATM   28  C16 UNL     1      -0.909   3.560  22.318  1.00  0.00     0.217 C 
BRANCH  28  29
HETATM   29  O3  UNL     1       0.185   4.134  21.865  1.00  0.00    -0.333 OA
ATOM     30  H3  UNL     1       0.789   3.518  21.467  1.00  0.00     0.220 HD
ENDBRANCH  28  29
BRANCH  28  31
HETATM   31  N7  UNL     1      -0.657   2.655  23.340  1.00  0.00    -0.348 N 
HETATM   32  C17 UNL     1      -1.224   2.958  24.671  1.00  0.00     0.126 C 
HETATM   33  C18 UNL     1      -0.132   3.066  25.699  1.00  0.00     0.020 C 
HETATM   34  C19 UNL     1       1.134   2.368  25.237  1.00  0.00     0.003 C 
HETATM   35  C20 UNL     1       0.762   1.071  24.548  1.00  0.00     0.020 C 
HETATM   36  C21 UNL     1       0.160   1.480  23.186  1.00  0.00     0.126 C 
ENDBRANCH  28  31
ENDBRANCH  23  28
ENDBRANCH  15  16
ENDBRANCH   9  15
ENDBRANCH   5   6
ENDBRANCH   4   5
TORSDOF 9
ENDMDL
MODEL 2
REMARK VINA RESULT: -7.513854035      2.502      5.693
REMARK  9 active torsions:
REMARK  status: ('A' for Active; 'I' for Inactive)
REMARK    1  A    between atoms: C4_4  and  C5_5 
REMARK    2  A    between atoms: C5_5  and  N1_6 
REMARK       I    between atoms: N1_6  and  C6_8 
REMARK       I    between atoms: C6_8  and  N3_12 
REMARK    3  A    between atoms: N3_12  and  C7_13 
REMARK    4  A    between atoms: N3_12  and  C9_15 
REMARK    5  A    between atoms: C9_15  and  C10_16 
REMARK       I    between atoms: N4_18  and  C12_19 
REMARK    6  A    between atoms: C12_19  and  C13_21 
REMARK    7  A    between atoms: N6_26  and  C16_27 
REMARK    8  A    between atoms: C16_27  and  O3_28 
REMARK    9  A    between atoms: C16_27  and  N7_30 
ROOT
HETATM    1  C1  UNL     1      -0.911   8.966  31.025  1.00  0.00     0.027 C 
HETATM    2  C2  UNL     1      -0.912   7.891  30.458  1.00  0.00    -0.026 C 
HETATM    3  C3  UNL     1      -0.940   6.631  29.792  1.00  0.00    -0.014 C 
HETATM    4  C4  UNL     1      -0.973   5.551  29.243  1.00  0.00    -0.072 C 
ENDROOT
BRANCH   4   5
HETATM    5  C5  UNL     1      -1.033   4.227  28.593  1.00  0.00     0.233 C 
BRANCH   5   6
HETATM    6  N1  UNL     1      -1.294   4.422  27.190  1.00  0.00    -0.216 N 
HETATM    7  C6  UNL     1      -1.438   3.378  26.246  1.00  0.00     0.670 C 
HETATM    8  N2  UNL     1      -2.258   2.432  26.407  1.00  0.00    -0.235 N 
HETATM    9  N3  UNL     1      -0.622   3.410  25.055  1.00  0.00    -0.218 N 
ATOM     10  H22 UNL     1      -2.833   2.409  27.248  1.00  0.00     0.174 HD
ATOM     11  H21 UNL     1      -2.362   1.680  25.726  1.00  0.00     0.174 HD
ATOM     12  H1  UNL     1      -1.382   5.380  26.853  1.00  0.00     0.178 HD
BRANCH   9  13
HETATM   13  C7  UNL     1       0.277   2.313  24.834  1.00  0.00     0.136 C 
HETATM   14  C8  UNL     1       1.377   2.217  25.893  1.00  0.00     0.027 C 
ENDBRANCH   9  13
BRANCH   9  15
HETATM   15  C9  UNL     1      -0.807   4.536  24.215  1.00  0.00     0.149 C 
BRANCH  15  16
HETATM   16  C10 UNL     1      -1.642   4.333  22.971  1.00  0.00     0.040 C 
HETATM   17  C11 UNL     1      -0.837   4.430  21.726  1.00  0.00     0.134 C 
HETATM   18  N4  UNL     1      -1.469   3.574  20.702  1.00  0.00    -0.342 N 
HETATM   19  C12 UNL     1      -0.801   2.393  20.354  1.00  0.00     0.308 C 
HETATM   20  C14 UNL     1      -2.715   3.875  20.053  1.00  0.00     0.146 C 
HETATM   21  O1  UNL     1       0.321   2.109  20.924  1.00  0.00    -0.263 OA
HETATM   22  C15 UNL     1      -3.200   5.261  20.487  1.00  0.00     0.146 C 
HETATM   23  N6  UNL     1      -3.767   5.084  21.847  1.00  0.00    -0.345 N 
HETATM   24  C22 UNL     1      -2.988   4.939  23.030  1.00  0.00     0.134 C 
BRANCH  19  25
HETATM   25  C13 UNL     1      -1.264   1.440  19.394  1.00  0.00     0.322 C 
HETATM   26  N5  UNL     1      -2.324   0.513  19.722  1.00  0.00    -0.053 NA
HETATM   27  O2  UNL     1      -0.775   1.370  18.242  1.00  0.00    -0.266 OA
ENDBRANCH  19  25
BRANCH  23  28
HETATM   28  C16 UNL     1      -5.173   5.051  21.849  1.00  0.00     0.217 C 
BRANCH  28  29
HETATM   29  O3  UNL     1      -5.714   6.202  22.186  1.00  0.00    -0.333 OA
ATOM     30  H3  UNL     1      -5.489   6.906  21.589  1.00  0.00     0.220 HD
ENDBRANCH  28  29
BRANCH  28  31
HETATM   31  N7  UNL     1      -6.120   4.072  21.579  1.00  0.00    -0.348 N 
HETATM   32  C17 UNL     1      -6.187   2.920  22.502  1.00  0.00     0.126 C 
HETATM   33  C18 UNL     1      -5.944   1.633  21.763  1.00  0.00     0.020 C 
HETATM   34  C19 UNL     1      -6.193   1.796  20.275  1.00  0.00     0.003 C 
HETATM   35  C20 UNL     1      -7.422   2.657  20.069  1.00  0.00     0.020 C 
HETATM   36  C21 UNL     1      -6.992   4.094  20.435  1.00  0.00     0.126 C 
ENDBRANCH  28  31
ENDBRANCH  23  28
ENDBRANCH  15  16
ENDBRANCH   9  15
ENDBRANCH   5   6
ENDBRANCH   4   5
TORSDOF 9
ENDMDL
MODEL 3
REMARK VINA RESULT: -7.434903711      1.211      1.683
REMARK  9 active torsions:
REMARK  status: ('A' for Active; 'I' for Inactive)
REMARK    1  A    between atoms: C4_4  and  C5_5 
REMARK    2  A    between atoms: C5_5  and  N1_6 
REMARK       I    between atoms: N1_6  and  C6_8 
REMARK       I    between atoms: C6_8  and  N3_12 
REMARK    3  A    between atoms: N3_12  and  C7_13 
REMARK    4  A    between atoms: N3_12  and  C9_15 
REMARK    5  A    between atoms: C9_15  and  C10_16 
REMARK       I    between atoms: N4_18  and  C12_19 
REMARK    6  A    between atoms: C12_19  and  C13_21 
REMARK    7  A    between atoms: N6_26  and  C16_27 
REMARK    8  A    between atoms: C16_27  and  O3_28 
REMARK    9  A    between atoms: C16_27  and  N7_30 
ROOT
HETATM    1  C1  UNL     1      -0.952   8.243  30.393  1.00  0.00     0.027 C 
HETATM    2  C2  UNL     1      -1.153   7.386  29.555  1.00  0.00    -0.026 C 
HETATM    3  C3  UNL     1      -1.416   6.384  28.575  1.00  0.00    -0.014 C 
HETATM    4  C4  UNL     1      -1.648   5.519  27.759  1.00  0.00    -0.072 C 
ENDROOT
BRANCH   4   5
HETATM    5  C5  UNL     1      -1.947   4.455  26.781  1.00  0.00     0.233 C 
BRANCH   5   6
HETATM    6  N1  UNL     1      -2.897   4.967  25.828  1.00  0.00    -0.216 N 
HETATM    7  C6  UNL     1      -4.240   4.536  25.719  1.00  0.00     0.670 C 
HETATM    8  N2  UNL     1      -5.028   4.529  26.705  1.00  0.00    -0.235 N 
HETATM    9  N3  UNL     1      -4.721   4.101  24.429  1.00  0.00    -0.218 N 
ATOM     10  H22 UNL     1      -4.688   4.836  27.616  1.00  0.00     0.174 HD
ATOM     11  H21 UNL     1      -5.996   4.219  26.627  1.00  0.00     0.174 HD
ATOM     12  H1  UNL     1      -2.579   5.692  25.185  1.00  0.00     0.178 HD
BRANCH   9  13
HETATM   13  C7  UNL     1      -5.190   2.749  24.315  1.00  0.00     0.136 C 
HETATM   14  C8  UNL     1      -6.347   2.596  23.326  1.00  0.00     0.027 C 
ENDBRANCH   9  13
BRANCH   9  15
HETATM   15  C9  UNL     1      -4.685   5.074  23.401  1.00  0.00     0.149 C 
BRANCH  15  16
HETATM   16  C10 UNL     1      -3.579   4.951  22.378  1.00  0.00     0.040 C 
HETATM   17  C11 UNL     1      -4.013   5.366  21.020  1.00  0.00     0.134 C 
HETATM   18  N4  UNL     1      -2.835   5.890  20.300  1.00  0.00    -0.342 N 
HETATM   19  C12 UNL     1      -2.784   7.272  20.076  1.00  0.00     0.308 C 
HETATM   20  C14 UNL     1      -1.750   5.077  19.826  1.00  0.00     0.146 C 
HETATM   21  O1  UNL     1      -3.753   8.017  20.492  1.00  0.00    -0.263 OA
HETATM   22  C15 UNL     1      -2.071   3.599  20.063  1.00  0.00     0.146 C 
HETATM   23  N6  UNL     1      -1.831   3.359  21.507  1.00  0.00    -0.345 N 
HETATM   24  C22 UNL     1      -2.716   3.764  22.547  1.00  0.00     0.134 C 
BRANCH  19  25
HETATM   25  C13 UNL     1      -1.722   7.957  19.408  1.00  0.00     0.322 C 
HETATM   26  N5  UNL     1      -0.615   8.515  20.153  1.00  0.00    -0.053 NA
HETATM   27  O2  UNL     1      -1.706   8.101  18.162  1.00  0.00    -0.266 OA
ENDBRANCH  19  25
BRANCH  23  28
HETATM   28  C16 UNL     1      -0.612   2.703  21.754  1.00  0.00     0.217 C 
BRANCH  28  29
HETATM   29  O3  UNL     1       0.085   2.484  20.660  1.00  0.00    -0.333 OA
ATOM     30  H3  UNL     1       1.022   2.488  20.810  1.00  0.00     0.220 HD
ENDBRANCH  28  29
BRANCH  28  31
HETATM   31  N7  UNL     1       0.020   2.229  22.896  1.00  0.00    -0.348 N 
HETATM   32  C17 UNL     1       0.210   0.768  23.011  1.00  0.00     0.126 C 
HETATM   33  C18 UNL     1      -0.470   0.240  24.244  1.00  0.00     0.020 C 
HETATM   34  C19 UNL     1      -0.713   1.345  25.256  1.00  0.00     0.003 C 
HETATM   35  C20 UNL     1       0.496   2.258  25.294  1.00  0.00     0.020 C 
HETATM   36  C21 UNL     1       0.448   3.070  23.983  1.00  0.00     0.126 C 
ENDBRANCH  28  31
ENDBRANCH  23  28
ENDBRANCH  15  16
ENDBRANCH   9  15
ENDBRANCH   5   6
ENDBRANCH   4   5
TORSDOF 9
ENDMDL
MODEL 4
REMARK VINA RESULT: -7.361903267      1.650      2.201
REMARK  9 active torsions:
REMARK  status: ('A' for Active; 'I' for Inactive)
REMARK    1  A    between atoms: C4_4  and  C5_5 
REMARK    2  A    between atoms: C5_5  and  N1_6 
REMARK       I    between atoms: N1_6  and  C6_8 
REMARK       I    between atoms: C6_8  and  N3_12 
REMARK    3  A    between atoms: N3_12  and  C7_13 
REMARK    4  A    between atoms: N3_12  and  C9_15 
REMARK    5  A    between atoms: C9_15  and  C10_16 
REMARK       I    between atoms: N4_18  and  C12_19 
REMARK    6  A    between atoms: C12_19  and  C13_21 
REMARK    7  A    between atoms: N6_26  and  C16_27 
REMARK    8  A    between atoms: C16_27  and  O3_28 
REMARK    9  A    between atoms: C16_27  and  N7_30 
ROOT
HETATM    1  C1  UNL     1      -0.958   8.180  30.354  1.00  0.00     0.027 C 
HETATM    2  C2  UNL     1      -1.120   7.347  29.484  1.00  0.00    -0.026 C 
HETATM    3  C3  UNL     1      -1.337   6.372  28.467  1.00  0.00    -0.014 C 
HETATM    4  C4  UNL     1      -1.531   5.530  27.617  1.00  0.00    -0.072 C 
ENDROOT
BRANCH   4   5
HETATM    5  C5  UNL     1      -1.785   4.493  26.597  1.00  0.00     0.233 C 
BRANCH   5   6
HETATM    6  N1  UNL     1      -2.776   4.992  25.679  1.00  0.00    -0.216 N 
HETATM    7  C6  UNL     1      -4.111   4.534  25.609  1.00  0.00     0.670 C 
HETATM    8  N2  UNL     1      -4.868   4.503  26.620  1.00  0.00    -0.235 N 
HETATM    9  N3  UNL     1      -4.625   4.098  24.331  1.00  0.00    -0.218 N 
ATOM     10  H22 UNL     1      -4.505   4.810  27.522  1.00  0.00     0.174 HD
ATOM     11  H21 UNL     1      -5.831   4.173  26.569  1.00  0.00     0.174 HD
ATOM     12  H1  UNL     1      -2.494   5.729  25.032  1.00  0.00     0.178 HD
BRANCH   9  13
HETATM   13  C7  UNL     1      -5.068   2.737  24.221  1.00  0.00     0.136 C 
HETATM   14  C8  UNL     1      -6.515   2.615  23.741  1.00  0.00     0.027 C 
ENDBRANCH   9  13
BRANCH   9  15
HETATM   15  C9  UNL     1      -4.642   5.080  23.311  1.00  0.00     0.149 C 
BRANCH  15  16
HETATM   16  C10 UNL     1      -3.596   4.959  22.225  1.00  0.00     0.040 C 
HETATM   17  C11 UNL     1      -4.068   5.487  20.921  1.00  0.00     0.134 C 
HETATM   18  N4  UNL     1      -2.896   5.988  20.175  1.00  0.00    -0.342 N 
HETATM   19  C12 UNL     1      -2.772   7.376  20.036  1.00  0.00     0.308 C 
HETATM   20  C14 UNL     1      -1.887   5.146  19.595  1.00  0.00     0.146 C 
HETATM   21  O1  UNL     1      -3.671   8.147  20.547  1.00  0.00    -0.263 OA
HETATM   22  C15 UNL     1      -2.287   3.677  19.755  1.00  0.00     0.146 C 
HETATM   23  N6  UNL     1      -1.994   3.329  21.167  1.00  0.00    -0.345 N 
HETATM   24  C22 UNL     1      -2.801   3.715  22.275  1.00  0.00     0.134 C 
BRANCH  19  25
HETATM   25  C13 UNL     1      -1.702   8.040  19.358  1.00  0.00     0.322 C 
HETATM   26  N5  UNL     1      -0.604   8.623  20.096  1.00  0.00    -0.053 NA
HETATM   27  O2  UNL     1      -1.674   8.144  18.108  1.00  0.00    -0.266 OA
ENDBRANCH  19  25
BRANCH  23  28
HETATM   28  C16 UNL     1      -0.806   2.587  21.308  1.00  0.00     0.217 C 
BRANCH  28  29
HETATM   29  O3  UNL     1       0.181   3.291  21.819  1.00  0.00    -0.333 OA
ATOM     30  H3  UNL     1       1.031   2.889  21.685  1.00  0.00     0.220 HD
ENDBRANCH  28  29
BRANCH  28  31
HETATM   31  N7  UNL     1      -0.442   1.278  21.025  1.00  0.00    -0.348 N 
HETATM   32  C17 UNL     1      -1.145   0.204  21.758  1.00  0.00     0.126 C 
HETATM   33  C18 UNL     1      -0.169  -0.632  22.539  1.00  0.00     0.020 C 
HETATM   34  C19 UNL     1       1.241  -0.488  21.994  1.00  0.00     0.003 C 
HETATM   35  C20 UNL     1       1.188  -0.462  20.480  1.00  0.00     0.020 C 
HETATM   36  C21 UNL     1       0.606   0.918  20.107  1.00  0.00     0.126 C 
ENDBRANCH  28  31
ENDBRANCH  23  28
ENDBRANCH  15  16
ENDBRANCH   9  15
ENDBRANCH   5   6
ENDBRANCH   4   5
TORSDOF 9
ENDMDL
MODEL 5
REMARK VINA RESULT: -7.348224115      2.284      5.486
REMARK  9 active torsions:
REMARK  status: ('A' for Active; 'I' for Inactive)
REMARK    1  A    between atoms: C4_4  and  C5_5 
REMARK    2  A    between atoms: C5_5  and  N1_6 
REMARK       I    between atoms: N1_6  and  C6_8 
REMARK       I    between atoms: C6_8  and  N3_12 
REMARK    3  A    between atoms: N3_12  and  C7_13 
REMARK    4  A    between atoms: N3_12  and  C9_15 
REMARK    5  A    between atoms: C9_15  and  C10_16 
REMARK       I    between atoms: N4_18  and  C12_19 
REMARK    6  A    between atoms: C12_19  and  C13_21 
REMARK    7  A    between atoms: N6_26  and  C16_27 
REMARK    8  A    between atoms: C16_27  and  O3_28 
REMARK    9  A    between atoms: C16_27  and  N7_30 
ROOT
HETATM    1  C1  UNL     1      -0.915   8.212  30.704  1.00  0.00     0.027 C 
HETATM    2  C2  UNL     1      -1.742   7.686  29.985  1.00  0.00    -0.026 C 
HETATM    3  C3  UNL     1      -2.692   7.057  29.128  1.00  0.00    -0.014 C 
HETATM    4  C4  UNL     1      -3.492   6.534  28.383  1.00  0.00    -0.072 C 
ENDROOT
BRANCH   4   5
HETATM    5  C5  UNL     1      -4.452   5.906  27.454  1.00  0.00     0.233 C 
BRANCH   5   6
HETATM    6  N1  UNL     1      -3.719   5.370  26.337  1.00  0.00    -0.216 N 
HETATM    7  C6  UNL     1      -3.841   4.046  25.855  1.00  0.00     0.670 C 
HETATM    8  N2  UNL     1      -4.956   3.544  25.539  1.00  0.00    -0.235 N 
HETATM    9  N3  UNL     1      -2.644   3.251  25.711  1.00  0.00    -0.218 N 
ATOM     10  H22 UNL     1      -5.801   4.105  25.640  1.00  0.00     0.174 HD
ATOM     11  H21 UNL     1      -5.045   2.589  25.191  1.00  0.00     0.174 HD
ATOM     12  H1  UNL     1      -3.064   5.988  25.859  1.00  0.00     0.178 HD
BRANCH   9  13
HETATM   13  C7  UNL     1      -2.554   2.040  26.476  1.00  0.00     0.136 C 
HETATM   14  C8  UNL     1      -2.313   2.287  27.966  1.00  0.00     0.027 C 
ENDBRANCH   9  13
BRANCH   9  15
HETATM   15  C9  UNL     1      -1.676   3.758  24.810  1.00  0.00     0.149 C 
BRANCH  15  16
HETATM   16  C10 UNL     1      -2.044   3.768  23.343  1.00  0.00     0.040 C 
HETATM   17  C11 UNL     1      -2.313   2.407  22.816  1.00  0.00     0.134 C 
HETATM   18  N4  UNL     1      -3.290   2.523  21.715  1.00  0.00    -0.342 N 
HETATM   19  C12 UNL     1      -4.588   2.056  21.959  1.00  0.00     0.308 C 
HETATM   20  C14 UNL     1      -2.993   3.084  20.427  1.00  0.00     0.146 C 
HETATM   21  O1  UNL     1      -4.871   1.545  23.110  1.00  0.00    -0.263 OA
HETATM   22  C15 UNL     1      -1.499   3.409  20.338  1.00  0.00     0.146 C 
HETATM   23  N6  UNL     1      -1.311   4.664  21.106  1.00  0.00    -0.345 N 
HETATM   24  C22 UNL     1      -1.288   4.741  22.528  1.00  0.00     0.134 C 
BRANCH  19  25
HETATM   25  C13 UNL     1      -5.665   2.096  21.020  1.00  0.00     0.322 C 
HETATM   26  N5  UNL     1      -5.874   1.013  20.085  1.00  0.00    -0.053 NA
HETATM   27  O2  UNL     1      -6.463   3.062  20.969  1.00  0.00    -0.266 OA
ENDBRANCH  19  25
BRANCH  23  28
HETATM   28  C16 UNL     1      -1.179   5.794  20.278  1.00  0.00     0.217 C 
BRANCH  28  29
HETATM   29  O3  UNL     1       0.073   6.151  20.092  1.00  0.00    -0.333 OA
ATOM     30  H3  UNL     1       0.595   5.473  19.678  1.00  0.00     0.220 HD
ENDBRANCH  28  29
BRANCH  28  31
HETATM   31  N7  UNL     1      -2.077   6.620  19.615  1.00  0.00    -0.348 N 
HETATM   32  C17 UNL     1      -1.515   7.672  18.742  1.00  0.00     0.126 C 
HETATM   33  C18 UNL     1      -1.965   9.033  19.195  1.00  0.00     0.020 C 
HETATM   34  C19 UNL     1      -3.213   8.945  20.054  1.00  0.00     0.003 C 
HETATM   35  C20 UNL     1      -4.149   7.909  19.464  1.00  0.00     0.020 C 
HETATM   36  C21 UNL     1      -3.505   6.541  19.772  1.00  0.00     0.126 C 
ENDBRANCH  28  31
ENDBRANCH  23  28
ENDBRANCH  15  16
ENDBRANCH   9  15
ENDBRANCH   5   6
ENDBRANCH   4   5
TORSDOF 9
ENDMDL
