MODEL 1
REMARK VINA RESULT: -4.744302951      0.000      0.000
REMARK  1 active torsions:
REMARK  status: ('A' for Active; 'I' for Inactive)
REMARK    1  A    between atoms: C2_2  and  N1_3 
ROOT
HETATM    1  N1  UNL     1    -154.506   5.225  -6.078  1.00  0.00    -0.396 N 
HETATM    2  C3  UNL     1    -153.430   5.818  -6.780  1.00  0.00     0.196 C 
HETATM    3  C4  UNL     1    -153.779   7.148  -7.434  1.00  0.00     0.262 C 
HETATM    4  F1  UNL     1    -152.669   7.471  -8.220  1.00  0.00    -0.204 F 
HETATM    5  F2  UNL     1    -153.973   8.136  -6.514  1.00  0.00    -0.204 F 
HETATM    6  C5  UNL     1    -154.998   6.888  -8.299  1.00  0.00     0.125 C 
HETATM    7  C6  UNL     1    -156.107   6.426  -7.394  1.00  0.00     0.142 C 
HETATM    8 CL1  UNL     1    -157.570   6.173  -8.355  1.00  0.00    -0.099 Cl
HETATM    9 CL2  UNL     1    -156.485   7.633  -6.149  1.00  0.00    -0.099 Cl
HETATM   10  C7  UNL     1    -155.758   5.136  -6.721  1.00  0.00     0.056 C 
HETATM   11  C8  UNL     1    -156.822   4.882  -5.654  1.00  0.00     0.041 C 
HETATM   12  C9  UNL     1    -155.838   3.951  -7.690  1.00  0.00     0.041 C 
ENDROOT
BRANCH   1  13
HETATM   13  C2  UNL     1    -154.103   4.133  -5.273  1.00  0.00     0.113 C 
HETATM   14  C1  UNL     1    -152.753   4.434  -4.668  1.00  0.00     0.026 C 
ENDBRANCH   1  13
TORSDOF 1
ENDMDL
MODEL 2
REMARK VINA RESULT: -4.701568726      2.590      3.666
REMARK  1 active torsions:
REMARK  status: ('A' for Active; 'I' for Inactive)
REMARK    1  A    between atoms: C2_2  and  N1_3 
ROOT
HETATM    1  N1  UNL     1    -153.560   5.593  -7.721  1.00  0.00    -0.396 N 
HETATM    2  C3  UNL     1    -152.424   5.611  -6.877  1.00  0.00     0.196 C 
HETATM    3  C4  UNL     1    -152.449   4.547  -5.789  1.00  0.00     0.262 C 
HETATM    4  F1  UNL     1    -151.361   4.844  -4.962  1.00  0.00    -0.204 F 
HETATM    5  F2  UNL     1    -152.290   3.291  -6.295  1.00  0.00    -0.204 F 
HETATM    6  C5  UNL     1    -153.759   4.732  -5.045  1.00  0.00     0.125 C 
HETATM    7  C6  UNL     1    -154.874   4.518  -6.031  1.00  0.00     0.142 C 
HETATM    8 CL1  UNL     1    -156.424   4.660  -5.191  1.00  0.00    -0.099 Cl
HETATM    9 CL2  UNL     1    -154.806   2.902  -6.761  1.00  0.00    -0.099 Cl
HETATM   10  C7  UNL     1    -154.837   5.540  -7.124  1.00  0.00     0.056 C 
HETATM   11  C8  UNL     1    -155.839   5.097  -8.188  1.00  0.00     0.041 C 
HETATM   12  C9  UNL     1    -155.315   6.911  -6.635  1.00  0.00     0.041 C 
ENDROOT
BRANCH   1  13
HETATM   13  C2  UNL     1    -153.407   6.408  -8.868  1.00  0.00     0.113 C 
HETATM   14  C1  UNL     1    -151.999   6.264  -9.394  1.00  0.00     0.026 C 
ENDBRANCH   1  13
TORSDOF 1
ENDMDL
MODEL 3
REMARK VINA RESULT: -4.666089436      1.096      1.153
REMARK  1 active torsions:
REMARK  status: ('A' for Active; 'I' for Inactive)
REMARK    1  A    between atoms: C2_2  and  N1_3 
ROOT
HETATM    1  N1  UNL     1    -153.977   4.716  -5.989  1.00  0.00    -0.396 N 
HETATM    2  C3  UNL     1    -152.817   4.856  -6.787  1.00  0.00     0.196 C 
HETATM    3  C4  UNL     1    -152.821   6.097  -7.669  1.00  0.00     0.262 C 
HETATM    4  F1  UNL     1    -151.706   5.958  -8.501  1.00  0.00    -0.204 F 
HETATM    5  F2  UNL     1    -152.691   7.243  -6.942  1.00  0.00    -0.204 F 
HETATM    6  C5  UNL     1    -154.107   6.040  -8.474  1.00  0.00     0.125 C 
HETATM    7  C6  UNL     1    -155.252   6.068  -7.500  1.00  0.00     0.142 C 
HETATM    8 CL1  UNL     1    -156.775   6.070  -8.399  1.00  0.00    -0.099 Cl
HETATM    9 CL2  UNL     1    -155.224   7.529  -6.492  1.00  0.00    -0.099 Cl
HETATM   10  C7  UNL     1    -155.236   4.868  -6.605  1.00  0.00     0.056 C 
HETATM   11  C8  UNL     1    -156.274   5.109  -5.511  1.00  0.00     0.041 C 
HETATM   12  C9  UNL     1    -155.685   3.604  -7.345  1.00  0.00     0.041 C 
ENDROOT
BRANCH   1  13
HETATM   13  C2  UNL     1    -153.848   3.711  -5.001  1.00  0.00     0.113 C 
HETATM   14  C1  UNL     1    -152.588   2.921  -5.259  1.00  0.00     0.026 C 
ENDBRANCH   1  13
TORSDOF 1
ENDMDL
MODEL 4
REMARK VINA RESULT: -4.637860033      1.967      2.391
REMARK  1 active torsions:
REMARK  status: ('A' for Active; 'I' for Inactive)
REMARK    1  A    between atoms: C2_2  and  N1_3 
ROOT
HETATM    1  N1  UNL     1    -155.053   5.538  -6.650  1.00  0.00    -0.396 N 
HETATM    2  C3  UNL     1    -155.224   6.483  -7.689  1.00  0.00     0.196 C 
HETATM    3  C4  UNL     1    -156.626   7.072  -7.761  1.00  0.00     0.262 C 
HETATM    4  F1  UNL     1    -156.648   7.822  -8.941  1.00  0.00    -0.204 F 
HETATM    5  F2  UNL     1    -156.890   7.898  -6.708  1.00  0.00    -0.204 F 
HETATM    6  C5  UNL     1    -157.577   5.893  -7.851  1.00  0.00     0.125 C 
HETATM    7  C6  UNL     1    -157.402   5.073  -6.604  1.00  0.00     0.142 C 
HETATM    8 CL1  UNL     1    -158.541   3.720  -6.636  1.00  0.00    -0.099 Cl
HETATM    9 CL2  UNL     1    -157.737   6.020  -5.140  1.00  0.00    -0.099 Cl
HETATM   10  C7  UNL     1    -156.015   4.517  -6.507  1.00  0.00     0.056 C 
HETATM   11  C8  UNL     1    -155.866   3.917  -5.111  1.00  0.00     0.041 C 
HETATM   12  C9  UNL     1    -155.798   3.363  -7.491  1.00  0.00     0.041 C 
ENDROOT
BRANCH   1  13
HETATM   13  C2  UNL     1    -153.696   5.194  -6.437  1.00  0.00     0.113 C 
HETATM   14  C1  UNL     1    -152.815   6.293  -6.980  1.00  0.00     0.026 C 
ENDBRANCH   1  13
TORSDOF 1
ENDMDL
MODEL 5
REMARK VINA RESULT: -4.502691146      2.855      4.016
REMARK  1 active torsions:
REMARK  status: ('A' for Active; 'I' for Inactive)
REMARK    1  A    between atoms: C2_2  and  N1_3 
ROOT
HETATM    1  N1  UNL     1    -154.472   4.150  -7.074  1.00  0.00    -0.396 N 
HETATM    2  C3  UNL     1    -153.960   5.446  -7.321  1.00  0.00     0.196 C 
HETATM    3  C4  UNL     1    -152.519   5.636  -6.871  1.00  0.00     0.262 C 
HETATM    4  F1  UNL     1    -152.265   7.002  -7.022  1.00  0.00    -0.204 F 
HETATM    5  F2  UNL     1    -151.643   4.935  -7.647  1.00  0.00    -0.204 F 
HETATM    6  C5  UNL     1    -152.475   5.236  -5.407  1.00  0.00     0.125 C 
HETATM    7  C6  UNL     1    -152.880   3.790  -5.321  1.00  0.00     0.142 C 
HETATM    8 CL1  UNL     1    -152.781   3.262  -3.636  1.00  0.00    -0.099 Cl
HETATM    9 CL2  UNL     1    -151.806   2.747  -6.274  1.00  0.00    -0.099 Cl
HETATM   10  C7  UNL     1    -154.286   3.589  -5.793  1.00  0.00     0.056 C 
HETATM   11  C8  UNL     1    -154.516   2.083  -5.899  1.00  0.00     0.041 C 
HETATM   12  C9  UNL     1    -155.307   4.104  -4.773  1.00  0.00     0.041 C 
ENDROOT
BRANCH   1  13
HETATM   13  C2  UNL     1    -155.710   3.915  -7.719  1.00  0.00     0.113 C 
HETATM   14  C1  UNL     1    -156.304   5.234  -8.148  1.00  0.00     0.026 C 
ENDBRANCH   1  13
TORSDOF 1
ENDMDL
