MODEL 1
REMARK VINA RESULT: -4.778932254      0.000      0.000
REMARK  1 active torsions:
REMARK  status: ('A' for Active; 'I' for Inactive)
REMARK    1  A    between atoms: C4_5  and  C6_7 
ROOT
HETATM    1  C1  UNL     1    -157.982   4.459  -5.250  1.00  0.00     0.049 C 
HETATM    2  C2  UNL     1    -156.500   4.482  -5.655  1.00  0.00     0.090 C 
HETATM    3  C3  UNL     1    -155.789   4.058  -4.352  1.00  0.00     0.049 C 
HETATM    4  O1  UNL     1    -156.152   5.737  -5.893  1.00  0.00    -0.358 OA
HETATM    5  C4  UNL     1    -155.640   6.157  -7.048  1.00  0.00     0.155 C 
HETATM    6  C5  UNL     1    -154.480   7.120  -6.735  1.00  0.00     0.056 C 
HETATM    7  C7  UNL     1    -155.072   5.135  -7.970  1.00  0.00     0.050 C 
HETATM    8  C8  UNL     1    -155.883   3.873  -8.019  1.00  0.00     0.048 C 
HETATM    9  C9  UNL     1    -156.220   3.421  -6.643  1.00  0.00     0.143 C 
HETATM   10 CL1  UNL     1    -154.893   2.322  -6.108  1.00  0.00    -0.098 Cl
HETATM   11 CL2  UNL     1    -157.662   2.352  -6.824  1.00  0.00    -0.098 Cl
ENDROOT
BRANCH   5  12
HETATM   12  C6  UNL     1    -156.606   7.020  -7.876  1.00  0.00     0.418 C 
HETATM   13  F1  UNL     1    -157.610   6.272  -8.423  1.00  0.00    -0.168 F 
HETATM   14  F2  UNL     1    -155.949   7.823  -8.757  1.00  0.00    -0.168 F 
HETATM   15  F3  UNL     1    -157.213   7.867  -6.937  1.00  0.00    -0.168 F 
ENDBRANCH   5  12
TORSDOF 1
ENDMDL
MODEL 2
REMARK VINA RESULT: -4.758058106      2.369      3.174
REMARK  1 active torsions:
REMARK  status: ('A' for Active; 'I' for Inactive)
REMARK    1  A    between atoms: C4_5  and  C6_7 
ROOT
HETATM    1  C1  UNL     1    -155.673   3.261  -7.560  1.00  0.00     0.049 C 
HETATM    2  C2  UNL     1    -155.257   4.227  -6.440  1.00  0.00     0.090 C 
HETATM    3  C3  UNL     1    -156.561   4.386  -5.630  1.00  0.00     0.049 C 
HETATM    4  O1  UNL     1    -154.994   5.406  -6.982  1.00  0.00    -0.358 OA
HETATM    5  C4  UNL     1    -153.827   6.036  -6.855  1.00  0.00     0.155 C 
HETATM    6  C5  UNL     1    -154.114   7.526  -6.591  1.00  0.00     0.056 C 
HETATM    7  C7  UNL     1    -152.919   5.604  -5.758  1.00  0.00     0.050 C 
HETATM    8  C8  UNL     1    -152.899   4.116  -5.563  1.00  0.00     0.048 C 
HETATM    9  C9  UNL     1    -154.285   3.578  -5.536  1.00  0.00     0.143 C 
HETATM   10 CL1  UNL     1    -154.828   3.604  -3.816  1.00  0.00    -0.098 Cl
HETATM   11 CL2  UNL     1    -154.134   1.829  -5.947  1.00  0.00    -0.098 Cl
ENDROOT
BRANCH   5  12
HETATM   12  C6  UNL     1    -152.992   6.057  -8.146  1.00  0.00     0.418 C 
HETATM   13  F1  UNL     1    -153.782   6.039  -9.260  1.00  0.00    -0.168 F 
HETATM   14  F2  UNL     1    -152.007   5.117  -8.133  1.00  0.00    -0.168 F 
HETATM   15  F3  UNL     1    -152.356   7.306  -8.133  1.00  0.00    -0.168 F 
ENDBRANCH   5  12
TORSDOF 1
ENDMDL
MODEL 3
REMARK VINA RESULT: -4.721286757      2.306      3.001
REMARK  1 active torsions:
REMARK  status: ('A' for Active; 'I' for Inactive)
REMARK    1  A    between atoms: C4_5  and  C6_7 
ROOT
HETATM    1  C1  UNL     1    -154.602   2.235  -5.961  1.00  0.00     0.049 C 
HETATM    2  C2  UNL     1    -154.531   3.657  -5.383  1.00  0.00     0.090 C 
HETATM    3  C3  UNL     1    -154.969   3.446  -3.918  1.00  0.00     0.049 C 
HETATM    4  O1  UNL     1    -155.468   4.390  -5.964  1.00  0.00    -0.358 OA
HETATM    5  C4  UNL     1    -155.221   5.518  -6.628  1.00  0.00     0.155 C 
HETATM    6  C5  UNL     1    -156.296   6.549  -6.239  1.00  0.00     0.056 C 
HETATM    7  C7  UNL     1    -153.916   6.194  -6.390  1.00  0.00     0.050 C 
HETATM    8  C8  UNL     1    -152.771   5.231  -6.258  1.00  0.00     0.048 C 
HETATM    9  C9  UNL     1    -153.131   4.123  -5.333  1.00  0.00     0.143 C 
HETATM   10 CL1  UNL     1    -152.640   4.638  -3.676  1.00  0.00    -0.098 Cl
HETATM   11 CL2  UNL     1    -152.015   2.767  -5.746  1.00  0.00    -0.098 Cl
ENDROOT
BRANCH   5  12
HETATM   12  C6  UNL     1    -155.386   5.387  -8.151  1.00  0.00     0.418 C 
HETATM   13  F1  UNL     1    -155.640   4.098  -8.523  1.00  0.00    -0.168 F 
HETATM   14  F2  UNL     1    -154.369   5.986  -8.830  1.00  0.00    -0.168 F 
HETATM   15  F3  UNL     1    -156.547   6.118  -8.442  1.00  0.00    -0.168 F 
ENDBRANCH   5  12
TORSDOF 1
ENDMDL
MODEL 4
REMARK VINA RESULT: -4.664480661      2.797      3.749
REMARK  1 active torsions:
REMARK  status: ('A' for Active; 'I' for Inactive)
REMARK    1  A    between atoms: C4_5  and  C6_7 
ROOT
HETATM    1  C1  UNL     1    -155.920   4.030  -8.179  1.00  0.00     0.049 C 
HETATM    2  C2  UNL     1    -155.946   5.524  -7.822  1.00  0.00     0.090 C 
HETATM    3  C3  UNL     1    -157.411   5.914  -8.113  1.00  0.00     0.049 C 
HETATM    4  O1  UNL     1    -155.192   6.175  -8.695  1.00  0.00    -0.358 OA
HETATM    5  C4  UNL     1    -154.156   6.939  -8.355  1.00  0.00     0.155 C 
HETATM    6  C5  UNL     1    -154.208   8.222  -9.205  1.00  0.00     0.056 C 
HETATM    7  C7  UNL     1    -154.065   7.399  -6.942  1.00  0.00     0.050 C 
HETATM    8  C8  UNL     1    -154.471   6.345  -5.954  1.00  0.00     0.048 C 
HETATM    9  C9  UNL     1    -155.750   5.709  -6.370  1.00  0.00     0.143 C 
HETATM   10 CL1  UNL     1    -157.084   6.660  -5.615  1.00  0.00    -0.098 Cl
HETATM   11 CL2  UNL     1    -155.790   4.111  -5.535  1.00  0.00    -0.098 Cl
ENDROOT
BRANCH   5  12
HETATM   12  C6  UNL     1    -152.793   6.327  -8.715  1.00  0.00     0.418 C 
HETATM   13  F1  UNL     1    -152.547   6.392 -10.057  1.00  0.00    -0.168 F 
HETATM   14  F2  UNL     1    -152.624   5.093  -8.165  1.00  0.00    -0.168 F 
HETATM   15  F3  UNL     1    -151.856   7.171  -8.101  1.00  0.00    -0.168 F 
ENDBRANCH   5  12
TORSDOF 1
ENDMDL
MODEL 5
REMARK VINA RESULT: -4.651274213      1.373      1.733
REMARK  1 active torsions:
REMARK  status: ('A' for Active; 'I' for Inactive)
REMARK    1  A    between atoms: C4_5  and  C6_7 
ROOT
HETATM    1  C1  UNL     1    -157.725   5.519  -4.767  1.00  0.00     0.049 C 
HETATM    2  C2  UNL     1    -156.659   4.773  -5.584  1.00  0.00     0.090 C 
HETATM    3  C3  UNL     1    -156.343   3.554  -4.691  1.00  0.00     0.049 C 
HETATM    4  O1  UNL     1    -155.565   5.519  -5.621  1.00  0.00    -0.358 OA
HETATM    5  C4  UNL     1    -154.984   5.926  -6.747  1.00  0.00     0.155 C 
HETATM    6  C5  UNL     1    -153.461   5.762  -6.587  1.00  0.00     0.056 C 
HETATM    7  C7  UNL     1    -155.331   5.213  -8.007  1.00  0.00     0.050 C 
HETATM    8  C8  UNL     1    -156.786   4.855  -8.097  1.00  0.00     0.048 C 
HETATM    9  C9  UNL     1    -157.247   4.234  -6.827  1.00  0.00     0.143 C 
HETATM   10 CL1  UNL     1    -156.996   2.455  -6.987  1.00  0.00    -0.098 Cl
HETATM   11 CL2  UNL     1    -159.038   4.449  -6.805  1.00  0.00    -0.098 Cl
ENDROOT
BRANCH   5  12
HETATM   12  C6  UNL     1    -155.154   7.429  -7.022  1.00  0.00     0.418 C 
HETATM   13  F1  UNL     1    -156.183   7.962  -6.298  1.00  0.00    -0.168 F 
HETATM   14  F2  UNL     1    -155.193   7.705  -8.354  1.00  0.00    -0.168 F 
HETATM   15  F3  UNL     1    -153.979   8.012  -6.525  1.00  0.00    -0.168 F 
ENDBRANCH   5  12
TORSDOF 1
ENDMDL
