MODEL 1
REMARK VINA RESULT: -5.916466174      0.000      0.000
REMARK  2 active torsions:
REMARK  status: ('A' for Active; 'I' for Inactive)
REMARK    1  A    between atoms: C2_2  and  C3_3 
REMARK    2  A    between atoms: C9_12  and  C10_13 
ROOT
HETATM    1  C1  UNL     1    -152.435   4.839  -4.503  1.00  0.00     0.048 C 
HETATM    2  C2  UNL     1    -153.047   4.229  -5.746  1.00  0.00     0.124 C 
HETATM    3  C4  UNL     1    -154.423   4.794  -5.904  1.00  0.00     0.040 C 
HETATM    4  C5  UNL     1    -154.892   4.863  -7.330  1.00  0.00     0.003 C 
HETATM    5  C6  UNL     1    -155.021   6.258  -7.845  1.00  0.00     0.000 C 
HETATM    6  C7  UNL     1    -153.834   6.727  -8.642  1.00  0.00     0.006 C 
HETATM    7  C8  UNL     1    -152.562   6.782  -7.859  1.00  0.00     0.060 C 
HETATM    8  C9  UNL     1    -151.933   5.453  -7.709  1.00  0.00     0.044 C 
HETATM    9  N2  UNL     1    -152.173   4.498  -6.854  1.00  0.00    -0.374 N 
ATOM     10  H2  UNL     1    -151.556   3.704  -7.023  1.00  0.00     0.160 HD
ENDROOT
BRANCH   2  11
HETATM   11  C3  UNL     1    -153.077   2.709  -5.570  1.00  0.00     0.412 C 
HETATM   12  F1  UNL     1    -151.996   2.170  -6.229  1.00  0.00    -0.168 F 
HETATM   13  F2  UNL     1    -153.099   2.414  -4.231  1.00  0.00    -0.168 F 
HETATM   14  F3  UNL     1    -154.209   2.174  -6.151  1.00  0.00    -0.168 F 
ENDBRANCH   2  11
BRANCH   8  15
HETATM   15  C10 UNL     1    -150.880   5.151  -8.654  1.00  0.00     0.119 C 
HETATM   16  N1  UNL     1    -149.873   4.405  -8.373  1.00  0.00    -0.388 N 
ATOM     17  H12 UNL     1    -149.810   4.004  -7.437  1.00  0.00     0.157 HD
ATOM     18  H11 UNL     1    -149.131   4.192  -9.039  1.00  0.00     0.157 HD
HETATM   19 CL1  UNL     1    -150.989   5.837 -10.258  1.00  0.00    -0.063 Cl
ENDBRANCH   8  15
TORSDOF 2
ENDMDL
MODEL 2
REMARK VINA RESULT: -5.837615894      3.052      4.018
REMARK  2 active torsions:
REMARK  status: ('A' for Active; 'I' for Inactive)
REMARK    1  A    between atoms: C2_2  and  C3_3 
REMARK    2  A    between atoms: C9_12  and  C10_13 
ROOT
HETATM    1  C1  UNL     1    -155.298   4.926  -8.243  1.00  0.00     0.048 C 
HETATM    2  C2  UNL     1    -154.364   5.974  -7.676  1.00  0.00     0.124 C 
HETATM    3  C4  UNL     1    -154.114   5.636  -6.241  1.00  0.00     0.040 C 
HETATM    4  C5  UNL     1    -152.775   6.095  -5.733  1.00  0.00     0.003 C 
HETATM    5  C6  UNL     1    -151.839   4.971  -5.432  1.00  0.00     0.000 C 
HETATM    6  C7  UNL     1    -150.861   4.679  -6.537  1.00  0.00     0.006 C 
HETATM    7  C8  UNL     1    -151.504   4.238  -7.812  1.00  0.00     0.060 C 
HETATM    8  C9  UNL     1    -152.044   5.370  -8.594  1.00  0.00     0.044 C 
HETATM    9  N2  UNL     1    -153.178   6.004  -8.486  1.00  0.00    -0.374 N 
ATOM     10  H2  UNL     1    -153.242   6.742  -9.187  1.00  0.00     0.160 HD
ENDROOT
BRANCH   2  11
HETATM   11  C3  UNL     1    -155.032   7.343  -7.826  1.00  0.00     0.412 C 
HETATM   12  F1  UNL     1    -154.105   8.230  -8.325  1.00  0.00    -0.168 F 
HETATM   13  F2  UNL     1    -156.142   7.216  -8.619  1.00  0.00    -0.168 F 
HETATM   14  F3  UNL     1    -155.430   7.828  -6.595  1.00  0.00    -0.168 F 
ENDBRANCH   2  11
BRANCH   8  15
HETATM   15  C10 UNL     1    -151.188   5.862  -9.652  1.00  0.00     0.119 C 
HETATM   16  N1  UNL     1    -150.039   5.357  -9.921  1.00  0.00    -0.388 N 
ATOM     17  H12 UNL     1    -149.710   4.569  -9.363  1.00  0.00     0.157 HD
ATOM     18  H11 UNL     1    -149.435   5.704 -10.666  1.00  0.00     0.157 HD
HETATM   19 CL1  UNL     1    -151.752   7.212 -10.609  1.00  0.00    -0.063 Cl
ENDBRANCH   8  15
TORSDOF 2
ENDMDL
MODEL 3
REMARK VINA RESULT: -5.728926915      2.243      2.703
REMARK  2 active torsions:
REMARK  status: ('A' for Active; 'I' for Inactive)
REMARK    1  A    between atoms: C2_2  and  C3_3 
REMARK    2  A    between atoms: C9_12  and  C10_13 
ROOT
HETATM    1  C1  UNL     1    -155.532   4.274  -4.892  1.00  0.00     0.048 C 
HETATM    2  C2  UNL     1    -155.666   4.281  -6.400  1.00  0.00     0.124 C 
HETATM    3  C4  UNL     1    -156.812   5.176  -6.753  1.00  0.00     0.040 C 
HETATM    4  C5  UNL     1    -156.680   5.830  -8.100  1.00  0.00     0.003 C 
HETATM    5  C6  UNL     1    -156.464   7.305  -8.024  1.00  0.00     0.000 C 
HETATM    6  C7  UNL     1    -155.022   7.718  -8.137  1.00  0.00     0.006 C 
HETATM    7  C8  UNL     1    -154.156   7.202  -7.033  1.00  0.00     0.060 C 
HETATM    8  C9  UNL     1    -153.765   5.791  -7.233  1.00  0.00     0.044 C 
HETATM    9  N2  UNL     1    -154.409   4.691  -6.961  1.00  0.00    -0.374 N 
ATOM     10  H2  UNL     1    -153.853   3.877  -7.224  1.00  0.00     0.160 HD
ENDROOT
BRANCH   2  11
HETATM   11  C3  UNL     1    -155.908   2.844  -6.867  1.00  0.00     0.412 C 
HETATM   12  F1  UNL     1    -154.826   2.076  -6.499  1.00  0.00    -0.168 F 
HETATM   13  F2  UNL     1    -157.094   2.396  -6.345  1.00  0.00    -0.168 F 
HETATM   14  F3  UNL     1    -155.991   2.787  -8.244  1.00  0.00    -0.168 F 
ENDBRANCH   2  11
BRANCH   8  15
HETATM   15  C10 UNL     1    -152.461   5.583  -7.825  1.00  0.00     0.119 C 
HETATM   16  N1  UNL     1    -152.182   5.889  -9.041  1.00  0.00    -0.388 N 
ATOM     17  H12 UNL     1    -152.915   6.299  -9.621  1.00  0.00     0.157 HD
ATOM     18  H11 UNL     1    -151.263   5.742  -9.459  1.00  0.00     0.157 HD
HETATM   19 CL1  UNL     1    -151.206   4.881  -6.832  1.00  0.00    -0.063 Cl
ENDBRANCH   8  15
TORSDOF 2
ENDMDL
MODEL 4
REMARK VINA RESULT: -5.698123047      1.923      2.495
REMARK  2 active torsions:
REMARK  status: ('A' for Active; 'I' for Inactive)
REMARK    1  A    between atoms: C2_2  and  C3_3 
REMARK    2  A    between atoms: C9_12  and  C10_13 
ROOT
HETATM    1  C1  UNL     1    -155.710   4.153  -4.745  1.00  0.00     0.048 C 
HETATM    2  C2  UNL     1    -155.607   4.143  -6.256  1.00  0.00     0.124 C 
HETATM    3  C4  UNL     1    -156.684   5.032  -6.793  1.00  0.00     0.040 C 
HETATM    4  C5  UNL     1    -156.343   5.671  -8.110  1.00  0.00     0.003 C 
HETATM    5  C6  UNL     1    -156.141   7.147  -8.019  1.00  0.00     0.000 C 
HETATM    6  C7  UNL     1    -154.699   7.561  -7.911  1.00  0.00     0.006 C 
HETATM    7  C8  UNL     1    -154.016   7.059  -6.679  1.00  0.00     0.060 C 
HETATM    8  C9  UNL     1    -153.599   5.646  -6.800  1.00  0.00     0.044 C 
HETATM    9  N2  UNL     1    -154.277   4.548  -6.618  1.00  0.00    -0.374 N 
ATOM     10  H2  UNL     1    -153.688   3.732  -6.782  1.00  0.00     0.160 HD
ENDROOT
BRANCH   2  11
HETATM   11  C3  UNL     1    -155.774   2.700  -6.738  1.00  0.00     0.412 C 
HETATM   12  F1  UNL     1    -156.068   2.720  -8.083  1.00  0.00    -0.168 F 
HETATM   13  F2  UNL     1    -154.637   1.994  -6.443  1.00  0.00    -0.168 F 
HETATM   14  F3  UNL     1    -156.839   2.094  -6.103  1.00  0.00    -0.168 F 
ENDBRANCH   2  11
BRANCH   8  15
HETATM   15  C10 UNL     1    -152.219   5.433  -7.179  1.00  0.00     0.119 C 
HETATM   16  N1  UNL     1    -151.323   5.004  -6.365  1.00  0.00    -0.388 N 
ATOM     17  H12 UNL     1    -151.594   4.803  -5.403  1.00  0.00     0.157 HD
ATOM     18  H11 UNL     1    -150.349   4.855  -6.632  1.00  0.00     0.157 HD
HETATM   19 CL1  UNL     1    -151.753   5.778  -8.828  1.00  0.00    -0.063 Cl
ENDBRANCH   8  15
TORSDOF 2
ENDMDL
MODEL 5
REMARK VINA RESULT: -5.599930605      1.543      2.202
REMARK  2 active torsions:
REMARK  status: ('A' for Active; 'I' for Inactive)
REMARK    1  A    between atoms: C2_2  and  C3_3 
REMARK    2  A    between atoms: C9_12  and  C10_13 
ROOT
HETATM    1  C1  UNL     1    -153.019   4.227  -4.136  1.00  0.00     0.048 C 
HETATM    2  C2  UNL     1    -153.201   3.656  -5.526  1.00  0.00     0.124 C 
HETATM    3  C4  UNL     1    -154.598   3.131  -5.626  1.00  0.00     0.040 C 
HETATM    4  C5  UNL     1    -155.162   3.165  -7.019  1.00  0.00     0.003 C 
HETATM    5  C6  UNL     1    -156.270   4.153  -7.185  1.00  0.00     0.000 C 
HETATM    6  C7  UNL     1    -155.833   5.468  -7.769  1.00  0.00     0.006 C 
HETATM    7  C8  UNL     1    -154.854   6.212  -6.919  1.00  0.00     0.060 C 
HETATM    8  C9  UNL     1    -153.477   5.696  -7.058  1.00  0.00     0.044 C 
HETATM    9  N2  UNL     1    -152.892   4.685  -6.479  1.00  0.00    -0.374 N 
ATOM     10  H2  UNL     1    -151.927   4.599  -6.798  1.00  0.00     0.160 HD
ENDROOT
BRANCH   2  11
HETATM   11  C3  UNL     1    -152.166   2.546  -5.728  1.00  0.00     0.412 C 
HETATM   12  F1  UNL     1    -152.818   1.412  -6.155  1.00  0.00    -0.168 F 
HETATM   13  F2  UNL     1    -151.206   2.983  -6.603  1.00  0.00    -0.168 F 
HETATM   14  F3  UNL     1    -151.552   2.230  -4.532  1.00  0.00    -0.168 F 
ENDBRANCH   2  11
BRANCH   8  15
HETATM   15  C10 UNL     1    -152.630   6.420  -7.982  1.00  0.00     0.119 C 
HETATM   16  N1  UNL     1    -152.726   7.684  -8.184  1.00  0.00    -0.388 N 
ATOM     17  H12 UNL     1    -153.434   8.207  -7.669  1.00  0.00     0.157 HD
ATOM     18  H11 UNL     1    -152.129   8.194  -8.836  1.00  0.00     0.157 HD
HETATM   19 CL1  UNL     1    -151.415   5.524  -8.864  1.00  0.00    -0.063 Cl
ENDBRANCH   8  15
TORSDOF 2
ENDMDL
