MODEL 1
REMARK VINA RESULT: -4.262193519      0.000      0.000
REMARK  1 active torsions:
REMARK  status: ('A' for Active; 'I' for Inactive)
REMARK    1  A    between atoms: C7_9  and  C9_12 
ROOT
HETATM    1  C1  UNL     1    -155.217   4.809  -5.080  1.00  0.00     0.020 C 
HETATM    2  C2  UNL     1    -156.418   4.865  -5.966  1.00  0.00     0.017 C 
HETATM    3  C3  UNL     1    -157.627   5.160  -5.079  1.00  0.00     0.020 C 
HETATM    4  C4  UNL     1    -156.645   3.485  -6.550  1.00  0.00     0.122 C 
HETATM    5 CL1  UNL     1    -155.901   2.207  -5.586  1.00  0.00    -0.101 Cl
HETATM    6 CL2  UNL     1    -158.407   3.123  -6.620  1.00  0.00    -0.101 Cl
HETATM    7  C5  UNL     1    -156.087   3.526  -7.963  1.00  0.00     0.045 C 
HETATM    8  C6  UNL     1    -155.561   4.927  -8.174  1.00  0.00     0.038 C 
HETATM    9  C7  UNL     1    -156.326   5.724  -7.149  1.00  0.00     0.156 C 
HETATM   10  C8  UNL     1    -157.676   5.953  -7.690  1.00  0.00     0.079 C 
HETATM   11  N1  UNL     1    -158.741   6.114  -8.120  1.00  0.00    -0.196 NA
ENDROOT
BRANCH   9  12
HETATM   12  C9  UNL     1    -155.681   7.058  -6.966  1.00  0.00     0.408 C 
HETATM   13  F1  UNL     1    -154.336   6.989  -6.709  1.00  0.00    -0.169 F 
HETATM   14  F2  UNL     1    -155.794   7.706  -8.208  1.00  0.00    -0.169 F 
HETATM   15  F3  UNL     1    -156.362   7.866  -6.079  1.00  0.00    -0.169 F 
ENDBRANCH   9  12
TORSDOF 1
ENDMDL
MODEL 2
REMARK VINA RESULT: -4.249209424      3.505      4.261
REMARK  1 active torsions:
REMARK  status: ('A' for Active; 'I' for Inactive)
REMARK    1  A    between atoms: C7_9  and  C9_12 
ROOT
HETATM    1  C1  UNL     1    -158.738   5.183  -7.211  1.00  0.00     0.020 C 
HETATM    2  C2  UNL     1    -157.385   5.179  -6.578  1.00  0.00     0.017 C 
HETATM    3  C3  UNL     1    -157.485   5.982  -5.282  1.00  0.00     0.020 C 
HETATM    4  C4  UNL     1    -156.434   5.941  -7.480  1.00  0.00     0.122 C 
HETATM    5 CL1  UNL     1    -157.269   7.058  -8.561  1.00  0.00    -0.101 Cl
HETATM    6 CL2  UNL     1    -155.298   6.928  -6.490  1.00  0.00    -0.101 Cl
HETATM    7  C5  UNL     1    -155.646   4.893  -8.247  1.00  0.00     0.045 C 
HETATM    8  C6  UNL     1    -156.145   3.549  -7.768  1.00  0.00     0.038 C 
HETATM    9  C7  UNL     1    -156.734   3.877  -6.421  1.00  0.00     0.156 C 
HETATM   10  C8  UNL     1    -155.614   4.003  -5.473  1.00  0.00     0.079 C 
HETATM   11  N1  UNL     1    -154.724   4.116  -4.738  1.00  0.00    -0.196 NA
ENDROOT
BRANCH   9  12
HETATM   12  C9  UNL     1    -157.591   2.745  -5.958  1.00  0.00     0.408 C 
HETATM   13  F1  UNL     1    -158.351   2.187  -6.953  1.00  0.00    -0.169 F 
HETATM   14  F2  UNL     1    -156.699   1.736  -5.556  1.00  0.00    -0.169 F 
HETATM   15  F3  UNL     1    -158.318   3.050  -4.827  1.00  0.00    -0.169 F 
ENDBRANCH   9  12
TORSDOF 1
ENDMDL
MODEL 3
REMARK VINA RESULT: -4.076772342      3.131      4.384
REMARK  1 active torsions:
REMARK  status: ('A' for Active; 'I' for Inactive)
REMARK    1  A    between atoms: C7_9  and  C9_12 
ROOT
HETATM    1  C1  UNL     1    -155.186   5.458  -6.098  1.00  0.00     0.020 C 
HETATM    2  C2  UNL     1    -154.940   3.993  -5.941  1.00  0.00     0.017 C 
HETATM    3  C3  UNL     1    -155.464   3.305  -7.201  1.00  0.00     0.020 C 
HETATM    4  C4  UNL     1    -155.792   3.486  -4.794  1.00  0.00     0.122 C 
HETATM    5 CL1  UNL     1    -157.173   4.532  -4.457  1.00  0.00    -0.101 Cl
HETATM    6 CL2  UNL     1    -156.456   1.859  -5.186  1.00  0.00    -0.101 Cl
HETATM    7  C5  UNL     1    -154.863   3.370  -3.597  1.00  0.00     0.045 C 
HETATM    8  C6  UNL     1    -153.495   3.799  -4.075  1.00  0.00     0.038 C 
HETATM    9  C7  UNL     1    -153.584   3.588  -5.564  1.00  0.00     0.156 C 
HETATM   10  C8  UNL     1    -153.420   2.146  -5.812  1.00  0.00     0.079 C 
HETATM   11  N1  UNL     1    -153.305   1.006  -5.994  1.00  0.00    -0.196 NA
ENDROOT
BRANCH   9  12
HETATM   12  C9  UNL     1    -152.456   4.293  -6.241  1.00  0.00     0.408 C 
HETATM   13  F1  UNL     1    -152.824   4.945  -7.389  1.00  0.00    -0.169 F 
HETATM   14  F2  UNL     1    -152.051   5.301  -5.349  1.00  0.00    -0.169 F 
HETATM   15  F3  UNL     1    -151.344   3.493  -6.404  1.00  0.00    -0.169 F 
ENDBRANCH   9  12
TORSDOF 1
ENDMDL
MODEL 4
REMARK VINA RESULT: -4.071521767      3.363      4.370
REMARK  1 active torsions:
REMARK  status: ('A' for Active; 'I' for Inactive)
REMARK    1  A    between atoms: C7_9  and  C9_12 
ROOT
HETATM    1  C1  UNL     1    -152.047   4.201  -6.365  1.00  0.00     0.020 C 
HETATM    2  C2  UNL     1    -152.923   3.745  -5.244  1.00  0.00     0.017 C 
HETATM    3  C3  UNL     1    -152.618   4.631  -4.037  1.00  0.00     0.020 C 
HETATM    4  C4  UNL     1    -152.508   2.339  -4.856  1.00  0.00     0.122 C 
HETATM    5 CL1  UNL     1    -150.855   1.959  -5.343  1.00  0.00    -0.101 Cl
HETATM    6 CL2  UNL     1    -152.580   2.143  -3.067  1.00  0.00    -0.101 Cl
HETATM    7  C5  UNL     1    -153.518   1.406  -5.502  1.00  0.00     0.045 C 
HETATM    8  C6  UNL     1    -154.502   2.286  -6.239  1.00  0.00     0.038 C 
HETATM    9  C7  UNL     1    -154.352   3.610  -5.535  1.00  0.00     0.156 C 
HETATM   10  C8  UNL     1    -155.099   3.520  -4.270  1.00  0.00     0.079 C 
HETATM   11  N1  UNL     1    -155.679   3.433  -3.269  1.00  0.00    -0.196 NA
ENDROOT
BRANCH   9  12
HETATM   12  C9  UNL     1    -154.979   4.688  -6.354  1.00  0.00     0.408 C 
HETATM   13  F1  UNL     1    -154.860   4.493  -7.706  1.00  0.00    -0.169 F 
HETATM   14  F2  UNL     1    -156.356   4.616  -6.083  1.00  0.00    -0.169 F 
HETATM   15  F3  UNL     1    -154.602   5.954  -5.954  1.00  0.00    -0.169 F 
ENDBRANCH   9  12
TORSDOF 1
ENDMDL
MODEL 5
REMARK VINA RESULT: -4.056647094      1.654      2.197
REMARK  1 active torsions:
REMARK  status: ('A' for Active; 'I' for Inactive)
REMARK    1  A    between atoms: C7_9  and  C9_12 
ROOT
HETATM    1  C1  UNL     1    -152.887   4.234  -6.717  1.00  0.00     0.020 C 
HETATM    2  C2  UNL     1    -154.264   4.490  -6.198  1.00  0.00     0.017 C 
HETATM    3  C3  UNL     1    -154.125   4.996  -4.763  1.00  0.00     0.020 C 
HETATM    4  C4  UNL     1    -154.997   3.166  -6.114  1.00  0.00     0.122 C 
HETATM    5 CL1  UNL     1    -153.901   1.785  -6.028  1.00  0.00    -0.101 Cl
HETATM    6 CL2  UNL     1    -156.015   3.114  -4.630  1.00  0.00    -0.101 Cl
HETATM    7  C5  UNL     1    -155.895   3.101  -7.338  1.00  0.00     0.045 C 
HETATM    8  C6  UNL     1    -155.676   4.389  -8.098  1.00  0.00     0.038 C 
HETATM    9  C7  UNL     1    -155.142   5.312  -7.034  1.00  0.00     0.156 C 
HETATM   10  C8  UNL     1    -156.290   5.767  -6.233  1.00  0.00     0.079 C 
HETATM   11  N1  UNL     1    -157.201   6.107  -5.599  1.00  0.00    -0.196 NA
ENDROOT
BRANCH   9  12
HETATM   12  C9  UNL     1    -154.533   6.516  -7.673  1.00  0.00     0.408 C 
HETATM   13  F1  UNL     1    -153.771   6.228  -8.776  1.00  0.00    -0.169 F 
HETATM   14  F2  UNL     1    -155.613   7.279  -8.149  1.00  0.00    -0.169 F 
HETATM   15  F3  UNL     1    -153.888   7.335  -6.769  1.00  0.00    -0.169 F 
ENDBRANCH   9  12
TORSDOF 1
ENDMDL
