MODEL 1
REMARK VINA RESULT: -6.670422768      0.000      0.000
REMARK  8 active torsions:
REMARK  status: ('A' for Active; 'I' for Inactive)
REMARK    1  A    between atoms: C2_2  and  C3_3 
REMARK    2  A    between atoms: C3_3  and  N1_6 
REMARK    3  A    between atoms: N1_6  and  C6_8 
REMARK    4  A    between atoms: C6_8  and  N2_9 
REMARK    5  A    between atoms: C6_8  and  C7_13 
REMARK    6  A    between atoms: N3_14  and  C8_15 
REMARK    7  A    between atoms: C8_15  and  C9_16 
REMARK    8  A    between atoms: N6_25  and  O1_26 
ROOT
HETATM    1  C7  UNL     1      59.129   2.456  31.011  1.00  0.00     0.305 A 
HETATM    2  N3  UNL     1      58.862   2.790  32.360  1.00  0.00    -0.166 N 
HETATM    3  C12 UNL     1      57.412   2.927  32.464  1.00  0.00     0.696 A 
HETATM    4  N4  UNL     1      56.817   3.332  33.528  1.00  0.00    -0.233 N 
ATOM      5  H41 UNL     1      55.804   3.429  33.601  1.00  0.00     0.174 HD
ATOM      6  H42 UNL     1      57.213   3.602  34.429  1.00  0.00     0.174 HD
HETATM    7  N5  UNL     1      56.866   2.556  31.222  1.00  0.00    -0.108 N 
ATOM      8  H5  UNL     1      55.869   2.524  31.007  1.00  0.00     0.208 HD
HETATM    9  N6  UNL     1      57.765   2.274  30.434  1.00  0.00    -0.158 N 
ENDROOT
BRANCH   1  10
HETATM   10  C6  UNL     1      59.640   3.673  30.149  1.00  0.00     0.326 C 
BRANCH  10  11
HETATM   11  N1  UNL     1      60.742   4.201  30.789  1.00  0.00    -0.385 N 
ATOM     12  H1  UNL     1      60.648   4.410  31.782  1.00  0.00     0.156 HD
BRANCH  11  13
HETATM   13  C3  UNL     1      61.980   4.474  30.193  1.00  0.00     0.020 C 
HETATM   14  C4  UNL     1      61.947   5.929  29.710  1.00  0.00     0.037 C 
HETATM   15  C5  UNL     1      63.224   4.288  30.989  1.00  0.00     0.037 C 
BRANCH  13  16
HETATM   16  C2  UNL     1      62.105   3.544  28.995  1.00  0.00     0.025 C 
HETATM   17  C1  UNL     1      63.262   2.621  29.015  1.00  0.00     0.007 C 
ENDBRANCH  13  16
ENDBRANCH  11  13
ENDBRANCH  10  11
BRANCH  10  18
HETATM   18  N2  UNL     1      58.466   4.469  29.919  1.00  0.00    -0.055 N 
ATOM     19  H23 UNL     1      58.659   5.418  30.239  1.00  0.00     0.276 HD
ATOM     20  H22 UNL     1      58.367   4.604  28.913  1.00  0.00     0.276 HD
ATOM     21  H21 UNL     1      57.558   4.188  30.292  1.00  0.00     0.276 HD
ENDBRANCH  10  18
ENDBRANCH   1  10
BRANCH   2  22
HETATM   22  C8  UNL     1      59.642   2.797  33.565  1.00  0.00     0.088 C 
BRANCH  22  23
HETATM   23  C9  UNL     1      60.420   3.931  34.025  1.00  0.00     0.017 C 
HETATM   24  C10 UNL     1      61.843   3.632  34.427  1.00  0.00     0.015 C 
HETATM   25  C11 UNL     1      59.782   4.553  35.293  1.00  0.00     0.015 C 
ENDBRANCH  22  23
ENDBRANCH   2  22
BRANCH   9  26
HETATM   26  O1  UNL     1      57.640   1.829  29.134  1.00  0.00    -0.270 OA
ATOM     27  H1  UNL     1      57.212   0.997  28.969  1.00  0.00     0.246 HD
ENDBRANCH   9  26
TORSDOF 8
ENDMDL
MODEL 2
REMARK VINA RESULT: -6.568874360      1.491      1.856
REMARK  8 active torsions:
REMARK  status: ('A' for Active; 'I' for Inactive)
REMARK    1  A    between atoms: C2_2  and  C3_3 
REMARK    2  A    between atoms: C3_3  and  N1_6 
REMARK    3  A    between atoms: N1_6  and  C6_8 
REMARK    4  A    between atoms: C6_8  and  N2_9 
REMARK    5  A    between atoms: C6_8  and  C7_13 
REMARK    6  A    between atoms: N3_14  and  C8_15 
REMARK    7  A    between atoms: C8_15  and  C9_16 
REMARK    8  A    between atoms: N6_25  and  O1_26 
ROOT
HETATM    1  C7  UNL     1      59.413   2.557  31.977  1.00  0.00     0.305 A 
HETATM    2  N3  UNL     1      58.417   2.860  32.936  1.00  0.00    -0.166 N 
HETATM    3  C12 UNL     1      57.172   3.015  32.190  1.00  0.00     0.696 A 
HETATM    4  N4  UNL     1      56.071   3.401  32.729  1.00  0.00    -0.233 N 
ATOM      5  H41 UNL     1      55.200   3.510  32.208  1.00  0.00     0.174 HD
ATOM      6  H42 UNL     1      55.875   3.643  33.701  1.00  0.00     0.174 HD
HETATM    7  N5  UNL     1      57.441   2.683  30.849  1.00  0.00    -0.108 N 
ATOM      8  H5  UNL     1      56.750   2.671  30.099  1.00  0.00     0.208 HD
HETATM    9  N6  UNL     1      58.631   2.409  30.716  1.00  0.00    -0.158 N 
ENDROOT
BRANCH   1  10
HETATM   10  C6  UNL     1      60.323   3.787  31.602  1.00  0.00     0.326 C 
BRANCH  10  11
HETATM   11  N1  UNL     1      61.372   3.313  30.842  1.00  0.00    -0.385 N 
ATOM     12  H1  UNL     1      61.622   2.331  30.956  1.00  0.00     0.156 HD
BRANCH  11  13
HETATM   13  C3  UNL     1      62.123   4.061  29.926  1.00  0.00     0.020 C 
HETATM   14  C4  UNL     1      61.162   5.027  29.223  1.00  0.00     0.037 C 
HETATM   15  C5  UNL     1      63.284   4.852  30.417  1.00  0.00     0.037 C 
BRANCH  13  16
HETATM   16  C2  UNL     1      62.685   3.076  28.912  1.00  0.00     0.025 C 
HETATM   17  C1  UNL     1      63.958   2.420  29.287  1.00  0.00     0.007 C 
ENDBRANCH  13  16
ENDBRANCH  11  13
ENDBRANCH  10  11
BRANCH  10  18
HETATM   18  N2  UNL     1      60.559   4.455  32.853  1.00  0.00    -0.055 N 
ATOM     19  H23 UNL     1      61.566   4.481  33.013  1.00  0.00     0.276 HD
ATOM     20  H22 UNL     1      60.343   5.444  32.730  1.00  0.00     0.276 HD
ATOM     21  H21 UNL     1      60.110   4.136  33.712  1.00  0.00     0.276 HD
ENDBRANCH  10  18
ENDBRANCH   1  10
BRANCH   2  22
HETATM   22  C8  UNL     1      58.361   2.826  34.370  1.00  0.00     0.088 C 
BRANCH  22  23
HETATM   23  C9  UNL     1      58.960   1.786  35.184  1.00  0.00     0.017 C 
HETATM   24  C10 UNL     1      58.330   1.565  36.536  1.00  0.00     0.015 C 
HETATM   25  C11 UNL     1      60.440   2.122  35.497  1.00  0.00     0.015 C 
ENDBRANCH  22  23
ENDBRANCH   2  22
BRANCH   9  26
HETATM   26  O1  UNL     1      59.279   1.998  29.568  1.00  0.00    -0.270 OA
ATOM     27  H1  UNL     1      58.764   1.778  28.800  1.00  0.00     0.246 HD
ENDBRANCH   9  26
TORSDOF 8
ENDMDL
MODEL 3
REMARK VINA RESULT: -6.504028690      1.529      2.258
REMARK  8 active torsions:
REMARK  status: ('A' for Active; 'I' for Inactive)
REMARK    1  A    between atoms: C2_2  and  C3_3 
REMARK    2  A    between atoms: C3_3  and  N1_6 
REMARK    3  A    between atoms: N1_6  and  C6_8 
REMARK    4  A    between atoms: C6_8  and  N2_9 
REMARK    5  A    between atoms: C6_8  and  C7_13 
REMARK    6  A    between atoms: N3_14  and  C8_15 
REMARK    7  A    between atoms: C8_15  and  C9_16 
REMARK    8  A    between atoms: N6_25  and  O1_26 
ROOT
HETATM    1  C7  UNL     1      59.546   2.389  32.119  1.00  0.00     0.305 A 
HETATM    2  N3  UNL     1      58.664   2.687  33.185  1.00  0.00    -0.166 N 
HETATM    3  C12 UNL     1      57.371   2.976  32.572  1.00  0.00     0.696 A 
HETATM    4  N4  UNL     1      56.353   3.393  33.236  1.00  0.00    -0.233 N 
ATOM      5  H41 UNL     1      55.450   3.596  32.808  1.00  0.00     0.174 HD
ATOM      6  H42 UNL     1      56.263   3.577  34.236  1.00  0.00     0.174 HD
HETATM    7  N5  UNL     1      57.495   2.723  31.193  1.00  0.00    -0.108 N 
ATOM      8  H5  UNL     1      56.740   2.809  30.512  1.00  0.00     0.208 HD
HETATM    9  N6  UNL     1      58.646   2.382  30.930  1.00  0.00    -0.158 N 
ENDROOT
BRANCH   1  10
HETATM   10  C6  UNL     1      60.505   3.580  31.741  1.00  0.00     0.326 C 
BRANCH  10  11
HETATM   11  N1  UNL     1      61.559   3.054  31.024  1.00  0.00    -0.385 N 
ATOM     12  H1  UNL     1      61.866   2.114  31.271  1.00  0.00     0.156 HD
BRANCH  11  13
HETATM   13  C3  UNL     1      62.246   3.699  29.987  1.00  0.00     0.020 C 
HETATM   14  C4  UNL     1      63.485   4.363  30.598  1.00  0.00     0.037 C 
HETATM   15  C5  UNL     1      62.690   2.905  28.809  1.00  0.00     0.037 C 
BRANCH  13  16
HETATM   16  C2  UNL     1      61.312   4.770  29.442  1.00  0.00     0.025 C 
HETATM   17  C1  UNL     1      61.708   6.170  29.716  1.00  0.00     0.007 C 
ENDBRANCH  13  16
ENDBRANCH  11  13
ENDBRANCH  10  11
BRANCH  10  18
HETATM   18  N2  UNL     1      60.725   4.272  32.981  1.00  0.00    -0.055 N 
ATOM     19  H23 UNL     1      61.361   3.712  33.548  1.00  0.00     0.276 HD
ATOM     20  H22 UNL     1      61.292   5.098  32.786  1.00  0.00     0.276 HD
ATOM     21  H21 UNL     1      59.943   4.557  33.570  1.00  0.00     0.276 HD
ENDBRANCH  10  18
ENDBRANCH   1  10
BRANCH   2  22
HETATM   22  C8  UNL     1      58.735   2.554  34.613  1.00  0.00     0.088 C 
BRANCH  22  23
HETATM   23  C9  UNL     1      59.429   1.482  35.298  1.00  0.00     0.017 C 
HETATM   24  C10 UNL     1      58.858   1.078  36.635  1.00  0.00     0.015 C 
HETATM   25  C11 UNL     1      60.891   1.888  35.609  1.00  0.00     0.015 C 
ENDBRANCH  22  23
ENDBRANCH   2  22
BRANCH   9  26
HETATM   26  O1  UNL     1      59.157   2.012  29.703  1.00  0.00    -0.270 OA
ATOM     27  H1  UNL     1      59.476   1.125  29.582  1.00  0.00     0.246 HD
ENDBRANCH   9  26
TORSDOF 8
ENDMDL
MODEL 4
REMARK VINA RESULT: -6.421955603      0.954      1.663
REMARK  8 active torsions:
REMARK  status: ('A' for Active; 'I' for Inactive)
REMARK    1  A    between atoms: C2_2  and  C3_3 
REMARK    2  A    between atoms: C3_3  and  N1_6 
REMARK    3  A    between atoms: N1_6  and  C6_8 
REMARK    4  A    between atoms: C6_8  and  N2_9 
REMARK    5  A    between atoms: C6_8  and  C7_13 
REMARK    6  A    between atoms: N3_14  and  C8_15 
REMARK    7  A    between atoms: C8_15  and  C9_16 
REMARK    8  A    between atoms: N6_25  and  O1_26 
ROOT
HETATM    1  C7  UNL     1      58.601   2.338  30.863  1.00  0.00     0.305 A 
HETATM    2  N3  UNL     1      57.906   2.862  31.980  1.00  0.00    -0.166 N 
HETATM    3  C12 UNL     1      56.514   3.001  31.561  1.00  0.00     0.696 A 
HETATM    4  N4  UNL     1      55.610   3.552  32.290  1.00  0.00    -0.233 N 
ATOM      5  H41 UNL     1      54.638   3.649  31.998  1.00  0.00     0.174 HD
ATOM      6  H42 UNL     1      55.688   3.953  33.225  1.00  0.00     0.174 HD
HETATM    7  N5  UNL     1      56.407   2.448  30.272  1.00  0.00    -0.108 N 
ATOM      8  H5  UNL     1      55.542   2.377  29.736  1.00  0.00     0.208 HD
HETATM    9  N6  UNL     1      57.507   2.062  29.887  1.00  0.00    -0.158 N 
ENDROOT
BRANCH   1  10
HETATM   10  C6  UNL     1      59.424   3.420  30.067  1.00  0.00     0.326 C 
BRANCH  10  11
HETATM   11  N1  UNL     1      60.665   3.519  30.663  1.00  0.00    -0.385 N 
ATOM     12  H1  UNL     1      60.775   3.092  31.582  1.00  0.00     0.156 HD
BRANCH  11  13
HETATM   13  C3  UNL     1      61.786   4.156  30.115  1.00  0.00     0.020 C 
HETATM   14  C4  UNL     1      62.013   3.567  28.718  1.00  0.00     0.037 C 
HETATM   15  C5  UNL     1      61.788   5.639  29.989  1.00  0.00     0.037 C 
BRANCH  13  16
HETATM   16  C2  UNL     1      62.967   3.810  31.011  1.00  0.00     0.025 C 
HETATM   17  C1  UNL     1      62.693   3.808  32.466  1.00  0.00     0.007 C 
ENDBRANCH  13  16
ENDBRANCH  11  13
ENDBRANCH  10  11
BRANCH  10  18
HETATM   18  N2  UNL     1      58.547   4.556  29.991  1.00  0.00    -0.055 N 
ATOM     19  H23 UNL     1      57.820   4.349  29.307  1.00  0.00     0.276 HD
ATOM     20  H22 UNL     1      58.011   4.600  30.857  1.00  0.00     0.276 HD
ATOM     21  H21 UNL     1      58.910   5.489  29.795  1.00  0.00     0.276 HD
ENDBRANCH  10  18
ENDBRANCH   1  10
BRANCH   2  22
HETATM   22  C8  UNL     1      58.230   3.052  33.365  1.00  0.00     0.088 C 
BRANCH  22  23
HETATM   23  C9  UNL     1      59.540   2.806  33.936  1.00  0.00     0.017 C 
HETATM   24  C10 UNL     1      59.669   1.558  34.772  1.00  0.00     0.015 C 
HETATM   25  C11 UNL     1      59.944   3.956  34.893  1.00  0.00     0.015 C 
ENDBRANCH  22  23
ENDBRANCH   2  22
BRANCH   9  26
HETATM   26  O1  UNL     1      57.812   1.431  28.698  1.00  0.00    -0.270 OA
ATOM     27  H1  UNL     1      57.222   0.766  28.363  1.00  0.00     0.246 HD
ENDBRANCH   9  26
TORSDOF 8
ENDMDL
MODEL 5
REMARK VINA RESULT: -6.402180750      2.731      4.882
REMARK  8 active torsions:
REMARK  status: ('A' for Active; 'I' for Inactive)
REMARK    1  A    between atoms: C2_2  and  C3_3 
REMARK    2  A    between atoms: C3_3  and  N1_6 
REMARK    3  A    between atoms: N1_6  and  C6_8 
REMARK    4  A    between atoms: C6_8  and  N2_9 
REMARK    5  A    between atoms: C6_8  and  C7_13 
REMARK    6  A    between atoms: N3_14  and  C8_15 
REMARK    7  A    between atoms: C8_15  and  C9_16 
REMARK    8  A    between atoms: N6_25  and  O1_26 
ROOT
HETATM    1  C7  UNL     1      61.529   3.456  29.573  1.00  0.00     0.305 A 
HETATM    2  N3  UNL     1      60.467   4.342  29.874  1.00  0.00    -0.166 N 
HETATM    3  C12 UNL     1      61.075   5.659  30.040  1.00  0.00     0.696 A 
HETATM    4  N4  UNL     1      60.419   6.694  30.428  1.00  0.00    -0.233 N 
ATOM      5  H41 UNL     1      60.843   7.615  30.544  1.00  0.00     0.174 HD
ATOM      6  H42 UNL     1      59.430   6.784  30.663  1.00  0.00     0.174 HD
HETATM    7  N5  UNL     1      62.438   5.536  29.716  1.00  0.00    -0.108 N 
ATOM      8  H5  UNL     1      63.111   6.304  29.712  1.00  0.00     0.208 HD
HETATM    9  N6  UNL     1      62.700   4.369  29.437  1.00  0.00    -0.158 N 
ENDROOT
BRANCH   1  10
HETATM   10  C6  UNL     1      61.992   2.585  30.802  1.00  0.00     0.326 C 
BRANCH  10  11
HETATM   11  N1  UNL     1      62.245   3.445  31.849  1.00  0.00    -0.385 N 
ATOM     12  H1  UNL     1      62.999   4.120  31.725  1.00  0.00     0.156 HD
BRANCH  11  13
HETATM   13  C3  UNL     1      61.558   3.473  33.070  1.00  0.00     0.020 C 
HETATM   14  C4  UNL     1      62.581   3.205  34.180  1.00  0.00     0.037 C 
HETATM   15  C5  UNL     1      60.791   4.693  33.442  1.00  0.00     0.037 C 
BRANCH  13  16
HETATM   16  C2  UNL     1      60.545   2.338  33.028  1.00  0.00     0.025 C 
HETATM   17  C1  UNL     1      59.331   2.527  33.854  1.00  0.00     0.007 C 
ENDBRANCH  13  16
ENDBRANCH  11  13
ENDBRANCH  10  11
BRANCH  10  18
HETATM   18  N2  UNL     1      63.026   1.738  30.273  1.00  0.00    -0.055 N 
ATOM     19  H23 UNL     1      63.148   1.965  29.286  1.00  0.00     0.276 HD
ATOM     20  H22 UNL     1      63.916   2.040  30.668  1.00  0.00     0.276 HD
ATOM     21  H21 UNL     1      62.969   0.722  30.359  1.00  0.00     0.276 HD
ENDBRANCH  10  18
ENDBRANCH   1  10
BRANCH   2  22
HETATM   22  C8  UNL     1      59.036   4.245  29.830  1.00  0.00     0.088 C 
BRANCH  22  23
HETATM   23  C9  UNL     1      58.282   3.107  30.319  1.00  0.00     0.017 C 
HETATM   24  C10 UNL     1      58.123   1.960  29.353  1.00  0.00     0.015 C 
HETATM   25  C11 UNL     1      56.830   3.522  30.669  1.00  0.00     0.015 C 
ENDBRANCH  22  23
ENDBRANCH   2  22
BRANCH   9  26
HETATM   26  O1  UNL     1      63.913   3.850  29.031  1.00  0.00    -0.270 OA
ATOM     27  H1  UNL     1      64.716   4.259  29.334  1.00  0.00     0.246 HD
ENDBRANCH   9  26
TORSDOF 8
ENDMDL
