MODEL 1
REMARK VINA RESULT: -7.971277759      0.000      0.000
REMARK  5 active torsions:
REMARK  status: ('A' for Active; 'I' for Inactive)
REMARK    1  A    between atoms: C2_2  and  C3_3 
REMARK    2  A    between atoms: C3_3  and  O1_4 
REMARK    3  A    between atoms: O1_4  and  C4_5 
REMARK    4  A    between atoms: C9_10  and  N1_11 
REMARK       I    between atoms: C10_13  and  N3_15 
REMARK    5  A    between atoms: N3_15  and  C11_17 
ROOT
HETATM    1  C11 UNL     1      62.693   3.638  29.446  1.00  0.00     0.187 C 
HETATM    2  C12 UNL     1      63.057   5.107  29.679  1.00  0.00     0.048 C 
HETATM    3  C13 UNL     1      63.855   2.803  29.266  1.00  0.00     0.084 C 
HETATM    4  N4  UNL     1      64.789   2.138  29.111  1.00  0.00    -0.195 NA
ENDROOT
BRANCH   1   5
HETATM    5  N3  UNL     1      61.876   3.140  30.551  1.00  0.00    -0.348 N 
HETATM    6  C10 UNL     1      60.481   3.380  30.560  1.00  0.00     0.189 C 
HETATM    7  N1  UNL     1      59.680   2.377  30.568  1.00  0.00    -0.328 N 
HETATM    8  N2  UNL     1      59.916   4.681  30.562  1.00  0.00    -0.063 NA
ATOM      9  H1  UNL     1      60.097   1.446  30.568  1.00  0.00     0.168 HD
ATOM     10  H3  UNL     1      62.310   2.620  31.314  1.00  0.00     0.163 HD
BRANCH   7  11
HETATM   11  C9  UNL     1      58.275   2.454  30.578  1.00  0.00     0.068 A 
HETATM   12  C4  UNL     1      57.634   2.701  31.785  1.00  0.00     0.095 A 
HETATM   13  C5  UNL     1      56.252   2.768  31.747  1.00  0.00     0.039 A 
HETATM   14  C6  UNL     1      55.512   2.604  30.595  1.00  0.00     0.003 A 
HETATM   15  C7  UNL     1      56.178   2.361  29.411  1.00  0.00     0.002 A 
HETATM   16  C8  UNL     1      57.566   2.285  29.407  1.00  0.00     0.032 A 
BRANCH  12  17
HETATM   17  O1  UNL     1      58.356   2.871  32.966  1.00  0.00    -0.349 OA
BRANCH  17  18
HETATM   18  C3  UNL     1      57.618   3.045  34.158  1.00  0.00     0.175 C 
BRANCH  18  19
HETATM   19  C2  UNL     1      58.356   2.533  35.368  1.00  0.00     0.022 C 
HETATM   20  C1  UNL     1      59.491   1.616  34.991  1.00  0.00     0.007 C 
ENDBRANCH  18  19
ENDBRANCH  17  18
ENDBRANCH  12  17
ENDBRANCH   7  11
ENDBRANCH   1   5
TORSDOF 5
ENDMDL
MODEL 2
REMARK VINA RESULT: -7.576274572      1.973      5.376
REMARK  5 active torsions:
REMARK  status: ('A' for Active; 'I' for Inactive)
REMARK    1  A    between atoms: C2_2  and  C3_3 
REMARK    2  A    between atoms: C3_3  and  O1_4 
REMARK    3  A    between atoms: O1_4  and  C4_5 
REMARK    4  A    between atoms: C9_10  and  N1_11 
REMARK       I    between atoms: C10_13  and  N3_15 
REMARK    5  A    between atoms: N3_15  and  C11_17 
ROOT
HETATM    1  C11 UNL     1      56.212   2.905  30.855  1.00  0.00     0.187 C 
HETATM    2  C12 UNL     1      55.003   1.981  30.685  1.00  0.00     0.048 C 
HETATM    3  C13 UNL     1      56.708   2.923  32.208  1.00  0.00     0.084 C 
HETATM    4  N4  UNL     1      57.098   2.944  33.298  1.00  0.00    -0.195 NA
ENDROOT
BRANCH   1   5
HETATM    5  N3  UNL     1      57.276   2.517  29.929  1.00  0.00    -0.348 N 
HETATM    6  C10 UNL     1      58.514   3.203  29.952  1.00  0.00     0.189 C 
HETATM    7  N1  UNL     1      59.584   2.540  30.203  1.00  0.00    -0.328 N 
HETATM    8  N2  UNL     1      58.637   4.595  29.710  1.00  0.00    -0.063 NA
ATOM      9  H1  UNL     1      59.485   1.540  30.375  1.00  0.00     0.168 HD
ATOM     10  H3  UNL     1      57.126   1.754  29.268  1.00  0.00     0.163 HD
BRANCH   7  11
HETATM   11  C9  UNL     1      60.883   3.079  30.260  1.00  0.00     0.068 A 
HETATM   12  C4  UNL     1      61.346   3.564  31.476  1.00  0.00     0.095 A 
HETATM   13  C5  UNL     1      62.628   4.085  31.485  1.00  0.00     0.039 A 
HETATM   14  C6  UNL     1      63.437   4.140  30.369  1.00  0.00     0.003 A 
HETATM   15  C7  UNL     1      62.949   3.650  29.175  1.00  0.00     0.002 A 
HETATM   16  C8  UNL     1      61.664   3.118  29.124  1.00  0.00     0.032 A 
BRANCH  12  17
HETATM   17  O1  UNL     1      60.551   3.521  32.622  1.00  0.00    -0.349 OA
BRANCH  17  18
HETATM   18  C3  UNL     1      61.075   4.105  33.797  1.00  0.00     0.175 C 
BRANCH  18  19
HETATM   19  C2  UNL     1      60.084   4.096  34.931  1.00  0.00     0.022 C 
HETATM   20  C1  UNL     1      59.894   5.468  35.526  1.00  0.00     0.007 C 
ENDBRANCH  18  19
ENDBRANCH  17  18
ENDBRANCH  12  17
ENDBRANCH   7  11
ENDBRANCH   1   5
TORSDOF 5
ENDMDL
MODEL 3
REMARK VINA RESULT: -7.442141367      0.900      1.018
REMARK  5 active torsions:
REMARK  status: ('A' for Active; 'I' for Inactive)
REMARK    1  A    between atoms: C2_2  and  C3_3 
REMARK    2  A    between atoms: C3_3  and  O1_4 
REMARK    3  A    between atoms: O1_4  and  C4_5 
REMARK    4  A    between atoms: C9_10  and  N1_11 
REMARK       I    between atoms: C10_13  and  N3_15 
REMARK    5  A    between atoms: N3_15  and  C11_17 
ROOT
HETATM    1  C11 UNL     1      62.589   3.348  29.433  1.00  0.00     0.187 C 
HETATM    2  C12 UNL     1      62.792   4.835  29.732  1.00  0.00     0.048 C 
HETATM    3  C13 UNL     1      63.836   2.638  29.285  1.00  0.00     0.084 C 
HETATM    4  N4  UNL     1      64.838   2.074  29.156  1.00  0.00    -0.195 NA
ENDROOT
BRANCH   1   5
HETATM    5  N3  UNL     1      61.775   2.730  30.480  1.00  0.00    -0.348 N 
HETATM    6  C10 UNL     1      60.442   3.162  30.682  1.00  0.00     0.189 C 
HETATM    7  N1  UNL     1      59.489   2.313  30.551  1.00  0.00    -0.328 N 
HETATM    8  N2  UNL     1      60.101   4.496  31.026  1.00  0.00    -0.063 NA
ATOM      9  H1  UNL     1      59.745   1.357  30.304  1.00  0.00     0.168 HD
ATOM     10  H3  UNL     1      62.166   1.990  31.062  1.00  0.00     0.163 HD
BRANCH   7  11
HETATM   11  C9  UNL     1      58.120   2.590  30.720  1.00  0.00     0.068 A 
HETATM   12  C4  UNL     1      57.608   2.643  32.010  1.00  0.00     0.095 A 
HETATM   13  C5  UNL     1      56.257   2.918  32.127  1.00  0.00     0.039 A 
HETATM   14  C6  UNL     1      55.426   3.133  31.048  1.00  0.00     0.003 A 
HETATM   15  C7  UNL     1      55.963   3.075  29.779  1.00  0.00     0.002 A 
HETATM   16  C8  UNL     1      57.317   2.801  29.618  1.00  0.00     0.032 A 
BRANCH  12  17
HETATM   17  O1  UNL     1      58.425   2.429  33.120  1.00  0.00    -0.349 OA
BRANCH  17  18
HETATM   18  C3  UNL     1      58.279   3.314  34.212  1.00  0.00     0.175 C 
BRANCH  18  19
HETATM   19  C2  UNL     1      59.600   3.659  34.849  1.00  0.00     0.022 C 
HETATM   20  C1  UNL     1      59.628   5.076  35.359  1.00  0.00     0.007 C 
ENDBRANCH  18  19
ENDBRANCH  17  18
ENDBRANCH  12  17
ENDBRANCH   7  11
ENDBRANCH   1   5
TORSDOF 5
ENDMDL
MODEL 4
REMARK VINA RESULT: -7.364114149      2.111      5.477
REMARK  5 active torsions:
REMARK  status: ('A' for Active; 'I' for Inactive)
REMARK    1  A    between atoms: C2_2  and  C3_3 
REMARK    2  A    between atoms: C3_3  and  O1_4 
REMARK    3  A    between atoms: O1_4  and  C4_5 
REMARK    4  A    between atoms: C9_10  and  N1_11 
REMARK       I    between atoms: C10_13  and  N3_15 
REMARK    5  A    between atoms: N3_15  and  C11_17 
ROOT
HETATM    1  C11 UNL     1      56.442   2.235  30.838  1.00  0.00     0.187 C 
HETATM    2  C12 UNL     1      56.973   2.957  32.079  1.00  0.00     0.048 C 
HETATM    3  C13 UNL     1      55.330   2.925  30.230  1.00  0.00     0.084 C 
HETATM    4  N4  UNL     1      54.432   3.476  29.751  1.00  0.00    -0.195 NA
ENDROOT
BRANCH   1   5
HETATM    5  N3  UNL     1      57.517   2.050  29.865  1.00  0.00    -0.348 N 
HETATM    6  C10 UNL     1      58.650   2.898  29.896  1.00  0.00     0.189 C 
HETATM    7  N1  UNL     1      59.809   2.378  30.081  1.00  0.00    -0.328 N 
HETATM    8  N2  UNL     1      58.573   4.306  29.733  1.00  0.00    -0.063 NA
ATOM      9  H1  UNL     1      59.854   1.366  30.197  1.00  0.00     0.168 HD
ATOM     10  H3  UNL     1      57.452   1.311  29.164  1.00  0.00     0.163 HD
BRANCH   7  11
HETATM   11  C9  UNL     1      61.023   3.088  30.136  1.00  0.00     0.068 A 
HETATM   12  C4  UNL     1      61.443   3.585  31.363  1.00  0.00     0.095 A 
HETATM   13  C5  UNL     1      62.642   4.277  31.370  1.00  0.00     0.039 A 
HETATM   14  C6  UNL     1      63.409   4.485  30.242  1.00  0.00     0.003 A 
HETATM   15  C7  UNL     1      62.965   3.978  29.038  1.00  0.00     0.002 A 
HETATM   16  C8  UNL     1      61.765   3.277  28.989  1.00  0.00     0.032 A 
BRANCH  12  17
HETATM   17  O1  UNL     1      60.689   3.390  32.519  1.00  0.00    -0.349 OA
BRANCH  17  18
HETATM   18  C3  UNL     1      60.992   4.201  33.636  1.00  0.00     0.175 C 
BRANCH  18  19
HETATM   19  C2  UNL     1      59.981   4.053  34.742  1.00  0.00     0.022 C 
HETATM   20  C1  UNL     1      59.829   5.321  35.543  1.00  0.00     0.007 C 
ENDBRANCH  18  19
ENDBRANCH  17  18
ENDBRANCH  12  17
ENDBRANCH   7  11
ENDBRANCH   1   5
TORSDOF 5
ENDMDL
MODEL 5
REMARK VINA RESULT: -7.130200665      2.192      5.798
REMARK  5 active torsions:
REMARK  status: ('A' for Active; 'I' for Inactive)
REMARK    1  A    between atoms: C2_2  and  C3_3 
REMARK    2  A    between atoms: C3_3  and  O1_4 
REMARK    3  A    between atoms: O1_4  and  C4_5 
REMARK    4  A    between atoms: C9_10  and  N1_11 
REMARK       I    between atoms: C10_13  and  N3_15 
REMARK    5  A    between atoms: N3_15  and  C11_17 
ROOT
HETATM    1  C11 UNL     1      59.918   3.717  35.603  1.00  0.00     0.187 C 
HETATM    2  C12 UNL     1      59.621   4.366  36.957  1.00  0.00     0.048 C 
HETATM    3  C13 UNL     1      58.732   3.202  34.964  1.00  0.00     0.084 C 
HETATM    4  N4  UNL     1      57.780   2.781  34.458  1.00  0.00    -0.195 NA
ENDROOT
BRANCH   1   5
HETATM    5  N3  UNL     1      60.595   4.671  34.725  1.00  0.00    -0.348 N 
HETATM    6  C10 UNL     1      61.255   4.211  33.560  1.00  0.00     0.189 C 
HETATM    7  N1  UNL     1      60.871   4.650  32.417  1.00  0.00    -0.328 N 
HETATM    8  N2  UNL     1      62.328   3.283  33.589  1.00  0.00    -0.063 NA
ATOM      9  H1  UNL     1      60.100   5.318  32.407  1.00  0.00     0.168 HD
ATOM     10  H3  UNL     1      60.592   5.666  34.952  1.00  0.00     0.163 HD
BRANCH   7  11
HETATM   11  C9  UNL     1      61.426   4.288  31.176  1.00  0.00     0.068 A 
HETATM   12  C4  UNL     1      60.766   3.339  30.406  1.00  0.00     0.095 A 
HETATM   13  C5  UNL     1      61.349   3.014  29.194  1.00  0.00     0.039 A 
HETATM   14  C6  UNL     1      62.522   3.577  28.736  1.00  0.00     0.003 A 
HETATM   15  C7  UNL     1      63.154   4.517  29.523  1.00  0.00     0.002 A 
HETATM   16  C8  UNL     1      62.601   4.871  30.749  1.00  0.00     0.032 A 
BRANCH  12  17
HETATM   17  O1  UNL     1      59.578   2.753  30.844  1.00  0.00    -0.349 OA
BRANCH  17  18
HETATM   18  C3  UNL     1      58.377   3.201  30.249  1.00  0.00     0.175 C 
BRANCH  18  19
HETATM   19  C2  UNL     1      57.661   2.102  29.508  1.00  0.00     0.022 C 
HETATM   20  C1  UNL     1      56.179   2.355  29.416  1.00  0.00     0.007 C 
ENDBRANCH  18  19
ENDBRANCH  17  18
ENDBRANCH  12  17
ENDBRANCH   7  11
ENDBRANCH   1   5
TORSDOF 5
ENDMDL
