MODEL 1
REMARK VINA RESULT: -6.978076379      0.000      0.000
REMARK  6 active torsions:
REMARK  status: ('A' for Active; 'I' for Inactive)
REMARK    1  A    between atoms: C5_5  and  O1_6 
REMARK    2  A    between atoms: O1_6  and  C6_7 
REMARK    3  A    between atoms: C6_7  and  C7_8 
REMARK    4  A    between atoms: C7_8  and  N1_9 
REMARK       I    between atoms: N1_9  and  C8_11 
REMARK    5  A    between atoms: N3_13  and  C9_15 
REMARK    6  A    between atoms: C9_15  and  N4_18 
ROOT
HETATM    1  N1  UNL     1      61.228   5.058  31.011  1.00  0.00    -0.363 N 
ATOM      2  H1  UNL     1      61.073   6.015  31.325  1.00  0.00     0.162 HD
HETATM    3  C8  UNL     1      62.307   4.402  31.616  1.00  0.00     0.186 C 
HETATM    4  N2  UNL     1      63.579   4.509  30.962  1.00  0.00    -0.064 NA
HETATM    5  N3  UNL     1      62.259   3.768  32.676  1.00  0.00    -0.333 N 
ATOM      6  H3  UNL     1      63.173   3.381  32.911  1.00  0.00     0.164 HD
ENDROOT
BRANCH   1   7
HETATM    7  C7  UNL     1      60.314   4.591  30.025  1.00  0.00     0.149 C 
BRANCH   7   8
HETATM    8  C6  UNL     1      60.411   3.134  29.692  1.00  0.00     0.195 C 
BRANCH   8   9
HETATM    9  O1  UNL     1      59.419   2.297  30.104  1.00  0.00    -0.350 OA
BRANCH   9  10
HETATM   10  C5  UNL     1      58.076   2.426  30.255  1.00  0.00     0.068 A 
HETATM   11  C4  UNL     1      57.655   2.817  31.537  1.00  0.00     0.037 A 
HETATM   12  C3  UNL     1      56.323   2.983  31.825  1.00  0.00     0.009 A 
HETATM   13  C2  UNL     1      55.339   2.778  30.884  1.00  0.00    -0.062 A 
HETATM   14  C1  UNL     1      53.891   2.957  31.191  1.00  0.00     0.048 C 
HETATM   15  C13 UNL     1      55.729   2.396  29.625  1.00  0.00     0.009 A 
HETATM   16  C12 UNL     1      57.092   2.227  29.338  1.00  0.00     0.037 A 
ENDBRANCH   9  10
ENDBRANCH   8   9
ENDBRANCH   7   8
ENDBRANCH   1   7
BRANCH   5  17
HETATM   17  C9  UNL     1      61.312   3.430  33.643  1.00  0.00     0.190 C 
HETATM   18  C10 UNL     1      62.085   2.887  34.865  1.00  0.00     0.070 C 
HETATM   19  C11 UNL     1      60.677   4.733  34.151  1.00  0.00     0.070 C 
BRANCH  17  20
HETATM   20  N4  UNL     1      60.293   2.486  33.296  1.00  0.00    -0.053 N 
ATOM     21  H43 UNL     1      59.668   2.909  32.611  1.00  0.00     0.277 HD
ATOM     22  H42 UNL     1      60.710   1.736  32.745  1.00  0.00     0.277 HD
ATOM     23  H41 UNL     1      59.736   2.077  34.046  1.00  0.00     0.277 HD
ENDBRANCH  17  20
ENDBRANCH   5  17
TORSDOF 6
ENDMDL
MODEL 2
REMARK VINA RESULT: -6.960569080      0.676      1.474
REMARK  6 active torsions:
REMARK  status: ('A' for Active; 'I' for Inactive)
REMARK    1  A    between atoms: C5_5  and  O1_6 
REMARK    2  A    between atoms: O1_6  and  C6_7 
REMARK    3  A    between atoms: C6_7  and  C7_8 
REMARK    4  A    between atoms: C7_8  and  N1_9 
REMARK       I    between atoms: N1_9  and  C8_11 
REMARK    5  A    between atoms: N3_13  and  C9_15 
REMARK    6  A    between atoms: C9_15  and  N4_18 
ROOT
HETATM    1  N1  UNL     1      61.218   5.075  30.980  1.00  0.00    -0.363 N 
ATOM      2  H1  UNL     1      61.118   6.062  31.214  1.00  0.00     0.162 HD
HETATM    3  C8  UNL     1      62.301   4.427  31.589  1.00  0.00     0.186 C 
HETATM    4  N2  UNL     1      63.540   4.420  30.868  1.00  0.00    -0.064 NA
HETATM    5  N3  UNL     1      62.283   3.891  32.702  1.00  0.00    -0.333 N 
ATOM      6  H3  UNL     1      63.192   3.487  32.927  1.00  0.00     0.164 HD
ENDROOT
BRANCH   1   7
HETATM    7  C7  UNL     1      60.237   4.564  30.085  1.00  0.00     0.149 C 
BRANCH   7   8
HETATM    8  C6  UNL     1      60.377   3.116  29.729  1.00  0.00     0.195 C 
BRANCH   8   9
HETATM    9  O1  UNL     1      59.271   2.321  29.756  1.00  0.00    -0.350 OA
BRANCH   9  10
HETATM   10  C5  UNL     1      58.007   2.477  30.228  1.00  0.00     0.068 A 
HETATM   11  C4  UNL     1      56.988   2.273  29.283  1.00  0.00     0.037 A 
HETATM   12  C3  UNL     1      55.666   2.400  29.629  1.00  0.00     0.009 A 
HETATM   13  C2  UNL     1      55.271   2.731  30.906  1.00  0.00    -0.062 A 
HETATM   14  C1  UNL     1      53.837   2.871  31.287  1.00  0.00     0.048 C 
HETATM   15  C13 UNL     1      56.252   2.934  31.845  1.00  0.00     0.009 A 
HETATM   16  C12 UNL     1      57.601   2.804  31.484  1.00  0.00     0.037 A 
ENDBRANCH   9  10
ENDBRANCH   8   9
ENDBRANCH   7   8
ENDBRANCH   1   7
BRANCH   5  17
HETATM   17  C9  UNL     1      61.374   3.681  33.740  1.00  0.00     0.190 C 
HETATM   18  C10 UNL     1      60.453   2.518  33.306  1.00  0.00     0.070 C 
HETATM   19  C11 UNL     1      62.153   3.115  34.936  1.00  0.00     0.070 C 
BRANCH  17  20
HETATM   20  N4  UNL     1      60.552   4.776  34.157  1.00  0.00    -0.053 N 
ATOM     21  H43 UNL     1      60.710   4.949  35.150  1.00  0.00     0.277 HD
ATOM     22  H42 UNL     1      60.915   5.637  33.749  1.00  0.00     0.277 HD
ATOM     23  H41 UNL     1      59.549   4.723  33.984  1.00  0.00     0.277 HD
ENDBRANCH  17  20
ENDBRANCH   5  17
TORSDOF 6
ENDMDL
MODEL 3
REMARK VINA RESULT: -6.911965103      1.479      3.124
REMARK  6 active torsions:
REMARK  status: ('A' for Active; 'I' for Inactive)
REMARK    1  A    between atoms: C5_5  and  O1_6 
REMARK    2  A    between atoms: O1_6  and  C6_7 
REMARK    3  A    between atoms: C6_7  and  C7_8 
REMARK    4  A    between atoms: C7_8  and  N1_9 
REMARK       I    between atoms: N1_9  and  C8_11 
REMARK    5  A    between atoms: N3_13  and  C9_15 
REMARK    6  A    between atoms: C9_15  and  N4_18 
ROOT
HETATM    1  N1  UNL     1      62.109   4.561  32.377  1.00  0.00    -0.363 N 
ATOM      2  H1  UNL     1      63.011   4.994  32.572  1.00  0.00     0.162 HD
HETATM    3  C8  UNL     1      61.541   4.905  31.143  1.00  0.00     0.186 C 
HETATM    4  N2  UNL     1      60.667   6.041  31.127  1.00  0.00    -0.064 NA
HETATM    5  N3  UNL     1      61.753   4.330  30.070  1.00  0.00    -0.333 N 
ATOM      6  H3  UNL     1      61.225   4.763  29.313  1.00  0.00     0.164 HD
ENDROOT
BRANCH   1   7
HETATM    7  C7  UNL     1      61.618   3.700  33.398  1.00  0.00     0.149 C 
BRANCH   7   8
HETATM    8  C6  UNL     1      60.219   3.202  33.207  1.00  0.00     0.195 C 
BRANCH   8   9
HETATM    9  O1  UNL     1      59.877   2.642  32.013  1.00  0.00    -0.350 OA
BRANCH   9  10
HETATM   10  C5  UNL     1      58.728   2.583  31.291  1.00  0.00     0.068 A 
HETATM   11  C4  UNL     1      57.558   2.886  32.006  1.00  0.00     0.037 A 
HETATM   12  C3  UNL     1      56.329   2.862  31.396  1.00  0.00     0.009 A 
HETATM   13  C2  UNL     1      56.178   2.546  30.064  1.00  0.00    -0.062 A 
HETATM   14  C1  UNL     1      54.846   2.518  29.397  1.00  0.00     0.048 C 
HETATM   15  C13 UNL     1      57.309   2.247  29.347  1.00  0.00     0.009 A 
HETATM   16  C12 UNL     1      58.562   2.272  29.978  1.00  0.00     0.037 A 
ENDBRANCH   9  10
ENDBRANCH   8   9
ENDBRANCH   7   8
ENDBRANCH   1   7
BRANCH   5  17
HETATM   17  C9  UNL     1      62.510   3.257  29.598  1.00  0.00     0.190 C 
HETATM   18  C10 UNL     1      62.121   3.044  28.118  1.00  0.00     0.070 C 
HETATM   19  C11 UNL     1      63.977   3.710  29.538  1.00  0.00     0.070 C 
BRANCH  17  20
HETATM   20  N4  UNL     1      62.408   2.001  30.277  1.00  0.00    -0.053 N 
ATOM     21  H43 UNL     1      62.456   2.163  31.283  1.00  0.00     0.277 HD
ATOM     22  H42 UNL     1      61.456   1.649  30.180  1.00  0.00     0.277 HD
ATOM     23  H41 UNL     1      63.063   1.261  30.028  1.00  0.00     0.277 HD
ENDBRANCH  17  20
ENDBRANCH   5  17
TORSDOF 6
ENDMDL
MODEL 4
REMARK VINA RESULT: -6.811438342      1.450      2.908
REMARK  6 active torsions:
REMARK  status: ('A' for Active; 'I' for Inactive)
REMARK    1  A    between atoms: C5_5  and  O1_6 
REMARK    2  A    between atoms: O1_6  and  C6_7 
REMARK    3  A    between atoms: C6_7  and  C7_8 
REMARK    4  A    between atoms: C7_8  and  N1_9 
REMARK       I    between atoms: N1_9  and  C8_11 
REMARK    5  A    between atoms: N3_13  and  C9_15 
REMARK    6  A    between atoms: C9_15  and  N4_18 
ROOT
HETATM    1  N1  UNL     1      61.605   2.977  34.021  1.00  0.00    -0.363 N 
ATOM      2  H1  UNL     1      61.654   1.967  33.893  1.00  0.00     0.162 HD
HETATM    3  C8  UNL     1      62.730   3.686  33.580  1.00  0.00     0.186 C 
HETATM    4  N2  UNL     1      63.772   3.910  34.539  1.00  0.00    -0.064 NA
HETATM    5  N3  UNL     1      62.910   4.104  32.430  1.00  0.00    -0.333 N 
ATOM      6  H3  UNL     1      63.803   4.589  32.354  1.00  0.00     0.164 HD
ENDROOT
BRANCH   1   7
HETATM    7  C7  UNL     1      60.406   3.453  34.621  1.00  0.00     0.149 C 
BRANCH   7   8
HETATM    8  C6  UNL     1      59.134   2.960  34.003  1.00  0.00     0.195 C 
BRANCH   8   9
HETATM    9  O1  UNL     1      59.097   2.742  32.659  1.00  0.00    -0.350 OA
BRANCH   9  10
HETATM   10  C5  UNL     1      58.100   2.683  31.739  1.00  0.00     0.068 A 
HETATM   11  C4  UNL     1      56.812   2.936  32.238  1.00  0.00     0.037 A 
HETATM   12  C3  UNL     1      55.714   2.906  31.414  1.00  0.00     0.009 A 
HETATM   13  C2  UNL     1      55.816   2.630  30.068  1.00  0.00    -0.062 A 
HETATM   14  C1  UNL     1      54.628   2.597  29.168  1.00  0.00     0.048 C 
HETATM   15  C13 UNL     1      57.066   2.380  29.560  1.00  0.00     0.009 A 
HETATM   16  C12 UNL     1      58.183   2.411  30.409  1.00  0.00     0.037 A 
ENDBRANCH   9  10
ENDBRANCH   8   9
ENDBRANCH   7   8
ENDBRANCH   1   7
BRANCH   5  17
HETATM   17  C9  UNL     1      62.238   4.101  31.207  1.00  0.00     0.190 C 
HETATM   18  C10 UNL     1      61.126   5.170  31.299  1.00  0.00     0.070 C 
HETATM   19  C11 UNL     1      63.200   4.653  30.145  1.00  0.00     0.070 C 
BRANCH  17  20
HETATM   20  N4  UNL     1      61.651   2.877  30.755  1.00  0.00    -0.053 N 
ATOM     21  H43 UNL     1      62.321   2.387  30.163  1.00  0.00     0.277 HD
ATOM     22  H42 UNL     1      61.579   2.234  31.543  1.00  0.00     0.277 HD
ATOM     23  H41 UNL     1      60.752   2.918  30.276  1.00  0.00     0.277 HD
ENDBRANCH  17  20
ENDBRANCH   5  17
TORSDOF 6
ENDMDL
MODEL 5
REMARK VINA RESULT: -6.755550161      1.682      2.876
REMARK  6 active torsions:
REMARK  status: ('A' for Active; 'I' for Inactive)
REMARK    1  A    between atoms: C5_5  and  O1_6 
REMARK    2  A    between atoms: O1_6  and  C6_7 
REMARK    3  A    between atoms: C6_7  and  C7_8 
REMARK    4  A    between atoms: C7_8  and  N1_9 
REMARK       I    between atoms: N1_9  and  C8_11 
REMARK    5  A    between atoms: N3_13  and  C9_15 
REMARK    6  A    between atoms: C9_15  and  N4_18 
ROOT
HETATM    1  N1  UNL     1      60.472   2.307  30.684  1.00  0.00    -0.363 N 
ATOM      2  H1  UNL     1      60.839   1.362  30.576  1.00  0.00     0.162 HD
HETATM    3  C8  UNL     1      61.038   3.048  31.729  1.00  0.00     0.186 C 
HETATM    4  N2  UNL     1      60.390   2.967  33.005  1.00  0.00    -0.064 NA
HETATM    5  N3  UNL     1      62.062   3.736  31.649  1.00  0.00    -0.333 N 
ATOM      6  H3  UNL     1      62.274   4.179  32.543  1.00  0.00     0.164 HD
ENDROOT
BRANCH   1   7
HETATM    7  C7  UNL     1      59.463   2.674  29.750  1.00  0.00     0.149 C 
BRANCH   7   8
HETATM    8  C6  UNL     1      58.879   4.041  29.932  1.00  0.00     0.195 C 
BRANCH   8   9
HETATM    9  O1  UNL     1      57.531   4.200  29.817  1.00  0.00    -0.350 OA
BRANCH   9  10
HETATM   10  C5  UNL     1      56.458   3.429  30.129  1.00  0.00     0.068 A 
HETATM   11  C4  UNL     1      56.130   3.388  31.494  1.00  0.00     0.037 A 
HETATM   12  C3  UNL     1      55.068   2.644  31.945  1.00  0.00     0.009 A 
HETATM   13  C2  UNL     1      54.275   1.908  31.094  1.00  0.00    -0.062 A 
HETATM   14  C1  UNL     1      53.120   1.099  31.578  1.00  0.00     0.048 C 
HETATM   15  C13 UNL     1      54.578   1.935  29.755  1.00  0.00     0.009 A 
HETATM   16  C12 UNL     1      55.666   2.696  29.302  1.00  0.00     0.037 A 
ENDBRANCH   9  10
ENDBRANCH   8   9
ENDBRANCH   7   8
ENDBRANCH   1   7
BRANCH   5  17
HETATM   17  C9  UNL     1      63.010   4.080  30.684  1.00  0.00     0.190 C 
HETATM   18  C10 UNL     1      63.061   2.919  29.666  1.00  0.00     0.070 C 
HETATM   19  C11 UNL     1      62.448   5.261  29.878  1.00  0.00     0.070 C 
BRANCH  17  20
HETATM   20  N4  UNL     1      64.345   4.365  31.113  1.00  0.00    -0.053 N 
ATOM     21  H43 UNL     1      64.766   3.509  31.475  1.00  0.00     0.277 HD
ATOM     22  H42 UNL     1      64.926   4.538  30.294  1.00  0.00     0.277 HD
ATOM     23  H41 UNL     1      64.487   5.116  31.788  1.00  0.00     0.277 HD
ENDBRANCH  17  20
ENDBRANCH   5  17
TORSDOF 6
ENDMDL
