MODEL 1
REMARK VINA RESULT: -7.661903064      0.000      0.000
REMARK  5 active torsions:
REMARK  status: ('A' for Active; 'I' for Inactive)
REMARK    1  A    between atoms: O1_2  and  C2_3 
REMARK    2  A    between atoms: C5_6  and  C6_7 
REMARK    3  A    between atoms: C6_7  and  N5_17 
REMARK    4  A    between atoms: N1_8  and  N2_10 
REMARK       I    between atoms: N2_10  and  C7_12 
REMARK    5  A    between atoms: N5_17  and  S1_19 
ROOT
HETATM    1  C6  UNL     1      56.888  71.778  21.613  1.00  0.00     0.139 C 
HETATM    2  N1  UNL     1      55.987  72.645  21.316  1.00  0.00    -0.282 N 
ATOM      3  H1  UNL     1      55.034  72.478  21.640  1.00  0.00     0.188 HD
ENDROOT
BRANCH   1   4
HETATM    4  C5  UNL     1      56.577  70.590  22.388  1.00  0.00     0.010 A 
HETATM    5  C4  UNL     1      56.716  69.350  21.796  1.00  0.00     0.018 A 
HETATM    6  C3  UNL     1      56.434  68.192  22.491  1.00  0.00     0.037 A 
HETATM    7  C2  UNL     1      56.009  68.316  23.797  1.00  0.00     0.068 A 
HETATM    8  C10 UNL     1      55.861  69.538  24.417  1.00  0.00     0.037 A 
HETATM    9  C9  UNL     1      56.147  70.685  23.707  1.00  0.00     0.018 A 
BRANCH   7  10
HETATM   10  O1  UNL     1      55.725  67.143  24.499  1.00  0.00    -0.356 OA
HETATM   11  C1  UNL     1      56.169  65.907  23.999  1.00  0.00     0.210 C 
ENDBRANCH   7  10
ENDBRANCH   1   4
BRANCH   1  12
HETATM   12  N5  UNL     1      58.216  71.990  21.176  1.00  0.00    -0.268 N 
ATOM     13  H5  UNL     1      58.588  71.454  20.392  1.00  0.00     0.180 HD
BRANCH  12  14
HETATM   14  S1  UNL     1      59.207  73.160  21.970  1.00  0.00     0.228 S 
HETATM   15  C8  UNL     1      60.315  72.315  23.083  1.00  0.00     0.186 C 
HETATM   16  O2  UNL     1      59.952  73.913  20.935  1.00  0.00    -0.206 OA
HETATM   17  O3  UNL     1      58.359  74.082  22.796  1.00  0.00    -0.206 OA
ENDBRANCH  12  14
ENDBRANCH   1  12
BRANCH   2  18
HETATM   18  N2  UNL     1      56.235  73.796  20.581  1.00  0.00    -0.272 N 
HETATM   19  C7  UNL     1      55.152  74.577  20.109  1.00  0.00     0.200 C 
HETATM   20  N3  UNL     1      54.041  74.530  20.751  1.00  0.00    -0.372 N 
HETATM   21  N4  UNL     1      55.220  75.409  18.968  1.00  0.00    -0.062 NA
ATOM     22  H32 UNL     1      53.992  73.930  21.575  1.00  0.00     0.158 HD
ATOM     23  H31 UNL     1      53.260  75.093  20.412  1.00  0.00     0.158 HD
ATOM     24  H2  UNL     1      57.195  74.079  20.381  1.00  0.00     0.189 HD
ENDBRANCH   2  18
TORSDOF 5
ENDMDL
MODEL 2
REMARK VINA RESULT: -7.591739061      0.065      1.106
REMARK  5 active torsions:
REMARK  status: ('A' for Active; 'I' for Inactive)
REMARK    1  A    between atoms: O1_2  and  C2_3 
REMARK    2  A    between atoms: C5_6  and  C6_7 
REMARK    3  A    between atoms: C6_7  and  N5_17 
REMARK    4  A    between atoms: N1_8  and  N2_10 
REMARK       I    between atoms: N2_10  and  C7_12 
REMARK    5  A    between atoms: N5_17  and  S1_19 
ROOT
HETATM    1  C6  UNL     1      56.900  71.780  21.566  1.00  0.00     0.139 C 
HETATM    2  N1  UNL     1      55.994  72.646  21.281  1.00  0.00    -0.282 N 
ATOM      3  H1  UNL     1      55.041  72.465  21.597  1.00  0.00     0.188 HD
ENDROOT
BRANCH   1   4
HETATM    4  C5  UNL     1      56.595  70.575  22.315  1.00  0.00     0.010 A 
HETATM    5  C4  UNL     1      56.228  70.685  23.642  1.00  0.00     0.018 A 
HETATM    6  C3  UNL     1      55.928  69.570  24.395  1.00  0.00     0.037 A 
HETATM    7  C2  UNL     1      56.006  68.340  23.777  1.00  0.00     0.068 A 
HETATM    8  C10 UNL     1      56.367  68.194  22.454  1.00  0.00     0.037 A 
HETATM    9  C9  UNL     1      56.664  69.320  21.717  1.00  0.00     0.018 A 
BRANCH   7  10
HETATM   10  O1  UNL     1      55.701  67.211  24.541  1.00  0.00    -0.356 OA
HETATM   11  C1  UNL     1      56.167  65.949  24.135  1.00  0.00     0.210 C 
ENDBRANCH   7  10
ENDBRANCH   1   4
BRANCH   1  12
HETATM   12  N5  UNL     1      58.229  72.011  21.139  1.00  0.00    -0.268 N 
ATOM     13  H5  UNL     1      58.608  71.495  20.346  1.00  0.00     0.180 HD
BRANCH  12  14
HETATM   14  S1  UNL     1      59.207  73.171  21.963  1.00  0.00     0.228 S 
HETATM   15  C8  UNL     1      60.294  72.312  23.087  1.00  0.00     0.186 C 
HETATM   16  O2  UNL     1      59.972  73.933  20.950  1.00  0.00    -0.206 OA
HETATM   17  O3  UNL     1      58.346  74.086  22.784  1.00  0.00    -0.206 OA
ENDBRANCH  12  14
ENDBRANCH   1  12
BRANCH   2  18
HETATM   18  N2  UNL     1      56.237  73.813  20.569  1.00  0.00    -0.272 N 
HETATM   19  C7  UNL     1      55.150  74.578  20.081  1.00  0.00     0.200 C 
HETATM   20  N3  UNL     1      54.024  74.498  20.692  1.00  0.00    -0.372 N 
HETATM   21  N4  UNL     1      55.230  75.429  18.955  1.00  0.00    -0.062 NA
ATOM     22  H32 UNL     1      53.966  73.884  21.505  1.00  0.00     0.158 HD
ATOM     23  H31 UNL     1      53.240  75.049  20.341  1.00  0.00     0.158 HD
ATOM     24  H2  UNL     1      57.195  74.119  20.399  1.00  0.00     0.189 HD
ENDBRANCH   2  18
TORSDOF 5
ENDMDL
MODEL 3
REMARK VINA RESULT: -7.495434561      1.231      1.365
REMARK  5 active torsions:
REMARK  status: ('A' for Active; 'I' for Inactive)
REMARK    1  A    between atoms: O1_2  and  C2_3 
REMARK    2  A    between atoms: C5_6  and  C6_7 
REMARK    3  A    between atoms: C6_7  and  N5_17 
REMARK    4  A    between atoms: N1_8  and  N2_10 
REMARK       I    between atoms: N2_10  and  C7_12 
REMARK    5  A    between atoms: N5_17  and  S1_19 
ROOT
HETATM    1  C6  UNL     1      56.983  71.497  21.993  1.00  0.00     0.139 C 
HETATM    2  N1  UNL     1      56.540  71.807  20.826  1.00  0.00    -0.282 N 
ATOM      3  H1  UNL     1      55.915  71.149  20.360  1.00  0.00     0.188 HD
ENDROOT
BRANCH   1   4
HETATM    4  C5  UNL     1      56.613  70.253  22.643  1.00  0.00     0.010 A 
HETATM    5  C4  UNL     1      56.849  69.059  21.990  1.00  0.00     0.018 A 
HETATM    6  C3  UNL     1      56.517  67.852  22.567  1.00  0.00     0.037 A 
HETATM    7  C2  UNL     1      55.941  67.877  23.820  1.00  0.00     0.068 A 
HETATM    8  C10 UNL     1      55.694  69.051  24.500  1.00  0.00     0.037 A 
HETATM    9  C9  UNL     1      56.032  70.248  23.907  1.00  0.00     0.018 A 
BRANCH   7  10
HETATM   10  O1  UNL     1      55.606  66.653  24.403  1.00  0.00    -0.356 OA
HETATM   11  C1  UNL     1      56.198  65.470  23.929  1.00  0.00     0.210 C 
ENDBRANCH   7  10
ENDBRANCH   1   4
BRANCH   1  12
HETATM   12  N5  UNL     1      57.850  72.394  22.659  1.00  0.00    -0.268 N 
ATOM     13  H5  UNL     1      57.516  72.927  23.462  1.00  0.00     0.180 HD
BRANCH  12  14
HETATM   14  S1  UNL     1      59.476  72.587  22.110  1.00  0.00     0.228 S 
HETATM   15  C8  UNL     1      59.736  74.294  21.666  1.00  0.00     0.186 C 
HETATM   16  O2  UNL     1      60.384  72.168  23.202  1.00  0.00    -0.206 OA
HETATM   17  O3  UNL     1      59.707  71.762  20.877  1.00  0.00    -0.206 OA
ENDBRANCH  12  14
ENDBRANCH   1  12
BRANCH   2  18
HETATM   18  N2  UNL     1      56.863  72.984  20.165  1.00  0.00    -0.272 N 
HETATM   19  C7  UNL     1      55.903  74.020  20.063  1.00  0.00     0.200 C 
HETATM   20  N3  UNL     1      54.987  74.093  20.961  1.00  0.00    -0.372 N 
HETATM   21  N4  UNL     1      55.891  74.982  19.028  1.00  0.00    -0.062 NA
ATOM     22  H32 UNL     1      54.996  73.399  21.708  1.00  0.00     0.158 HD
ATOM     23  H31 UNL     1      54.295  74.839  20.888  1.00  0.00     0.158 HD
ATOM     24  H2  UNL     1      57.789  73.102  19.755  1.00  0.00     0.189 HD
ENDBRANCH   2  18
TORSDOF 5
ENDMDL
MODEL 4
REMARK VINA RESULT: -6.998831057      2.804      5.959
REMARK  5 active torsions:
REMARK  status: ('A' for Active; 'I' for Inactive)
REMARK    1  A    between atoms: O1_2  and  C2_3 
REMARK    2  A    between atoms: C5_6  and  C6_7 
REMARK    3  A    between atoms: C6_7  and  N5_17 
REMARK    4  A    between atoms: N1_8  and  N2_10 
REMARK       I    between atoms: N2_10  and  C7_12 
REMARK    5  A    between atoms: N5_17  and  S1_19 
ROOT
HETATM    1  C6  UNL     1      57.358  72.016  20.991  1.00  0.00     0.139 C 
HETATM    2  N1  UNL     1      56.877  71.015  21.640  1.00  0.00    -0.282 N 
ATOM      3  H1  UNL     1      55.866  70.883  21.639  1.00  0.00     0.188 HD
ENDROOT
BRANCH   1   4
HETATM    4  C5  UNL     1      56.502  72.940  20.271  1.00  0.00     0.010 A 
HETATM    5  C4  UNL     1      55.673  73.782  20.986  1.00  0.00     0.018 A 
HETATM    6  C3  UNL     1      54.842  74.678  20.347  1.00  0.00     0.037 A 
HETATM    7  C2  UNL     1      54.868  74.705  18.969  1.00  0.00     0.068 A 
HETATM    8  C10 UNL     1      55.684  73.880  18.225  1.00  0.00     0.037 A 
HETATM    9  C9  UNL     1      56.508  72.990  18.880  1.00  0.00     0.018 A 
BRANCH   7  10
HETATM   10  O1  UNL     1      54.027  75.614  18.323  1.00  0.00    -0.356 OA
HETATM   11  C1  UNL     1      52.751  75.203  17.901  1.00  0.00     0.210 C 
ENDBRANCH   7  10
ENDBRANCH   1   4
BRANCH   1  12
HETATM   12  N5  UNL     1      58.758  72.216  20.978  1.00  0.00    -0.268 N 
ATOM     13  H5  UNL     1      59.336  71.746  20.282  1.00  0.00     0.180 HD
BRANCH  12  14
HETATM   14  S1  UNL     1      59.488  73.261  22.144  1.00  0.00     0.228 S 
HETATM   15  C8  UNL     1      60.445  72.275  23.281  1.00  0.00     0.186 C 
HETATM   16  O2  UNL     1      60.341  74.233  21.422  1.00  0.00    -0.206 OA
HETATM   17  O3  UNL     1      58.431  73.967  22.941  1.00  0.00    -0.206 OA
ENDBRANCH  12  14
ENDBRANCH   1  12
BRANCH   2  18
HETATM   18  N2  UNL     1      57.655  70.104  22.342  1.00  0.00    -0.272 N 
HETATM   19  C7  UNL     1      57.135  68.821  22.643  1.00  0.00     0.200 C 
HETATM   20  N3  UNL     1      56.226  68.336  21.877  1.00  0.00    -0.372 N 
HETATM   21  N4  UNL     1      57.560  68.039  23.741  1.00  0.00    -0.062 NA
ATOM     22  H32 UNL     1      55.920  68.901  21.085  1.00  0.00     0.158 HD
ATOM     23  H31 UNL     1      55.852  67.412  22.094  1.00  0.00     0.158 HD
ATOM     24  H2  UNL     1      58.597  70.357  22.639  1.00  0.00     0.189 HD
ENDBRANCH   2  18
TORSDOF 5
ENDMDL
MODEL 5
REMARK VINA RESULT: -6.998684675      2.808      5.861
REMARK  5 active torsions:
REMARK  status: ('A' for Active; 'I' for Inactive)
REMARK    1  A    between atoms: O1_2  and  C2_3 
REMARK    2  A    between atoms: C5_6  and  C6_7 
REMARK    3  A    between atoms: C6_7  and  N5_17 
REMARK    4  A    between atoms: N1_8  and  N2_10 
REMARK       I    between atoms: N2_10  and  C7_12 
REMARK    5  A    between atoms: N5_17  and  S1_19 
ROOT
HETATM    1  C6  UNL     1      57.343  72.030  21.006  1.00  0.00     0.139 C 
HETATM    2  N1  UNL     1      56.872  71.017  21.643  1.00  0.00    -0.282 N 
ATOM      3  H1  UNL     1      55.861  70.885  21.656  1.00  0.00     0.188 HD
ENDROOT
BRANCH   1   4
HETATM    4  C5  UNL     1      56.475  72.968  20.317  1.00  0.00     0.010 A 
HETATM    5  C4  UNL     1      56.490  73.004  18.936  1.00  0.00     0.018 A 
HETATM    6  C3  UNL     1      55.683  73.877  18.237  1.00  0.00     0.037 A 
HETATM    7  C2  UNL     1      54.861  74.711  18.963  1.00  0.00     0.068 A 
HETATM    8  C10 UNL     1      54.820  74.699  20.341  1.00  0.00     0.037 A 
HETATM    9  C9  UNL     1      55.634  73.821  21.024  1.00  0.00     0.018 A 
BRANCH   7  10
HETATM   10  O1  UNL     1      54.044  75.594  18.253  1.00  0.00    -0.356 OA
HETATM   11  C1  UNL     1      52.739  75.207  17.902  1.00  0.00     0.210 C 
ENDBRANCH   7  10
ENDBRANCH   1   4
BRANCH   1  12
HETATM   12  N5  UNL     1      58.742  72.232  20.975  1.00  0.00    -0.268 N 
ATOM     13  H5  UNL     1      59.310  71.767  20.266  1.00  0.00     0.180 HD
BRANCH  12  14
HETATM   14  S1  UNL     1      59.488  73.267  22.138  1.00  0.00     0.228 S 
HETATM   15  C8  UNL     1      60.412  72.267  23.290  1.00  0.00     0.186 C 
HETATM   16  O2  UNL     1      60.370  74.213  21.415  1.00  0.00    -0.206 OA
HETATM   17  O3  UNL     1      58.443  74.004  22.922  1.00  0.00    -0.206 OA
ENDBRANCH  12  14
ENDBRANCH   1  12
BRANCH   2  18
HETATM   18  N2  UNL     1      57.661  70.093  22.315  1.00  0.00    -0.272 N 
HETATM   19  C7  UNL     1      57.139  68.813  22.621  1.00  0.00     0.200 C 
HETATM   20  N3  UNL     1      56.203  68.343  21.879  1.00  0.00    -0.372 N 
HETATM   21  N4  UNL     1      57.587  68.018  23.701  1.00  0.00    -0.062 NA
ATOM     22  H32 UNL     1      55.880  68.916  21.099  1.00  0.00     0.158 HD
ATOM     23  H31 UNL     1      55.826  67.421  22.099  1.00  0.00     0.158 HD
ATOM     24  H2  UNL     1      58.614  70.336  22.587  1.00  0.00     0.189 HD
ENDBRANCH   2  18
TORSDOF 5
ENDMDL
