MODEL 1
REMARK VINA RESULT: -7.563192340      0.000      0.000
REMARK  6 active torsions:
REMARK  status: ('A' for Active; 'I' for Inactive)
REMARK    1  A    between atoms: C2_2  and  O1_3 
REMARK    2  A    between atoms: O1_3  and  C3_4 
REMARK    3  A    between atoms: C3_4  and  C4_6 
REMARK    4  A    between atoms: C8_10  and  N1_11 
REMARK    5  A    between atoms: N1_11  and  S1_13 
REMARK    6  A    between atoms: S1_13  and  N2_16 
REMARK       I    between atoms: N2_16  and  C9_18 
ROOT
HETATM    1  C4  UNL     1      56.199  69.471  23.111  1.00  0.00     0.044 C 
HETATM    2  C5  UNL     1      54.798  69.966  23.395  1.00  0.00     0.026 C 
HETATM    3  C6  UNL     1      57.153  70.372  23.875  1.00  0.00     0.021 C 
HETATM    4  C7  UNL     1      58.234  70.915  22.965  1.00  0.00     0.027 C 
HETATM    5  C8  UNL     1      57.669  71.727  21.818  1.00  0.00     0.094 C 
HETATM    6  C10 UNL     1      56.405  71.128  21.349  1.00  0.00     0.027 C 
HETATM    7  C11 UNL     1      56.463  69.633  21.616  1.00  0.00     0.021 C 
ENDROOT
BRANCH   5   8
HETATM    8  N1  UNL     1      57.663  73.091  22.169  1.00  0.00    -0.298 N 
ATOM      9  H1  UNL     1      57.144  73.401  22.990  1.00  0.00     0.174 HD
BRANCH   8  10
HETATM   10  S1  UNL     1      58.496  74.199  21.250  1.00  0.00     0.321 S 
HETATM   11  O3  UNL     1      59.609  73.479  20.526  1.00  0.00    -0.182 OA
HETATM   12  O4  UNL     1      59.167  75.305  22.008  1.00  0.00    -0.182 OA
BRANCH  10  13
HETATM   13  N2  UNL     1      57.501  74.883  19.987  1.00  0.00    -0.241 N 
HETATM   14  C9  UNL     1      56.959  74.050  18.962  1.00  0.00     0.196 C 
HETATM   15  N3  UNL     1      57.691  73.082  18.545  1.00  0.00    -0.373 N 
HETATM   16  N4  UNL     1      55.685  74.240  18.401  1.00  0.00    -0.063 NA
ATOM     17  H32 UNL     1      58.616  72.943  18.952  1.00  0.00     0.158 HD
ATOM     18  H31 UNL     1      57.304  72.486  17.813  1.00  0.00     0.158 HD
ATOM     19  H2  UNL     1      57.307  75.884  19.981  1.00  0.00     0.183 HD
ENDBRANCH  10  13
ENDBRANCH   8  10
ENDBRANCH   5   8
BRANCH   1  20
HETATM   20  C3  UNL     1      56.307  68.054  23.523  1.00  0.00     0.267 C 
HETATM   21  O2  UNL     1      55.769  67.617  24.577  1.00  0.00    -0.264 OA
BRANCH  20  22
HETATM   22  O1  UNL     1      57.013  67.144  22.756  1.00  0.00    -0.321 OA
BRANCH  22  23
HETATM   23  C2  UNL     1      56.843  65.754  22.837  1.00  0.00     0.174 C 
HETATM   24  C1  UNL     1      57.182  65.023  21.574  1.00  0.00     0.034 C 
ENDBRANCH  22  23
ENDBRANCH  20  22
ENDBRANCH   1  20
TORSDOF 6
ENDMDL
MODEL 2
REMARK VINA RESULT: -7.176553440      0.903      1.142
REMARK  6 active torsions:
REMARK  status: ('A' for Active; 'I' for Inactive)
REMARK    1  A    between atoms: C2_2  and  O1_3 
REMARK    2  A    between atoms: O1_3  and  C3_4 
REMARK    3  A    between atoms: C3_4  and  C4_6 
REMARK    4  A    between atoms: C8_10  and  N1_11 
REMARK    5  A    between atoms: N1_11  and  S1_13 
REMARK    6  A    between atoms: S1_13  and  N2_16 
REMARK       I    between atoms: N2_16  and  C9_18 
ROOT
HETATM    1  C4  UNL     1      56.301  69.412  22.896  1.00  0.00     0.044 C 
HETATM    2  C5  UNL     1      55.008  69.925  23.489  1.00  0.00     0.026 C 
HETATM    3  C6  UNL     1      57.433  70.149  23.591  1.00  0.00     0.021 C 
HETATM    4  C7  UNL     1      58.379  70.766  22.583  1.00  0.00     0.027 C 
HETATM    5  C8  UNL     1      57.686  71.760  21.674  1.00  0.00     0.094 C 
HETATM    6  C10 UNL     1      56.321  71.294  21.362  1.00  0.00     0.027 C 
HETATM    7  C11 UNL     1      56.317  69.775  21.414  1.00  0.00     0.021 C 
ENDROOT
BRANCH   5   8
HETATM    8  N1  UNL     1      57.836  73.058  22.199  1.00  0.00    -0.298 N 
ATOM      9  H1  UNL     1      57.483  73.272  23.132  1.00  0.00     0.174 HD
BRANCH   8  10
HETATM   10  S1  UNL     1      58.587  74.244  21.307  1.00  0.00     0.321 S 
HETATM   11  O3  UNL     1      59.719  73.614  20.531  1.00  0.00    -0.182 OA
HETATM   12  O4  UNL     1      59.215  75.355  22.093  1.00  0.00    -0.182 OA
BRANCH  10  13
HETATM   13  N2  UNL     1      57.527  74.920  20.093  1.00  0.00    -0.241 N 
HETATM   14  C9  UNL     1      57.004  74.098  19.051  1.00  0.00     0.196 C 
HETATM   15  N3  UNL     1      57.776  73.186  18.580  1.00  0.00    -0.373 N 
HETATM   16  N4  UNL     1      55.709  74.240  18.526  1.00  0.00    -0.063 NA
ATOM     17  H32 UNL     1      58.717  73.082  18.961  1.00  0.00     0.158 HD
ATOM     18  H31 UNL     1      57.403  72.598  17.834  1.00  0.00     0.158 HD
ATOM     19  H2  UNL     1      57.280  75.909  20.130  1.00  0.00     0.183 HD
ENDBRANCH  10  13
ENDBRANCH   8  10
ENDBRANCH   5   8
BRANCH   1  20
HETATM   20  C3  UNL     1      56.377  67.947  23.089  1.00  0.00     0.267 C 
HETATM   21  O2  UNL     1      56.466  67.144  22.122  1.00  0.00    -0.264 OA
BRANCH  20  22
HETATM   22  O1  UNL     1      56.352  67.397  24.360  1.00  0.00    -0.321 OA
BRANCH  22  23
HETATM   23  C2  UNL     1      56.485  66.025  24.621  1.00  0.00     0.174 C 
HETATM   24  C1  UNL     1      57.892  65.591  24.897  1.00  0.00     0.034 C 
ENDBRANCH  22  23
ENDBRANCH  20  22
ENDBRANCH   1  20
TORSDOF 6
ENDMDL
MODEL 3
REMARK VINA RESULT: -6.988269911      0.803      1.007
REMARK  6 active torsions:
REMARK  status: ('A' for Active; 'I' for Inactive)
REMARK    1  A    between atoms: C2_2  and  O1_3 
REMARK    2  A    between atoms: O1_3  and  C3_4 
REMARK    3  A    between atoms: C3_4  and  C4_6 
REMARK    4  A    between atoms: C8_10  and  N1_11 
REMARK    5  A    between atoms: N1_11  and  S1_13 
REMARK    6  A    between atoms: S1_13  and  N2_16 
REMARK       I    between atoms: N2_16  and  C9_18 
ROOT
HETATM    1  C4  UNL     1      56.206  69.217  23.066  1.00  0.00     0.044 C 
HETATM    2  C5  UNL     1      54.966  69.916  23.579  1.00  0.00     0.026 C 
HETATM    3  C6  UNL     1      57.389  69.799  23.820  1.00  0.00     0.021 C 
HETATM    4  C7  UNL     1      58.469  70.262  22.864  1.00  0.00     0.027 C 
HETATM    5  C8  UNL     1      57.975  71.329  21.909  1.00  0.00     0.094 C 
HETATM    6  C10 UNL     1      56.578  71.054  21.522  1.00  0.00     0.027 C 
HETATM    7  C11 UNL     1      56.357  69.552  21.584  1.00  0.00     0.021 C 
ENDROOT
BRANCH   5   8
HETATM    8  N1  UNL     1      58.276  72.601  22.433  1.00  0.00    -0.298 N 
ATOM      9  H1  UNL     1      58.330  72.735  23.442  1.00  0.00     0.174 HD
BRANCH   8  10
HETATM   10  S1  UNL     1      58.544  73.887  21.413  1.00  0.00     0.321 S 
HETATM   11  O3  UNL     1      59.968  73.813  20.915  1.00  0.00    -0.182 OA
HETATM   12  O4  UNL     1      58.409  75.248  22.026  1.00  0.00    -0.182 OA
BRANCH  10  13
HETATM   13  N2  UNL     1      57.556  73.800  19.974  1.00  0.00    -0.241 N 
HETATM   14  C9  UNL     1      56.279  74.437  19.934  1.00  0.00     0.196 C 
HETATM   15  N3  UNL     1      55.583  74.425  21.012  1.00  0.00    -0.373 N 
HETATM   16  N4  UNL     1      55.761  75.063  18.788  1.00  0.00    -0.063 NA
ATOM     17  H32 UNL     1      55.960  73.970  21.845  1.00  0.00     0.158 HD
ATOM     18  H31 UNL     1      54.671  74.881  20.984  1.00  0.00     0.158 HD
ATOM     19  H2  UNL     1      57.893  73.290  19.158  1.00  0.00     0.183 HD
ENDBRANCH  10  13
ENDBRANCH   8  10
ENDBRANCH   5   8
BRANCH   1  20
HETATM   20  C3  UNL     1      56.064  67.759  23.274  1.00  0.00     0.267 C 
HETATM   21  O2  UNL     1      55.581  67.275  24.333  1.00  0.00    -0.264 OA
BRANCH  20  22
HETATM   22  O1  UNL     1      56.463  66.861  22.299  1.00  0.00    -0.321 OA
BRANCH  22  23
HETATM   23  C2  UNL     1      56.861  65.543  22.566  1.00  0.00     0.174 C 
HETATM   24  C1  UNL     1      57.257  64.766  21.348  1.00  0.00     0.034 C 
ENDBRANCH  22  23
ENDBRANCH  20  22
ENDBRANCH   1  20
TORSDOF 6
ENDMDL
MODEL 4
REMARK VINA RESULT: -6.912816287      1.632      2.262
REMARK  6 active torsions:
REMARK  status: ('A' for Active; 'I' for Inactive)
REMARK    1  A    between atoms: C2_2  and  O1_3 
REMARK    2  A    between atoms: O1_3  and  C3_4 
REMARK    3  A    between atoms: C3_4  and  C4_6 
REMARK    4  A    between atoms: C8_10  and  N1_11 
REMARK    5  A    between atoms: N1_11  and  S1_13 
REMARK    6  A    between atoms: S1_13  and  N2_16 
REMARK       I    between atoms: N2_16  and  C9_18 
ROOT
HETATM    1  C4  UNL     1      56.714  69.530  23.151  1.00  0.00     0.044 C 
HETATM    2  C5  UNL     1      57.353  68.423  22.343  1.00  0.00     0.026 C 
HETATM    3  C6  UNL     1      55.591  70.107  22.307  1.00  0.00     0.021 C 
HETATM    4  C7  UNL     1      55.709  71.613  22.200  1.00  0.00     0.027 C 
HETATM    5  C8  UNL     1      57.016  72.045  21.568  1.00  0.00     0.094 C 
HETATM    6  C10 UNL     1      58.107  71.150  21.998  1.00  0.00     0.027 C 
HETATM    7  C11 UNL     1      57.763  70.615  23.378  1.00  0.00     0.021 C 
ENDROOT
BRANCH   5   8
HETATM    8  N1  UNL     1      56.826  72.237  20.186  1.00  0.00    -0.298 N 
ATOM      9  H1  UNL     1      56.326  71.535  19.640  1.00  0.00     0.174 HD
BRANCH   8  10
HETATM   10  S1  UNL     1      57.412  73.602  19.439  1.00  0.00     0.321 S 
HETATM   11  O3  UNL     1      57.684  73.275  17.989  1.00  0.00    -0.182 OA
HETATM   12  O4  UNL     1      58.705  74.138  19.974  1.00  0.00    -0.182 OA
BRANCH  10  13
HETATM   13  N2  UNL     1      56.227  74.886  19.397  1.00  0.00    -0.241 N 
HETATM   14  C9  UNL     1      54.916  74.644  18.886  1.00  0.00     0.196 C 
HETATM   15  N3  UNL     1      54.814  73.846  17.886  1.00  0.00    -0.373 N 
HETATM   16  N4  UNL     1      53.756  75.231  19.419  1.00  0.00    -0.063 NA
ATOM     17  H32 UNL     1      55.657  73.420  17.500  1.00  0.00     0.158 HD
ATOM     18  H31 UNL     1      53.878  73.673  17.521  1.00  0.00     0.158 HD
ATOM     19  H2  UNL     1      56.473  75.814  19.740  1.00  0.00     0.183 HD
ENDBRANCH  10  13
ENDBRANCH   8  10
ENDBRANCH   5   8
BRANCH   1  20
HETATM   20  C3  UNL     1      56.229  68.977  24.435  1.00  0.00     0.267 C 
HETATM   21  O2  UNL     1      55.605  69.677  25.277  1.00  0.00    -0.264 OA
BRANCH  20  22
HETATM   22  O1  UNL     1      56.447  67.650  24.763  1.00  0.00    -0.321 OA
BRANCH  22  23
HETATM   23  C2  UNL     1      55.569  66.607  24.430  1.00  0.00     0.174 C 
HETATM   24  C1  UNL     1      56.249  65.379  23.909  1.00  0.00     0.034 C 
ENDBRANCH  22  23
ENDBRANCH  20  22
ENDBRANCH   1  20
TORSDOF 6
ENDMDL
MODEL 5
REMARK VINA RESULT: -6.887586381      3.458      6.847
REMARK  6 active torsions:
REMARK  status: ('A' for Active; 'I' for Inactive)
REMARK    1  A    between atoms: C2_2  and  O1_3 
REMARK    2  A    between atoms: O1_3  and  C3_4 
REMARK    3  A    between atoms: C3_4  and  C4_6 
REMARK    4  A    between atoms: C8_10  and  N1_11 
REMARK    5  A    between atoms: N1_11  and  S1_13 
REMARK    6  A    between atoms: S1_13  and  N2_16 
REMARK       I    between atoms: N2_16  and  C9_18 
ROOT
HETATM    1  C4  UNL     1      57.146  73.380  20.443  1.00  0.00     0.044 C 
HETATM    2  C5  UNL     1      56.872  74.624  21.259  1.00  0.00     0.026 C 
HETATM    3  C6  UNL     1      56.163  72.319  20.907  1.00  0.00     0.021 C 
HETATM    4  C7  UNL     1      56.878  71.033  21.262  1.00  0.00     0.027 C 
HETATM    5  C8  UNL     1      57.891  71.224  22.373  1.00  0.00     0.094 C 
HETATM    6  C10 UNL     1      58.550  72.537  22.235  1.00  0.00     0.027 C 
HETATM    7  C11 UNL     1      58.562  72.909  20.762  1.00  0.00     0.021 C 
ENDROOT
BRANCH   5   8
HETATM    8  N1  UNL     1      57.294  70.912  23.609  1.00  0.00    -0.298 N 
ATOM      9  H1  UNL     1      57.403  71.547  24.400  1.00  0.00     0.174 HD
BRANCH   8  10
HETATM   10  S1  UNL     1      56.411  69.514  23.787  1.00  0.00     0.321 S 
HETATM   11  O3  UNL     1      55.156  69.632  22.956  1.00  0.00    -0.182 OA
HETATM   12  O4  UNL     1      55.940  69.210  25.177  1.00  0.00    -0.182 OA
BRANCH  10  13
HETATM   13  N2  UNL     1      57.251  68.123  23.143  1.00  0.00    -0.241 N 
HETATM   14  C9  UNL     1      56.615  66.846  23.109  1.00  0.00     0.196 C 
HETATM   15  N3  UNL     1      55.845  66.547  24.092  1.00  0.00    -0.373 N 
HETATM   16  N4  UNL     1      56.791  65.920  22.067  1.00  0.00    -0.063 NA
ATOM     17  H32 UNL     1      55.717  67.220  24.848  1.00  0.00     0.158 HD
ATOM     18  H31 UNL     1      55.390  65.635  24.067  1.00  0.00     0.158 HD
ATOM     19  H2  UNL     1      58.203  68.224  22.791  1.00  0.00     0.183 HD
ENDBRANCH  10  13
ENDBRANCH   8  10
ENDBRANCH   5   8
BRANCH   1  20
HETATM   20  C3  UNL     1      56.997  73.700  19.006  1.00  0.00     0.267 C 
HETATM   21  O2  UNL     1      57.738  73.188  18.123  1.00  0.00    -0.264 OA
BRANCH  20  22
HETATM   22  O1  UNL     1      56.026  74.586  18.573  1.00  0.00    -0.321 OA
BRANCH  22  23
HETATM   23  C2  UNL     1      54.724  74.204  18.214  1.00  0.00     0.174 C 
HETATM   24  C1  UNL     1      53.648  74.936  18.956  1.00  0.00     0.034 C 
ENDBRANCH  22  23
ENDBRANCH  20  22
ENDBRANCH   1  20
TORSDOF 6
ENDMDL
