MODEL 1
REMARK VINA RESULT: -7.234281087      0.000      0.000
REMARK  3 active torsions:
REMARK  status: ('A' for Active; 'I' for Inactive)
REMARK    1  A    between atoms: C2_2  and  N1_3 
REMARK    2  A    between atoms: C2_2  and  C12_18 
REMARK       I    between atoms: N1_3  and  C3_5 
REMARK    3  A    between atoms: C3_5  and  C4_7 
REMARK       I    between atoms: C12_18  and  N3_20 
REMARK       I    between atoms: N3_20  and  C13_22 
ROOT
HETATM    1  N1  UNL     1      55.532  73.373  21.221  1.00  0.00    -0.348 N 
ATOM      2  H1  UNL     1      54.906  72.574  21.118  1.00  0.00     0.163 HD
HETATM    3  C3  UNL     1      56.610  73.333  22.128  1.00  0.00     0.225 C 
HETATM    4  O1  UNL     1      57.403  74.322  22.270  1.00  0.00    -0.273 OA
ENDROOT
BRANCH   3   5
HETATM    5  C4  UNL     1      56.850  72.140  22.940  1.00  0.00     0.115 C 
HETATM    6  C5  UNL     1      55.882  70.999  22.649  1.00  0.00     0.054 C 
HETATM    7  C6  UNL     1      56.672  69.814  23.153  1.00  0.00     0.120 C 
HETATM    8  C7  UNL     1      56.513  68.689  22.156  1.00  0.00     0.046 C 
HETATM    9  C8  UNL     1      56.088  69.306  24.469  1.00  0.00     0.046 C 
HETATM   10  N2  UNL     1      58.026  70.228  23.355  1.00  0.00    -0.058 N 
HETATM   11  C9  UNL     1      58.213  71.519  22.717  1.00  0.00     0.131 C 
ATOM     12  H22 UNL     1      58.290  70.236  24.340  1.00  0.00     0.279 HD
ATOM     13  H21 UNL     1      58.700  69.532  23.036  1.00  0.00     0.279 HD
HETATM   14  C10 UNL     1      59.242  72.374  23.409  1.00  0.00     0.046 C 
HETATM   15  C11 UNL     1      58.578  71.389  21.271  1.00  0.00     0.046 C 
ENDBRANCH   3   5
BRANCH   1  16
HETATM   16  C2  UNL     1      55.333  74.582  20.434  1.00  0.00     0.173 C 
HETATM   17  C1  UNL     1      54.196  75.318  21.149  1.00  0.00     0.042 C 
BRANCH  16  18
HETATM   18  C12 UNL     1      54.947  74.276  19.049  1.00  0.00     0.247 C 
HETATM   19  O2  UNL     1      53.723  74.482  18.737  1.00  0.00    -0.271 OA
HETATM   20  N3  UNL     1      55.795  73.778  18.042  1.00  0.00    -0.280 N 
HETATM   21  C13 UNL     1      57.156  73.431  18.181  1.00  0.00     0.335 C 
ATOM     22  H3  UNL     1      55.384  73.655  17.116  1.00  0.00     0.173 HD
HETATM   23  N4  UNL     1      57.897  72.930  17.063  1.00  0.00    -0.040 NA
HETATM   24  O3  UNL     1      57.792  73.530  19.247  1.00  0.00    -0.251 OA
ENDBRANCH  16  18
ENDBRANCH   1  16
TORSDOF 3
ENDMDL
MODEL 2
REMARK VINA RESULT: -6.132514332      1.893      2.470
REMARK  3 active torsions:
REMARK  status: ('A' for Active; 'I' for Inactive)
REMARK    1  A    between atoms: C2_2  and  N1_3 
REMARK    2  A    between atoms: C2_2  and  C12_18 
REMARK       I    between atoms: N1_3  and  C3_5 
REMARK    3  A    between atoms: C3_5  and  C4_7 
REMARK       I    between atoms: C12_18  and  N3_20 
REMARK       I    between atoms: N3_20  and  C13_22 
ROOT
HETATM    1  N1  UNL     1      56.178  73.514  21.519  1.00  0.00    -0.348 N 
ATOM      2  H1  UNL     1      55.855  73.829  22.435  1.00  0.00     0.163 HD
HETATM    3  C3  UNL     1      56.518  72.164  21.299  1.00  0.00     0.225 C 
HETATM    4  O1  UNL     1      56.923  71.753  20.162  1.00  0.00    -0.273 OA
ENDROOT
BRANCH   3   5
HETATM    5  C4  UNL     1      56.412  71.189  22.383  1.00  0.00     0.115 C 
HETATM    6  C5  UNL     1      56.043  69.787  21.911  1.00  0.00     0.054 C 
HETATM    7  C6  UNL     1      56.550  68.950  23.061  1.00  0.00     0.120 C 
HETATM    8  C7  UNL     1      57.233  67.731  22.486  1.00  0.00     0.046 C 
HETATM    9  C8  UNL     1      55.381  68.432  23.897  1.00  0.00     0.046 C 
HETATM   10  N2  UNL     1      57.397  69.766  23.873  1.00  0.00    -0.058 N 
HETATM   11  C9  UNL     1      57.708  70.981  23.140  1.00  0.00     0.131 C 
ATOM     12  H22 UNL     1      56.996  69.955  24.792  1.00  0.00     0.279 HD
ATOM     13  H21 UNL     1      58.233  69.273  24.186  1.00  0.00     0.279 HD
HETATM   14  C10 UNL     1      57.928  72.170  24.037  1.00  0.00     0.046 C 
HETATM   15  C11 UNL     1      58.898  70.814  22.247  1.00  0.00     0.046 C 
ENDBRANCH   3   5
BRANCH   1  16
HETATM   16  C2  UNL     1      56.299  74.449  20.410  1.00  0.00     0.173 C 
HETATM   17  C1  UNL     1      55.022  74.235  19.591  1.00  0.00     0.042 C 
BRANCH  16  18
HETATM   18  C12 UNL     1      57.483  74.167  19.584  1.00  0.00     0.247 C 
HETATM   19  O2  UNL     1      57.268  73.879  18.356  1.00  0.00    -0.271 OA
HETATM   20  N3  UNL     1      58.821  74.185  20.020  1.00  0.00    -0.280 N 
HETATM   21  C13 UNL     1      59.277  74.423  21.334  1.00  0.00     0.335 C 
ATOM     22  H3  UNL     1      59.536  74.007  19.313  1.00  0.00     0.173 HD
HETATM   23  N4  UNL     1      60.678  74.406  21.633  1.00  0.00    -0.040 NA
HETATM   24  O3  UNL     1      58.524  74.658  22.298  1.00  0.00    -0.251 OA
ENDBRANCH  16  18
ENDBRANCH   1  16
TORSDOF 3
ENDMDL
MODEL 3
REMARK VINA RESULT: -6.054049056      2.079      4.008
REMARK  3 active torsions:
REMARK  status: ('A' for Active; 'I' for Inactive)
REMARK    1  A    between atoms: C2_2  and  N1_3 
REMARK    2  A    between atoms: C2_2  and  C12_18 
REMARK       I    between atoms: N1_3  and  C3_5 
REMARK    3  A    between atoms: C3_5  and  C4_7 
REMARK       I    between atoms: C12_18  and  N3_20 
REMARK       I    between atoms: N3_20  and  C13_22 
ROOT
HETATM    1  N1  UNL     1      58.361  70.858  22.440  1.00  0.00    -0.348 N 
ATOM      2  H1  UNL     1      58.848  70.297  23.138  1.00  0.00     0.163 HD
HETATM    3  C3  UNL     1      57.139  70.422  21.888  1.00  0.00     0.225 C 
HETATM    4  O1  UNL     1      56.516  71.111  21.014  1.00  0.00    -0.273 OA
ENDROOT
BRANCH   3   5
HETATM    5  C4  UNL     1      56.549  69.152  22.309  1.00  0.00     0.115 C 
HETATM    6  C5  UNL     1      57.576  68.053  22.557  1.00  0.00     0.054 C 
HETATM    7  C6  UNL     1      56.800  67.133  23.470  1.00  0.00     0.120 C 
HETATM    8  C7  UNL     1      57.729  66.678  24.572  1.00  0.00     0.046 C 
HETATM    9  C8  UNL     1      56.376  65.873  22.719  1.00  0.00     0.046 C 
HETATM   10  N2  UNL     1      55.641  67.830  23.934  1.00  0.00    -0.058 N 
HETATM   11  C9  UNL     1      55.795  69.240  23.619  1.00  0.00     0.131 C 
ATOM     12  H22 UNL     1      54.775  67.438  23.565  1.00  0.00     0.279 HD
ATOM     13  H21 UNL     1      55.456  67.668  24.924  1.00  0.00     0.279 HD
HETATM   14  C10 UNL     1      54.482  69.932  23.365  1.00  0.00     0.046 C 
HETATM   15  C11 UNL     1      56.540  69.980  24.686  1.00  0.00     0.046 C 
ENDBRANCH   3   5
BRANCH   1  16
HETATM   16  C2  UNL     1      58.910  72.130  21.990  1.00  0.00     0.173 C 
HETATM   17  C1  UNL     1      60.232  72.264  22.752  1.00  0.00     0.042 C 
BRANCH  16  18
HETATM   18  C12 UNL     1      58.021  73.255  22.315  1.00  0.00     0.247 C 
HETATM   19  O2  UNL     1      57.797  73.466  23.557  1.00  0.00    -0.271 OA
HETATM   20  N3  UNL     1      57.399  74.115  21.390  1.00  0.00    -0.280 N 
HETATM   21  C13 UNL     1      57.466  74.030  19.983  1.00  0.00     0.335 C 
ATOM     22  H3  UNL     1      56.842  74.877  21.777  1.00  0.00     0.173 HD
HETATM   23  N4  UNL     1      56.773  74.978  19.163  1.00  0.00    -0.040 NA
HETATM   24  O3  UNL     1      58.108  73.156  19.370  1.00  0.00    -0.251 OA
ENDBRANCH  16  18
ENDBRANCH   1  16
TORSDOF 3
ENDMDL
MODEL 4
REMARK VINA RESULT: -6.028410926      1.982      3.462
REMARK  3 active torsions:
REMARK  status: ('A' for Active; 'I' for Inactive)
REMARK    1  A    between atoms: C2_2  and  N1_3 
REMARK    2  A    between atoms: C2_2  and  C12_18 
REMARK       I    between atoms: N1_3  and  C3_5 
REMARK    3  A    between atoms: C3_5  and  C4_7 
REMARK       I    between atoms: C12_18  and  N3_20 
REMARK       I    between atoms: N3_20  and  C13_22 
ROOT
HETATM    1  N1  UNL     1      56.859  72.024  21.970  1.00  0.00    -0.348 N 
ATOM      2  H1  UNL     1      56.076  71.885  21.331  1.00  0.00     0.163 HD
HETATM    3  C3  UNL     1      57.356  70.958  22.745  1.00  0.00     0.225 C 
HETATM    4  O1  UNL     1      58.335  71.114  23.549  1.00  0.00    -0.273 OA
ENDROOT
BRANCH   3   5
HETATM    5  C4  UNL     1      56.756  69.628  22.647  1.00  0.00     0.115 C 
HETATM    6  C5  UNL     1      57.753  68.491  22.836  1.00  0.00     0.054 C 
HETATM    7  C6  UNL     1      56.834  67.364  23.243  1.00  0.00     0.120 C 
HETATM    8  C7  UNL     1      57.492  66.611  24.377  1.00  0.00     0.046 C 
HETATM    9  C8  UNL     1      56.678  66.365  22.098  1.00  0.00     0.046 C 
HETATM   10  N2  UNL     1      55.559  67.919  23.574  1.00  0.00    -0.058 N 
HETATM   11  C9  UNL     1      55.702  69.359  23.701  1.00  0.00     0.131 C 
ATOM     12  H22 UNL     1      54.832  67.655  22.909  1.00  0.00     0.279 HD
ATOM     13  H21 UNL     1      55.149  67.492  24.405  1.00  0.00     0.279 HD
HETATM   14  C10 UNL     1      54.453  70.110  23.325  1.00  0.00     0.046 C 
HETATM   15  C11 UNL     1      56.122  69.767  25.079  1.00  0.00     0.046 C 
ENDBRANCH   3   5
BRANCH   1  16
HETATM   16  C2  UNL     1      57.489  73.330  22.102  1.00  0.00     0.173 C 
HETATM   17  C1  UNL     1      56.382  74.325  21.741  1.00  0.00     0.042 C 
BRANCH  16  18
HETATM   18  C12 UNL     1      58.626  73.484  21.183  1.00  0.00     0.247 C 
HETATM   19  O2  UNL     1      59.767  73.709  21.717  1.00  0.00    -0.271 OA
HETATM   20  N3  UNL     1      58.574  73.406  19.778  1.00  0.00    -0.280 N 
HETATM   21  C13 UNL     1      57.420  73.220  18.987  1.00  0.00     0.335 C 
ATOM     22  H3  UNL     1      59.461  73.493  19.281  1.00  0.00     0.173 HD
HETATM   23  N4  UNL     1      57.519  73.164  17.559  1.00  0.00    -0.040 NA
HETATM   24  O3  UNL     1      56.272  73.094  19.452  1.00  0.00    -0.251 OA
ENDBRANCH  16  18
ENDBRANCH   1  16
TORSDOF 3
ENDMDL
MODEL 5
REMARK VINA RESULT: -5.794848058      1.513      2.634
REMARK  3 active torsions:
REMARK  status: ('A' for Active; 'I' for Inactive)
REMARK    1  A    between atoms: C2_2  and  N1_3 
REMARK    2  A    between atoms: C2_2  and  C12_18 
REMARK       I    between atoms: N1_3  and  C3_5 
REMARK    3  A    between atoms: C3_5  and  C4_7 
REMARK       I    between atoms: C12_18  and  N3_20 
REMARK       I    between atoms: N3_20  and  C13_22 
ROOT
HETATM    1  N1  UNL     1      56.724  72.352  19.919  1.00  0.00    -0.348 N 
ATOM      2  H1  UNL     1      57.374  71.571  19.831  1.00  0.00     0.163 HD
HETATM    3  C3  UNL     1      56.117  72.650  21.156  1.00  0.00     0.225 C 
HETATM    4  O1  UNL     1      55.302  73.623  21.284  1.00  0.00    -0.273 OA
ENDROOT
BRANCH   3   5
HETATM    5  C4  UNL     1      56.411  71.841  22.338  1.00  0.00     0.115 C 
HETATM    6  C5  UNL     1      55.990  70.383  22.201  1.00  0.00     0.054 C 
HETATM    7  C6  UNL     1      56.877  69.727  23.232  1.00  0.00     0.120 C 
HETATM    8  C7  UNL     1      57.412  68.443  22.639  1.00  0.00     0.046 C 
HETATM    9  C8  UNL     1      56.059  69.325  24.458  1.00  0.00     0.046 C 
HETATM   10  N2  UNL     1      57.890  70.660  23.615  1.00  0.00    -0.058 N 
HETATM   11  C9  UNL     1      57.887  71.758  22.664  1.00  0.00     0.131 C 
ATOM     12  H22 UNL     1      57.787  70.977  24.579  1.00  0.00     0.279 HD
ATOM     13  H21 UNL     1      58.808  70.225  23.709  1.00  0.00     0.279 HD
HETATM   14  C10 UNL     1      58.312  73.067  23.275  1.00  0.00     0.046 C 
HETATM   15  C11 UNL     1      58.745  71.474  21.470  1.00  0.00     0.046 C 
ENDBRANCH   3   5
BRANCH   1  16
HETATM   16  C2  UNL     1      56.401  73.185  18.770  1.00  0.00     0.173 C 
HETATM   17  C1  UNL     1      57.591  73.006  17.823  1.00  0.00     0.042 C 
BRANCH  16  18
HETATM   18  C12 UNL     1      56.260  74.600  19.143  1.00  0.00     0.247 C 
HETATM   19  O2  UNL     1      57.291  75.164  19.648  1.00  0.00    -0.271 OA
HETATM   20  N3  UNL     1      55.100  75.386  18.997  1.00  0.00    -0.280 N 
HETATM   21  C13 UNL     1      53.845  74.954  18.516  1.00  0.00     0.335 C 
ATOM     22  H3  UNL     1      55.175  76.367  19.266  1.00  0.00     0.173 HD
HETATM   23  N4  UNL     1      52.748  75.870  18.426  1.00  0.00    -0.040 NA
HETATM   24  O3  UNL     1      53.606  73.789  18.149  1.00  0.00    -0.251 OA
ENDBRANCH  16  18
ENDBRANCH   1  16
TORSDOF 3
ENDMDL
