MODEL 1
REMARK VINA RESULT: -8.615477632      0.000      0.000
REMARK  6 active torsions:
REMARK  status: ('A' for Active; 'I' for Inactive)
REMARK    1  A    between atoms: N2_3  and  S1_5 
REMARK    2  A    between atoms: S1_5  and  N3_8 
REMARK    3  A    between atoms: N3_8  and  N4_10 
REMARK    4  A    between atoms: N4_10  and  C2_12 
REMARK    5  A    between atoms: C2_12  and  N5_14 
REMARK       I    between atoms: N5_14  and  C3_16 
REMARK    6  A    between atoms: C3_16  and  C4_18 
ROOT
HETATM    1  N1  UNL     1      53.077  75.101  18.887  1.00  0.00    -0.171 NA
HETATM    2  C1  UNL     1      53.945  74.454  18.446  1.00  0.00     0.193 C 
HETATM    3  N2  UNL     1      54.999  73.697  17.924  1.00  0.00    -0.202 N 
ATOM      4  H2  UNL     1      54.852  73.137  17.084  1.00  0.00     0.193 HD
ENDROOT
BRANCH   3   5
HETATM    5  S1  UNL     1      56.526  73.703  18.678  1.00  0.00     0.345 S 
HETATM    6  O1  UNL     1      56.837  75.130  19.084  1.00  0.00    -0.180 OA
HETATM    7  O2  UNL     1      57.608  73.217  17.760  1.00  0.00    -0.180 OA
BRANCH   5   8
HETATM    8  N3  UNL     1      56.507  72.694  20.057  1.00  0.00    -0.207 N 
ATOM      9  H3  UNL     1      55.677  72.425  20.584  1.00  0.00     0.201 HD
BRANCH   8  10
HETATM   10  N4  UNL     1      57.802  72.303  20.340  1.00  0.00    -0.265 N 
ATOM     11  H4  UNL     1      58.515  72.262  19.611  1.00  0.00     0.190 HD
BRANCH  10  12
HETATM   12  C2  UNL     1      58.107  71.955  21.702  1.00  0.00     0.194 C 
HETATM   13  S2  UNL     1      58.658  73.066  22.747  1.00  0.00    -0.039 SA
BRANCH  12  14
HETATM   14  N5  UNL     1      57.920  70.617  22.142  1.00  0.00    -0.298 N 
HETATM   15  C3  UNL     1      56.647  70.165  22.518  1.00  0.00     0.257 C 
HETATM   16  O3  UNL     1      55.665  70.930  22.471  1.00  0.00    -0.267 OA
ATOM     17  H5  UNL     1      58.716  69.981  22.184  1.00  0.00     0.171 HD
BRANCH  15  18
HETATM   18  C4  UNL     1      56.470  68.794  22.965  1.00  0.00     0.032 A 
HETATM   19  C5  UNL     1      55.891  68.458  24.171  1.00  0.00     0.017 A 
HETATM   20  C6  UNL     1      55.769  67.112  24.493  1.00  0.00     0.001 A 
HETATM   21  C7  UNL     1      56.204  66.111  23.657  1.00  0.00     0.000 A 
HETATM   22  C8  UNL     1      56.781  66.445  22.456  1.00  0.00     0.001 A 
HETATM   23  C9  UNL     1      56.908  67.772  22.124  1.00  0.00     0.017 A 
ENDBRANCH  15  18
ENDBRANCH  12  14
ENDBRANCH  10  12
ENDBRANCH   8  10
ENDBRANCH   5   8
ENDBRANCH   3   5
TORSDOF 6
ENDMDL
MODEL 2
REMARK VINA RESULT: -8.556412698      0.081      1.093
REMARK  6 active torsions:
REMARK  status: ('A' for Active; 'I' for Inactive)
REMARK    1  A    between atoms: N2_3  and  S1_5 
REMARK    2  A    between atoms: S1_5  and  N3_8 
REMARK    3  A    between atoms: N3_8  and  N4_10 
REMARK    4  A    between atoms: N4_10  and  C2_12 
REMARK    5  A    between atoms: C2_12  and  N5_14 
REMARK       I    between atoms: N5_14  and  C3_16 
REMARK    6  A    between atoms: C3_16  and  C4_18 
ROOT
HETATM    1  N1  UNL     1      53.040  75.101  18.813  1.00  0.00    -0.171 NA
HETATM    2  C1  UNL     1      53.909  74.437  18.401  1.00  0.00     0.193 C 
HETATM    3  N2  UNL     1      54.964  73.660  17.914  1.00  0.00    -0.202 N 
ATOM      4  H2  UNL     1      54.819  73.062  17.100  1.00  0.00     0.193 HD
ENDROOT
BRANCH   3   5
HETATM    5  S1  UNL     1      56.492  73.704  18.667  1.00  0.00     0.345 S 
HETATM    6  O1  UNL     1      56.775  75.141  19.056  1.00  0.00    -0.180 OA
HETATM    7  O2  UNL     1      57.582  73.228  17.753  1.00  0.00    -0.180 OA
BRANCH   5   8
HETATM    8  N3  UNL     1      56.493  72.711  20.057  1.00  0.00    -0.207 N 
ATOM      9  H3  UNL     1      55.666  72.420  20.579  1.00  0.00     0.201 HD
BRANCH   8  10
HETATM   10  N4  UNL     1      57.797  72.365  20.356  1.00  0.00    -0.265 N 
ATOM     11  H4  UNL     1      58.527  72.384  19.643  1.00  0.00     0.190 HD
BRANCH  10  12
HETATM   12  C2  UNL     1      58.086  71.977  21.710  1.00  0.00     0.194 C 
HETATM   13  S2  UNL     1      58.591  73.064  22.803  1.00  0.00    -0.039 SA
BRANCH  12  14
HETATM   14  N5  UNL     1      57.925  70.620  22.100  1.00  0.00    -0.298 N 
HETATM   15  C3  UNL     1      56.666  70.138  22.486  1.00  0.00     0.257 C 
HETATM   16  O3  UNL     1      55.674  70.892  22.492  1.00  0.00    -0.267 OA
ATOM     17  H5  UNL     1      58.729  69.993  22.099  1.00  0.00     0.171 HD
BRANCH  15  18
HETATM   18  C4  UNL     1      56.515  68.748  22.882  1.00  0.00     0.032 A 
HETATM   19  C5  UNL     1      56.919  67.688  22.098  1.00  0.00     0.017 A 
HETATM   20  C6  UNL     1      56.730  66.399  22.581  1.00  0.00     0.001 A 
HETATM   21  C7  UNL     1      56.157  66.146  23.805  1.00  0.00     0.000 A 
HETATM   22  C8  UNL     1      55.754  67.202  24.586  1.00  0.00     0.001 A 
HETATM   23  C9  UNL     1      55.935  68.482  24.122  1.00  0.00     0.017 A 
ENDBRANCH  15  18
ENDBRANCH  12  14
ENDBRANCH  10  12
ENDBRANCH   8  10
ENDBRANCH   5   8
ENDBRANCH   3   5
TORSDOF 6
ENDMDL
MODEL 3
REMARK VINA RESULT: -8.434551834      0.974      1.466
REMARK  6 active torsions:
REMARK  status: ('A' for Active; 'I' for Inactive)
REMARK    1  A    between atoms: N2_3  and  S1_5 
REMARK    2  A    between atoms: S1_5  and  N3_8 
REMARK    3  A    between atoms: N3_8  and  N4_10 
REMARK    4  A    between atoms: N4_10  and  C2_12 
REMARK    5  A    between atoms: C2_12  and  N5_14 
REMARK       I    between atoms: N5_14  and  C3_16 
REMARK    6  A    between atoms: C3_16  and  C4_18 
ROOT
HETATM    1  N1  UNL     1      53.696  74.211  18.261  1.00  0.00    -0.171 NA
HETATM    2  C1  UNL     1      54.742  74.451  18.726  1.00  0.00     0.193 C 
HETATM    3  N2  UNL     1      55.995  74.714  19.288  1.00  0.00    -0.202 N 
ATOM      4  H2  UNL     1      56.158  75.600  19.767  1.00  0.00     0.193 HD
ENDROOT
BRANCH   3   5
HETATM    5  S1  UNL     1      57.250  73.568  19.182  1.00  0.00     0.345 S 
HETATM    6  O1  UNL     1      58.486  74.174  19.815  1.00  0.00    -0.180 OA
HETATM    7  O2  UNL     1      57.564  73.210  17.759  1.00  0.00    -0.180 OA
BRANCH   5   8
HETATM    8  N3  UNL     1      56.813  72.136  20.005  1.00  0.00    -0.207 N 
ATOM      9  H3  UNL     1      56.647  71.229  19.571  1.00  0.00     0.201 HD
BRANCH   8  10
HETATM   10  N4  UNL     1      56.722  72.410  21.357  1.00  0.00    -0.265 N 
ATOM     11  H4  UNL     1      56.024  73.059  21.720  1.00  0.00     0.190 HD
BRANCH  10  12
HETATM   12  C2  UNL     1      57.650  71.745  22.232  1.00  0.00     0.194 C 
HETATM   13  S2  UNL     1      58.762  72.581  23.066  1.00  0.00    -0.039 SA
BRANCH  12  14
HETATM   14  N5  UNL     1      57.591  70.332  22.372  1.00  0.00    -0.298 N 
HETATM   15  C3  UNL     1      56.487  69.726  22.991  1.00  0.00     0.257 C 
HETATM   16  O3  UNL     1      55.547  70.418  23.425  1.00  0.00    -0.267 OA
ATOM     17  H5  UNL     1      58.355  69.756  22.021  1.00  0.00     0.171 HD
BRANCH  15  18
HETATM   18  C4  UNL     1      56.440  68.280  23.127  1.00  0.00     0.032 A 
HETATM   19  C5  UNL     1      56.934  67.412  22.176  1.00  0.00     0.017 A 
HETATM   20  C6  UNL     1      56.839  66.047  22.415  1.00  0.00     0.001 A 
HETATM   21  C7  UNL     1      56.273  65.535  23.559  1.00  0.00     0.000 A 
HETATM   22  C8  UNL     1      55.781  66.400  24.506  1.00  0.00     0.001 A 
HETATM   23  C9  UNL     1      55.868  67.752  24.284  1.00  0.00     0.017 A 
ENDBRANCH  15  18
ENDBRANCH  12  14
ENDBRANCH  10  12
ENDBRANCH   8  10
ENDBRANCH   5   8
ENDBRANCH   3   5
TORSDOF 6
ENDMDL
MODEL 4
REMARK VINA RESULT: -8.267809153      1.228      1.228
REMARK  6 active torsions:
REMARK  status: ('A' for Active; 'I' for Inactive)
REMARK    1  A    between atoms: N2_3  and  S1_5 
REMARK    2  A    between atoms: S1_5  and  N3_8 
REMARK    3  A    between atoms: N3_8  and  N4_10 
REMARK    4  A    between atoms: N4_10  and  C2_12 
REMARK    5  A    between atoms: C2_12  and  N5_14 
REMARK       I    between atoms: N5_14  and  C3_16 
REMARK    6  A    between atoms: C3_16  and  C4_18 
ROOT
HETATM    1  N1  UNL     1      54.059  74.690  20.765  1.00  0.00    -0.171 NA
HETATM    2  C1  UNL     1      55.048  74.842  20.159  1.00  0.00     0.193 C 
HETATM    3  N2  UNL     1      56.242  75.010  19.452  1.00  0.00    -0.202 N 
ATOM      4  H2  UNL     1      56.439  75.901  18.996  1.00  0.00     0.193 HD
ENDROOT
BRANCH   3   5
HETATM    5  S1  UNL     1      57.372  73.739  19.346  1.00  0.00     0.345 S 
HETATM    6  O1  UNL     1      58.685  74.239  19.912  1.00  0.00    -0.180 OA
HETATM    7  O2  UNL     1      57.593  73.302  17.928  1.00  0.00    -0.180 OA
BRANCH   5   8
HETATM    8  N3  UNL     1      56.826  72.389  20.238  1.00  0.00    -0.207 N 
ATOM      9  H3  UNL     1      55.860  72.067  20.297  1.00  0.00     0.201 HD
BRANCH   8  10
HETATM   10  N4  UNL     1      57.909  71.802  20.866  1.00  0.00    -0.265 N 
ATOM     11  H4  UNL     1      58.716  71.476  20.335  1.00  0.00     0.190 HD
BRANCH  10  12
HETATM   12  C2  UNL     1      57.854  71.670  22.297  1.00  0.00     0.194 C 
HETATM   13  S2  UNL     1      58.032  72.960  23.265  1.00  0.00    -0.039 SA
BRANCH  12  14
HETATM   14  N5  UNL     1      57.638  70.390  22.874  1.00  0.00    -0.298 N 
HETATM   15  C3  UNL     1      56.724  69.497  22.297  1.00  0.00     0.257 C 
HETATM   16  O3  UNL     1      56.091  69.814  21.271  1.00  0.00    -0.267 OA
ATOM     17  H5  UNL     1      58.150  70.119  23.713  1.00  0.00     0.171 HD
BRANCH  15  18
HETATM   18  C4  UNL     1      56.513  68.190  22.898  1.00  0.00     0.032 A 
HETATM   19  C5  UNL     1      55.894  68.007  24.116  1.00  0.00     0.017 A 
HETATM   20  C6  UNL     1      55.742  66.711  24.591  1.00  0.00     0.001 A 
HETATM   21  C7  UNL     1      56.184  65.612  23.893  1.00  0.00     0.000 A 
HETATM   22  C8  UNL     1      56.801  65.794  22.679  1.00  0.00     0.001 A 
HETATM   23  C9  UNL     1      56.958  67.070  22.197  1.00  0.00     0.017 A 
ENDBRANCH  15  18
ENDBRANCH  12  14
ENDBRANCH  10  12
ENDBRANCH   8  10
ENDBRANCH   5   8
ENDBRANCH   3   5
TORSDOF 6
ENDMDL
MODEL 5
REMARK VINA RESULT: -8.115651556      1.291      1.378
REMARK  6 active torsions:
REMARK  status: ('A' for Active; 'I' for Inactive)
REMARK    1  A    between atoms: N2_3  and  S1_5 
REMARK    2  A    between atoms: S1_5  and  N3_8 
REMARK    3  A    between atoms: N3_8  and  N4_10 
REMARK    4  A    between atoms: N4_10  and  C2_12 
REMARK    5  A    between atoms: C2_12  and  N5_14 
REMARK       I    between atoms: N5_14  and  C3_16 
REMARK    6  A    between atoms: C3_16  and  C4_18 
ROOT
HETATM    1  N1  UNL     1      53.104  75.970  20.515  1.00  0.00    -0.171 NA
HETATM    2  C1  UNL     1      54.036  75.267  20.583  1.00  0.00     0.193 C 
HETATM    3  N2  UNL     1      55.146  74.418  20.642  1.00  0.00    -0.202 N 
ATOM      4  H2  UNL     1      55.397  73.976  21.526  1.00  0.00     0.193 HD
ENDROOT
BRANCH   3   5
HETATM    5  S1  UNL     1      56.081  74.118  19.251  1.00  0.00     0.345 S 
HETATM    6  O1  UNL     1      57.119  75.217  19.144  1.00  0.00    -0.180 OA
HETATM    7  O2  UNL     1      55.248  74.118  18.003  1.00  0.00    -0.180 OA
BRANCH   5   8
HETATM    8  N3  UNL     1      56.850  72.597  19.375  1.00  0.00    -0.207 N 
ATOM      9  H3  UNL     1      56.421  71.696  19.165  1.00  0.00     0.201 HD
BRANCH   8  10
HETATM   10  N4  UNL     1      58.150  72.788  19.805  1.00  0.00    -0.265 N 
ATOM     11  H4  UNL     1      58.885  73.073  19.158  1.00  0.00     0.190 HD
BRANCH  10  12
HETATM   12  C2  UNL     1      58.425  72.571  21.200  1.00  0.00     0.194 C 
HETATM   13  S2  UNL     1      59.082  73.738  22.115  1.00  0.00    -0.039 SA
BRANCH  12  14
HETATM   14  N5  UNL     1      58.116  71.315  21.788  1.00  0.00    -0.298 N 
HETATM   15  C3  UNL     1      56.815  71.043  22.234  1.00  0.00     0.257 C 
HETATM   16  O3  UNL     1      55.915  71.897  22.121  1.00  0.00    -0.267 OA
ATOM     17  H5  UNL     1      58.844  70.608  21.886  1.00  0.00     0.171 HD
BRANCH  15  18
HETATM   18  C4  UNL     1      56.512  69.754  22.833  1.00  0.00     0.032 A 
HETATM   19  C5  UNL     1      55.973  69.612  24.094  1.00  0.00     0.017 A 
HETATM   20  C6  UNL     1      55.719  68.329  24.564  1.00  0.00     0.001 A 
HETATM   21  C7  UNL     1      55.987  67.204  23.819  1.00  0.00     0.000 A 
HETATM   22  C8  UNL     1      56.526  67.346  22.563  1.00  0.00     0.001 A 
HETATM   23  C9  UNL     1      56.781  68.608  22.086  1.00  0.00     0.017 A 
ENDBRANCH  15  18
ENDBRANCH  12  14
ENDBRANCH  10  12
ENDBRANCH   8  10
ENDBRANCH   5   8
ENDBRANCH   3   5
TORSDOF 6
ENDMDL
