MODEL 1
REMARK VINA RESULT: -8.673613210      0.000      0.000
REMARK  5 active torsions:
REMARK  status: ('A' for Active; 'I' for Inactive)
REMARK    1  A    between atoms: N1_2  and  C2_4 
REMARK    2  A    between atoms: C5_7  and  S1_8 
REMARK    3  A    between atoms: S1_8  and  N2_11 
REMARK    4  A    between atoms: N2_11  and  N3_13 
REMARK       I    between atoms: N3_13  and  C6_14 
REMARK       I    between atoms: C6_14  and  N4_16 
REMARK    5  A    between atoms: N4_16  and  C7_18 
ROOT
HETATM    1  C7  UNL     1      55.360  74.259  18.958  1.00  0.00     0.186 C 
HETATM    2  N5  UNL     1      54.722  73.834  17.873  1.00  0.00    -0.377 N 
ATOM      3  H51 UNL     1      53.775  73.601  17.575  1.00  0.00     0.158 HD
ATOM      4  H52 UNL     1      55.380  73.498  17.170  1.00  0.00     0.158 HD
HETATM    5  C8  UNL     1      54.361  74.769  20.024  1.00  0.00     0.136 C 
HETATM    6  N6  UNL     1      53.635  75.248  20.839  1.00  0.00    -0.188 NA
ENDROOT
BRANCH   1   7
HETATM    7  N4  UNL     1      56.539  74.548  19.329  1.00  0.00    -0.273 N 
HETATM    8  C6  UNL     1      57.479  73.403  18.949  1.00  0.00     0.419 C 
HETATM    9  N3  UNL     1      58.081  72.688  19.926  1.00  0.00    -0.254 NA
HETATM   10  O3  UNL     1      57.536  73.288  17.674  1.00  0.00    -0.228 OA
ATOM     11  H4  UNL     1      56.815  75.407  19.805  1.00  0.00     0.174 HD
BRANCH   9  12
HETATM   12  N2  UNL     1      58.678  71.977  20.834  1.00  0.00    -0.151 N 
ATOM     13  H2  UNL     1      59.483  71.394  20.604  1.00  0.00     0.215 HD
BRANCH  12  14
HETATM   14  S1  UNL     1      58.069  72.053  22.430  1.00  0.00     0.286 S 
HETATM   15  O1  UNL     1      57.167  73.205  22.724  1.00  0.00    -0.198 OA
HETATM   16  O2  UNL     1      59.271  72.292  23.362  1.00  0.00    -0.198 OA
BRANCH  14  17
HETATM   17  C5  UNL     1      57.237  70.623  22.857  1.00  0.00     0.082 A 
HETATM   18  C4  UNL     1      57.593  69.405  22.249  1.00  0.00     0.027 A 
HETATM   19  C3  UNL     1      57.033  68.247  22.714  1.00  0.00     0.030 A 
HETATM   20  C2  UNL     1      56.135  68.177  23.768  1.00  0.00     0.027 A 
HETATM   21  C10 UNL     1      55.784  69.400  24.385  1.00  0.00     0.030 A 
HETATM   22  C9  UNL     1      56.373  70.537  23.876  1.00  0.00     0.027 A 
BRANCH  20  23
HETATM   23  N1  UNL     1      55.607  67.011  24.269  1.00  0.00    -0.394 N 
HETATM   24  C1  UNL     1      56.287  65.760  23.886  1.00  0.00     0.146 C 
ATOM     25  H1  UNL     1      54.786  67.010  24.876  1.00  0.00     0.159 HD
ENDBRANCH  20  23
ENDBRANCH  14  17
ENDBRANCH  12  14
ENDBRANCH   9  12
ENDBRANCH   1   7
TORSDOF 5
ENDMDL
MODEL 2
REMARK VINA RESULT: -8.227121337      1.641      2.251
REMARK  5 active torsions:
REMARK  status: ('A' for Active; 'I' for Inactive)
REMARK    1  A    between atoms: N1_2  and  C2_4 
REMARK    2  A    between atoms: C5_7  and  S1_8 
REMARK    3  A    between atoms: S1_8  and  N2_11 
REMARK    4  A    between atoms: N2_11  and  N3_13 
REMARK       I    between atoms: N3_13  and  C6_14 
REMARK       I    between atoms: C6_14  and  N4_16 
REMARK    5  A    between atoms: N4_16  and  C7_18 
ROOT
HETATM    1  C7  UNL     1      54.750  74.953  19.613  1.00  0.00     0.186 C 
HETATM    2  N5  UNL     1      54.390  74.331  20.731  1.00  0.00    -0.377 N 
ATOM      3  H51 UNL     1      53.540  74.062  21.226  1.00  0.00     0.158 HD
ATOM      4  H52 UNL     1      55.187  74.215  21.357  1.00  0.00     0.158 HD
HETATM    5  C8  UNL     1      53.540  75.129  18.663  1.00  0.00     0.136 C 
HETATM    6  N6  UNL     1      52.658  75.212  17.867  1.00  0.00    -0.188 NA
ENDROOT
BRANCH   1   7
HETATM    7  N4  UNL     1      55.808  75.289  18.997  1.00  0.00    -0.273 N 
HETATM    8  C6  UNL     1      56.744  74.083  18.917  1.00  0.00     0.419 C 
HETATM    9  N3  UNL     1      57.929  74.119  19.567  1.00  0.00    -0.254 NA
HETATM   10  O3  UNL     1      56.210  73.159  18.208  1.00  0.00    -0.228 OA
ATOM     11  H4  UNL     1      56.002  76.215  18.617  1.00  0.00     0.174 HD
BRANCH   9  12
HETATM   12  N2  UNL     1      59.076  74.115  20.178  1.00  0.00    -0.151 N 
ATOM     13  H2  UNL     1      59.942  74.308  19.675  1.00  0.00     0.215 HD
BRANCH  12  14
HETATM   14  S1  UNL     1      59.082  73.773  21.852  1.00  0.00     0.286 S 
HETATM   15  O1  UNL     1      58.484  74.823  22.729  1.00  0.00    -0.198 OA
HETATM   16  O2  UNL     1      60.555  73.731  22.300  1.00  0.00    -0.198 OA
BRANCH  14  17
HETATM   17  C5  UNL     1      58.293  72.298  22.200  1.00  0.00     0.082 A 
HETATM   18  C4  UNL     1      58.228  71.843  23.529  1.00  0.00     0.027 A 
HETATM   19  C3  UNL     1      57.457  70.749  23.815  1.00  0.00     0.030 A 
HETATM   20  C2  UNL     1      56.711  70.048  22.880  1.00  0.00     0.027 A 
HETATM   21  C10 UNL     1      56.771  70.512  21.545  1.00  0.00     0.030 A 
HETATM   22  C9  UNL     1      57.563  71.614  21.310  1.00  0.00     0.027 A 
BRANCH  20  23
HETATM   23  N1  UNL     1      55.898  68.978  23.170  1.00  0.00    -0.394 N 
HETATM   24  C1  UNL     1      56.408  67.644  22.802  1.00  0.00     0.146 C 
ATOM     25  H1  UNL     1      54.990  69.100  23.618  1.00  0.00     0.159 HD
ENDBRANCH  20  23
ENDBRANCH  14  17
ENDBRANCH  12  14
ENDBRANCH   9  12
ENDBRANCH   1   7
TORSDOF 5
ENDMDL
MODEL 3
REMARK VINA RESULT: -8.167415433      2.278      3.493
REMARK  5 active torsions:
REMARK  status: ('A' for Active; 'I' for Inactive)
REMARK    1  A    between atoms: N1_2  and  C2_4 
REMARK    2  A    between atoms: C5_7  and  S1_8 
REMARK    3  A    between atoms: S1_8  and  N2_11 
REMARK    4  A    between atoms: N2_11  and  N3_13 
REMARK       I    between atoms: N3_13  and  C6_14 
REMARK       I    between atoms: C6_14  and  N4_16 
REMARK    5  A    between atoms: N4_16  and  C7_18 
ROOT
HETATM    1  C7  UNL     1      57.463  73.923  20.449  1.00  0.00     0.186 C 
HETATM    2  N5  UNL     1      58.699  74.087  19.989  1.00  0.00    -0.377 N 
ATOM      3  H51 UNL     1      59.178  74.258  19.105  1.00  0.00     0.158 HD
ATOM      4  H52 UNL     1      59.388  73.819  20.691  1.00  0.00     0.158 HD
HETATM    5  C8  UNL     1      56.417  74.330  19.384  1.00  0.00     0.136 C 
HETATM    6  N6  UNL     1      55.579  74.710  18.627  1.00  0.00    -0.188 NA
ENDROOT
BRANCH   1   7
HETATM    7  N4  UNL     1      56.867  73.710  21.550  1.00  0.00    -0.273 N 
HETATM    8  C6  UNL     1      57.854  73.097  22.544  1.00  0.00     0.419 C 
HETATM    9  N3  UNL     1      57.658  71.833  22.978  1.00  0.00    -0.254 NA
HETATM   10  O3  UNL     1      58.785  73.937  22.811  1.00  0.00    -0.228 OA
ATOM     11  H4  UNL     1      55.887  73.915  21.740  1.00  0.00     0.174 HD
BRANCH   9  12
HETATM   12  N2  UNL     1      57.504  70.621  23.420  1.00  0.00    -0.151 N 
ATOM     13  H2  UNL     1      58.101  70.248  24.159  1.00  0.00     0.215 HD
BRANCH  12  14
HETATM   14  S1  UNL     1      56.267  69.671  22.721  1.00  0.00     0.286 S 
HETATM   15  O1  UNL     1      56.132  69.774  21.238  1.00  0.00    -0.198 OA
HETATM   16  O2  UNL     1      54.926  70.222  23.240  1.00  0.00    -0.198 OA
BRANCH  14  17
HETATM   17  C5  UNL     1      56.443  68.017  23.110  1.00  0.00     0.082 A 
HETATM   18  C4  UNL     1      55.939  67.534  24.331  1.00  0.00     0.027 A 
HETATM   19  C3  UNL     1      55.941  66.185  24.559  1.00  0.00     0.030 A 
HETATM   20  C2  UNL     1      56.398  65.237  23.657  1.00  0.00     0.027 A 
HETATM   21  C10 UNL     1      56.896  65.722  22.425  1.00  0.00     0.030 A 
HETATM   22  C9  UNL     1      56.875  67.088  22.248  1.00  0.00     0.027 A 
BRANCH  20  23
HETATM   23  N1  UNL     1      56.358  63.878  23.862  1.00  0.00    -0.394 N 
HETATM   24  C1  UNL     1      56.134  63.037  22.672  1.00  0.00     0.146 C 
ATOM     25  H1  UNL     1      56.477  63.472  24.791  1.00  0.00     0.159 HD
ENDBRANCH  20  23
ENDBRANCH  14  17
ENDBRANCH  12  14
ENDBRANCH   9  12
ENDBRANCH   1   7
TORSDOF 5
ENDMDL
MODEL 4
REMARK VINA RESULT: -8.146719213      1.071      1.198
REMARK  5 active torsions:
REMARK  status: ('A' for Active; 'I' for Inactive)
REMARK    1  A    between atoms: N1_2  and  C2_4 
REMARK    2  A    between atoms: C5_7  and  S1_8 
REMARK    3  A    between atoms: S1_8  and  N2_11 
REMARK    4  A    between atoms: N2_11  and  N3_13 
REMARK       I    between atoms: N3_13  and  C6_14 
REMARK       I    between atoms: C6_14  and  N4_16 
REMARK    5  A    between atoms: N4_16  and  C7_18 
ROOT
HETATM    1  C7  UNL     1      54.547  74.738  18.884  1.00  0.00     0.186 C 
HETATM    2  N5  UNL     1      53.782  74.315  17.882  1.00  0.00    -0.377 N 
ATOM      3  H51 UNL     1      52.798  74.136  17.683  1.00  0.00     0.158 HD
ATOM      4  H52 UNL     1      54.348  73.909  17.137  1.00  0.00     0.158 HD
HETATM    5  C8  UNL     1      53.688  75.354  20.014  1.00  0.00     0.136 C 
HETATM    6  N6  UNL     1      53.075  75.912  20.870  1.00  0.00    -0.188 NA
ENDROOT
BRANCH   1   7
HETATM    7  N4  UNL     1      55.772  74.961  19.131  1.00  0.00    -0.273 N 
HETATM    8  C6  UNL     1      56.444  73.654  19.554  1.00  0.00     0.419 C 
HETATM    9  N3  UNL     1      56.918  73.531  20.813  1.00  0.00    -0.254 NA
HETATM   10  O3  UNL     1      56.434  72.821  18.580  1.00  0.00    -0.228 OA
ATOM     11  H4  UNL     1      56.234  75.867  19.058  1.00  0.00     0.174 HD
BRANCH   9  12
HETATM   12  N2  UNL     1      57.388  73.372  22.014  1.00  0.00    -0.151 N 
ATOM     13  H2  UNL     1      57.187  74.047  22.753  1.00  0.00     0.215 HD
BRANCH  12  14
HETATM   14  S1  UNL     1      58.353  71.994  22.314  1.00  0.00     0.286 S 
HETATM   15  O1  UNL     1      59.417  72.161  23.348  1.00  0.00    -0.198 OA
HETATM   16  O2  UNL     1      59.148  71.710  21.026  1.00  0.00    -0.198 OA
BRANCH  14  17
HETATM   17  C5  UNL     1      57.406  70.644  22.760  1.00  0.00     0.082 A 
HETATM   18  C4  UNL     1      57.607  69.411  22.113  1.00  0.00     0.027 A 
HETATM   19  C3  UNL     1      56.960  68.303  22.587  1.00  0.00     0.030 A 
HETATM   20  C2  UNL     1      56.115  68.297  23.687  1.00  0.00     0.027 A 
HETATM   21  C10 UNL     1      55.921  69.535  24.343  1.00  0.00     0.030 A 
HETATM   22  C9  UNL     1      56.592  70.620  23.823  1.00  0.00     0.027 A 
BRANCH  20  23
HETATM   23  N1  UNL     1      55.501  67.178  24.196  1.00  0.00    -0.394 N 
HETATM   24  C1  UNL     1      56.226  65.902  24.045  1.00  0.00     0.146 C 
ATOM     25  H1  UNL     1      54.591  67.227  24.654  1.00  0.00     0.159 HD
ENDBRANCH  20  23
ENDBRANCH  14  17
ENDBRANCH  12  14
ENDBRANCH   9  12
ENDBRANCH   1   7
TORSDOF 5
ENDMDL
MODEL 5
REMARK VINA RESULT: -8.114612379      2.035      2.701
REMARK  5 active torsions:
REMARK  status: ('A' for Active; 'I' for Inactive)
REMARK    1  A    between atoms: N1_2  and  C2_4 
REMARK    2  A    between atoms: C5_7  and  S1_8 
REMARK    3  A    between atoms: S1_8  and  N2_11 
REMARK    4  A    between atoms: N2_11  and  N3_13 
REMARK       I    between atoms: N3_13  and  C6_14 
REMARK       I    between atoms: C6_14  and  N4_16 
REMARK    5  A    between atoms: N4_16  and  C7_18 
ROOT
HETATM    1  C7  UNL     1      55.754  74.499  20.208  1.00  0.00     0.186 C 
HETATM    2  N5  UNL     1      56.147  74.934  19.015  1.00  0.00    -0.377 N 
ATOM      3  H51 UNL     1      55.755  75.391  18.191  1.00  0.00     0.158 HD
ATOM      4  H52 UNL     1      57.075  74.580  18.785  1.00  0.00     0.158 HD
HETATM    5  C8  UNL     1      54.345  75.035  20.556  1.00  0.00     0.136 C 
HETATM    6  N6  UNL     1      53.300  75.491  20.902  1.00  0.00    -0.188 NA
ENDROOT
BRANCH   1   7
HETATM    7  N4  UNL     1      56.242  73.930  21.232  1.00  0.00    -0.273 N 
HETATM    8  C6  UNL     1      57.168  72.798  20.784  1.00  0.00     0.419 C 
HETATM    9  N3  UNL     1      56.839  71.520  21.075  1.00  0.00    -0.254 NA
HETATM   10  O3  UNL     1      58.169  73.278  20.145  1.00  0.00    -0.228 OA
ATOM     11  H4  UNL     1      56.048  74.187  22.200  1.00  0.00     0.174 HD
BRANCH   9  12
HETATM   12  N2  UNL     1      56.560  70.278  21.335  1.00  0.00    -0.151 N 
ATOM     13  H2  UNL     1      56.554  69.573  20.598  1.00  0.00     0.215 HD
BRANCH  12  14
HETATM   14  S1  UNL     1      56.202  69.867  22.955  1.00  0.00     0.286 S 
HETATM   15  O1  UNL     1      54.848  70.267  23.440  1.00  0.00    -0.198 OA
HETATM   16  O2  UNL     1      57.157  70.680  23.849  1.00  0.00    -0.198 OA
BRANCH  14  17
HETATM   17  C5  UNL     1      56.377  68.190  23.235  1.00  0.00     0.082 A 
HETATM   18  C4  UNL     1      55.853  67.626  24.412  1.00  0.00     0.027 A 
HETATM   19  C3  UNL     1      55.856  66.264  24.549  1.00  0.00     0.030 A 
HETATM   20  C2  UNL     1      56.332  65.380  23.593  1.00  0.00     0.027 A 
HETATM   21  C10 UNL     1      56.851  65.948  22.406  1.00  0.00     0.030 A 
HETATM   22  C9  UNL     1      56.828  67.323  22.321  1.00  0.00     0.027 A 
BRANCH  20  23
HETATM   23  N1  UNL     1      56.294  64.011  23.706  1.00  0.00    -0.394 N 
HETATM   24  C1  UNL     1      56.456  63.241  22.459  1.00  0.00     0.146 C 
ATOM     25  H1  UNL     1      56.160  63.550  24.607  1.00  0.00     0.159 HD
ENDBRANCH  20  23
ENDBRANCH  14  17
ENDBRANCH  12  14
ENDBRANCH   9  12
ENDBRANCH   1   7
TORSDOF 5
ENDMDL
