MODEL 1
REMARK VINA RESULT: -8.094769712      0.000      0.000
REMARK  8 active torsions:
REMARK  status: ('A' for Active; 'I' for Inactive)
REMARK       I    between atoms: N1_8  and  C8_9 
REMARK    1  A    between atoms: C8_9  and  C9_11 
REMARK    2  A    between atoms: C9_11  and  O2_13 
REMARK    3  A    between atoms: C9_11  and  C11_15 
REMARK    4  A    between atoms: C11_15  and  O3_16 
REMARK    5  A    between atoms: C11_15  and  C12_18 
REMARK    6  A    between atoms: C12_18  and  O4_20 
REMARK    7  A    between atoms: C12_18  and  C14_22 
REMARK    8  A    between atoms: C14_22  and  O5_23 
ROOT
HETATM    1  C1  UNL     1      56.122  68.090  22.567  1.00  0.00     0.017 C 
HETATM    2  C2  UNL     1      56.621  69.171  22.380  1.00  0.00    -0.081 C 
HETATM    3  C3  UNL     1      57.217  70.475  22.179  1.00  0.00     0.011 C 
HETATM    4  C4  UNL     1      58.090  71.016  22.992  1.00  0.00     0.021 C 
HETATM    5  C5  UNL     1      58.471  72.326  22.474  1.00  0.00     0.047 C 
HETATM    6  C6  UNL     1      59.919  72.345  22.045  1.00  0.00     0.043 C 
HETATM    7  C7  UNL     1      58.297  73.338  23.598  1.00  0.00     0.043 C 
HETATM    8  N1  UNL     1      57.577  72.606  21.369  1.00  0.00    -0.333 N 
HETATM    9  C8  UNL     1      57.411  73.891  20.764  1.00  0.00     0.258 C 
HETATM   10  O1  UNL     1      58.059  74.889  21.228  1.00  0.00    -0.270 OA
HETATM   11  C15 UNL     1      56.913  71.372  21.035  1.00  0.00     0.174 C 
ENDROOT
BRANCH   9  12
HETATM   12  C9  UNL     1      56.517  74.142  19.611  1.00  0.00     0.163 C 
HETATM   13  C10 UNL     1      56.718  72.941  18.699  1.00  0.00     0.059 C 
BRANCH  12  14
HETATM   14  O2  UNL     1      56.957  75.308  19.013  1.00  0.00    -0.378 OA
ATOM     15  H2  UNL     1      56.436  75.426  18.227  1.00  0.00     0.211 HD
ENDBRANCH  12  14
BRANCH  12  16
HETATM   16  C11 UNL     1      55.142  74.192  20.142  1.00  0.00     0.197 C 
BRANCH  16  17
HETATM   17  O3  UNL     1      55.280  74.682  21.479  1.00  0.00    -0.389 OA
ATOM     18  H3  UNL     1      55.307  73.904  22.024  1.00  0.00     0.210 HD
ENDBRANCH  16  17
BRANCH  16  19
HETATM   19  C12 UNL     1      54.047  74.863  19.474  1.00  0.00     0.104 C 
HETATM   20  C13 UNL     1      53.425  76.008  20.272  1.00  0.00     0.051 C 
BRANCH  19  21
HETATM   21  O4  UNL     1      54.659  75.577  18.379  1.00  0.00    -0.385 OA
ATOM     22  H4  UNL     1      54.109  76.341  18.246  1.00  0.00     0.210 HD
ENDBRANCH  19  21
BRANCH  19  23
HETATM   23  C14 UNL     1      52.941  74.123  18.843  1.00  0.00     0.204 C 
BRANCH  23  24
HETATM   24  O5  UNL     1      52.730  74.343  17.495  1.00  0.00    -0.398 OA
ATOM     25  H5  UNL     1      53.463  74.180  16.913  1.00  0.00     0.209 HD
ENDBRANCH  23  24
ENDBRANCH  19  23
ENDBRANCH  16  19
ENDBRANCH  12  16
ENDBRANCH   9  12
TORSDOF 8
ENDMDL
MODEL 2
REMARK VINA RESULT: -6.234949896      1.026      1.135
REMARK  8 active torsions:
REMARK  status: ('A' for Active; 'I' for Inactive)
REMARK       I    between atoms: N1_8  and  C8_9 
REMARK    1  A    between atoms: C8_9  and  C9_11 
REMARK    2  A    between atoms: C9_11  and  O2_13 
REMARK    3  A    between atoms: C9_11  and  C11_15 
REMARK    4  A    between atoms: C11_15  and  O3_16 
REMARK    5  A    between atoms: C11_15  and  C12_18 
REMARK    6  A    between atoms: C12_18  and  O4_20 
REMARK    7  A    between atoms: C12_18  and  C14_22 
REMARK    8  A    between atoms: C14_22  and  O5_23 
ROOT
HETATM    1  C1  UNL     1      55.838  68.317  23.617  1.00  0.00     0.017 C 
HETATM    2  C2  UNL     1      56.431  69.288  23.217  1.00  0.00    -0.081 C 
HETATM    3  C3  UNL     1      57.138  70.464  22.757  1.00  0.00     0.011 C 
HETATM    4  C4  UNL     1      58.014  71.121  23.476  1.00  0.00     0.021 C 
HETATM    5  C5  UNL     1      58.521  72.244  22.694  1.00  0.00     0.047 C 
HETATM    6  C6  UNL     1      59.984  72.063  22.363  1.00  0.00     0.043 C 
HETATM    7  C7  UNL     1      58.380  73.501  23.541  1.00  0.00     0.043 C 
HETATM    8  N1  UNL     1      57.703  72.316  21.501  1.00  0.00    -0.333 N 
HETATM    9  C8  UNL     1      57.668  73.431  20.607  1.00  0.00     0.258 C 
HETATM   10  O1  UNL     1      58.373  74.464  20.866  1.00  0.00    -0.270 OA
HETATM   11  C15 UNL     1      56.958  71.086  21.420  1.00  0.00     0.174 C 
ENDROOT
BRANCH   9  12
HETATM   12  C9  UNL     1      56.849  73.464  19.373  1.00  0.00     0.163 C 
HETATM   13  C10 UNL     1      56.057  72.165  19.401  1.00  0.00     0.059 C 
BRANCH  12  14
HETATM   14  O2  UNL     1      57.732  73.493  18.310  1.00  0.00    -0.378 OA
ATOM     15  H2  UNL     1      57.948  74.405  18.158  1.00  0.00     0.211 HD
ENDBRANCH  12  14
BRANCH  12  16
HETATM   16  C11 UNL     1      55.963  74.638  19.483  1.00  0.00     0.197 C 
BRANCH  16  17
HETATM   17  O3  UNL     1      56.674  75.699  18.836  1.00  0.00    -0.389 OA
ATOM     18  H3  UNL     1      56.930  76.286  19.538  1.00  0.00     0.210 HD
ENDBRANCH  16  17
BRANCH  16  19
HETATM   19  C12 UNL     1      54.577  74.639  19.067  1.00  0.00     0.104 C 
HETATM   20  C13 UNL     1      53.571  74.565  20.216  1.00  0.00     0.051 C 
BRANCH  19  21
HETATM   21  O4  UNL     1      54.338  75.971  18.565  1.00  0.00    -0.385 OA
ATOM     22  H4  UNL     1      55.194  76.381  18.539  1.00  0.00     0.210 HD
ENDBRANCH  19  21
BRANCH  19  23
HETATM   23  C14 UNL     1      54.077  73.760  17.996  1.00  0.00     0.204 C 
BRANCH  23  24
HETATM   24  O5  UNL     1      52.730  73.839  17.699  1.00  0.00    -0.398 OA
ATOM     25  H5  UNL     1      52.498  74.169  16.840  1.00  0.00     0.209 HD
ENDBRANCH  23  24
ENDBRANCH  19  23
ENDBRANCH  16  19
ENDBRANCH  12  16
ENDBRANCH   9  12
TORSDOF 8
ENDMDL
MODEL 3
REMARK VINA RESULT: -5.825037426      3.318      4.952
REMARK  8 active torsions:
REMARK  status: ('A' for Active; 'I' for Inactive)
REMARK       I    between atoms: N1_8  and  C8_9 
REMARK    1  A    between atoms: C8_9  and  C9_11 
REMARK    2  A    between atoms: C9_11  and  O2_13 
REMARK    3  A    between atoms: C9_11  and  C11_15 
REMARK    4  A    between atoms: C11_15  and  O3_16 
REMARK    5  A    between atoms: C11_15  and  C12_18 
REMARK    6  A    between atoms: C12_18  and  O4_20 
REMARK    7  A    between atoms: C12_18  and  C14_22 
REMARK    8  A    between atoms: C14_22  and  O5_23 
ROOT
HETATM    1  C1  UNL     1      57.446  65.078  21.968  1.00  0.00     0.017 C 
HETATM    2  C2  UNL     1      57.151  66.177  22.367  1.00  0.00    -0.081 C 
HETATM    3  C3  UNL     1      56.772  67.492  22.839  1.00  0.00     0.011 C 
HETATM    4  C4  UNL     1      55.746  67.724  23.620  1.00  0.00     0.021 C 
HETATM    5  C5  UNL     1      55.672  69.156  23.890  1.00  0.00     0.047 C 
HETATM    6  C6  UNL     1      55.944  69.452  25.347  1.00  0.00     0.043 C 
HETATM    7  C7  UNL     1      54.256  69.616  23.572  1.00  0.00     0.043 C 
HETATM    8  N1  UNL     1      56.641  69.789  23.021  1.00  0.00    -0.333 N 
HETATM    9  C8  UNL     1      56.699  71.193  22.754  1.00  0.00     0.258 C 
HETATM   10  O1  UNL     1      55.829  71.966  23.281  1.00  0.00    -0.270 OA
HETATM   11  C15 UNL     1      57.487  68.748  22.496  1.00  0.00     0.174 C 
ENDROOT
BRANCH   9  12
HETATM   12  C9  UNL     1      57.724  71.819  21.889  1.00  0.00     0.163 C 
HETATM   13  C10 UNL     1      57.077  71.889  20.513  1.00  0.00     0.059 C 
BRANCH  12  14
HETATM   14  O2  UNL     1      58.817  70.973  21.889  1.00  0.00    -0.378 OA
ATOM     15  H2  UNL     1      58.640  70.297  22.533  1.00  0.00     0.211 HD
ENDBRANCH  12  14
BRANCH  12  16
HETATM   16  C11 UNL     1      57.976  73.166  22.435  1.00  0.00     0.197 C 
BRANCH  16  17
HETATM   17  O3  UNL     1      58.277  72.954  23.818  1.00  0.00    -0.389 OA
ATOM     18  H3  UNL     1      59.225  72.991  23.872  1.00  0.00     0.210 HD
ENDBRANCH  16  17
BRANCH  16  19
HETATM   19  C12 UNL     1      58.915  74.104  21.857  1.00  0.00     0.104 C 
HETATM   20  C13 UNL     1      58.448  74.745  20.551  1.00  0.00     0.051 C 
BRANCH  19  21
HETATM   21  O4  UNL     1      58.909  75.238  22.750  1.00  0.00    -0.385 OA
ATOM     22  H4  UNL     1      59.398  74.953  23.513  1.00  0.00     0.210 HD
ENDBRANCH  19  21
BRANCH  19  23
HETATM   23  C14 UNL     1      60.345  73.786  21.697  1.00  0.00     0.204 C 
BRANCH  23  24
HETATM   24  O5  UNL     1      60.955  73.109  22.734  1.00  0.00    -0.398 OA
ATOM     25  H5  UNL     1      61.795  72.706  22.550  1.00  0.00     0.209 HD
ENDBRANCH  23  24
ENDBRANCH  19  23
ENDBRANCH  16  19
ENDBRANCH  12  16
ENDBRANCH   9  12
TORSDOF 8
ENDMDL
MODEL 4
REMARK VINA RESULT: -5.529151684      2.796      5.737
REMARK  8 active torsions:
REMARK  status: ('A' for Active; 'I' for Inactive)
REMARK       I    between atoms: N1_8  and  C8_9 
REMARK    1  A    between atoms: C8_9  and  C9_11 
REMARK    2  A    between atoms: C9_11  and  O2_13 
REMARK    3  A    between atoms: C9_11  and  C11_15 
REMARK    4  A    between atoms: C11_15  and  O3_16 
REMARK    5  A    between atoms: C11_15  and  C12_18 
REMARK    6  A    between atoms: C12_18  and  O4_20 
REMARK    7  A    between atoms: C12_18  and  C14_22 
REMARK    8  A    between atoms: C14_22  and  O5_23 
ROOT
HETATM    1  C1  UNL     1      53.116  75.767  20.701  1.00  0.00     0.017 C 
HETATM    2  C2  UNL     1      54.195  75.230  20.668  1.00  0.00    -0.081 C 
HETATM    3  C3  UNL     1      55.487  74.579  20.605  1.00  0.00     0.011 C 
HETATM    4  C4  UNL     1      56.320  74.698  19.601  1.00  0.00     0.021 C 
HETATM    5  C5  UNL     1      57.515  73.908  19.883  1.00  0.00     0.047 C 
HETATM    6  C6  UNL     1      58.724  74.794  20.069  1.00  0.00     0.043 C 
HETATM    7  C7  UNL     1      57.769  73.007  18.682  1.00  0.00     0.043 C 
HETATM    8  N1  UNL     1      57.225  73.134  21.072  1.00  0.00    -0.333 N 
HETATM    9  C8  UNL     1      58.002  72.025  21.529  1.00  0.00     0.258 C 
HETATM   10  O1  UNL     1      59.012  71.644  20.846  1.00  0.00    -0.270 OA
HETATM   11  C15 UNL     1      56.032  73.688  21.661  1.00  0.00     0.174 C 
ENDROOT
BRANCH   9  12
HETATM   12  C9  UNL     1      57.704  71.273  22.769  1.00  0.00     0.163 C 
HETATM   13  C10 UNL     1      57.680  72.329  23.864  1.00  0.00     0.059 C 
BRANCH  12  14
HETATM   14  O2  UNL     1      58.742  70.379  22.953  1.00  0.00    -0.378 OA
ATOM     15  H2  UNL     1      58.406  69.519  22.733  1.00  0.00     0.211 HD
ENDBRANCH  12  14
BRANCH  12  16
HETATM   16  C11 UNL     1      56.375  70.658  22.585  1.00  0.00     0.197 C 
BRANCH  16  17
HETATM   17  O3  UNL     1      56.393  70.134  21.253  1.00  0.00    -0.389 OA
ATOM     18  H3  UNL     1      56.242  70.885  20.691  1.00  0.00     0.210 HD
ENDBRANCH  16  17
BRANCH  16  19
HETATM   19  C12 UNL     1      55.805  69.689  23.497  1.00  0.00     0.104 C 
HETATM   20  C13 UNL     1      55.939  70.055  24.974  1.00  0.00     0.051 C 
BRANCH  19  21
HETATM   21  O4  UNL     1      54.378  69.790  23.306  1.00  0.00    -0.385 OA
ATOM     22  H4  UNL     1      54.143  70.641  23.658  1.00  0.00     0.210 HD
ENDBRANCH  19  21
BRANCH  19  23
HETATM   23  C14 UNL     1      56.078  68.246  23.381  1.00  0.00     0.204 C 
BRANCH  23  24
HETATM   24  O5  UNL     1      57.235  67.880  22.721  1.00  0.00    -0.398 OA
ATOM     25  H5  UNL     1      57.651  68.542  22.182  1.00  0.00     0.209 HD
ENDBRANCH  23  24
ENDBRANCH  19  23
ENDBRANCH  16  19
ENDBRANCH  12  16
ENDBRANCH   9  12
TORSDOF 8
ENDMDL
MODEL 5
REMARK VINA RESULT: -5.470767874      2.601      4.469
REMARK  8 active torsions:
REMARK  status: ('A' for Active; 'I' for Inactive)
REMARK       I    between atoms: N1_8  and  C8_9 
REMARK    1  A    between atoms: C8_9  and  C9_11 
REMARK    2  A    between atoms: C9_11  and  O2_13 
REMARK    3  A    between atoms: C9_11  and  C11_15 
REMARK    4  A    between atoms: C11_15  and  O3_16 
REMARK    5  A    between atoms: C11_15  and  C12_18 
REMARK    6  A    between atoms: C12_18  and  O4_20 
REMARK    7  A    between atoms: C12_18  and  C14_22 
REMARK    8  A    between atoms: C14_22  and  O5_23 
ROOT
HETATM    1  C1  UNL     1      57.216  65.284  21.912  1.00  0.00     0.017 C 
HETATM    2  C2  UNL     1      57.026  66.389  22.354  1.00  0.00    -0.081 C 
HETATM    3  C3  UNL     1      56.774  67.716  22.875  1.00  0.00     0.011 C 
HETATM    4  C4  UNL     1      55.701  68.047  23.551  1.00  0.00     0.021 C 
HETATM    5  C5  UNL     1      55.788  69.457  23.916  1.00  0.00     0.047 C 
HETATM    6  C6  UNL     1      55.920  69.628  25.411  1.00  0.00     0.043 C 
HETATM    7  C7  UNL     1      54.497  70.132  23.474  1.00  0.00     0.043 C 
HETATM    8  N1  UNL     1      56.933  69.994  23.209  1.00  0.00    -0.333 N 
HETATM    9  C8  UNL     1      57.212  71.387  23.054  1.00  0.00     0.258 C 
HETATM   10  O1  UNL     1      56.397  72.246  23.534  1.00  0.00    -0.270 OA
HETATM   11  C15 UNL     1      57.688  68.874  22.708  1.00  0.00     0.174 C 
ENDROOT
BRANCH   9  12
HETATM   12  C9  UNL     1      58.409  71.909  22.357  1.00  0.00     0.163 C 
HETATM   13  C10 UNL     1      59.281  70.685  22.118  1.00  0.00     0.059 C 
BRANCH  12  14
HETATM   14  O2  UNL     1      59.017  72.800  23.222  1.00  0.00    -0.378 OA
ATOM     15  H2  UNL     1      59.448  73.454  22.684  1.00  0.00     0.211 HD
ENDBRANCH  12  14
BRANCH  12  16
HETATM   16  C11 UNL     1      57.941  72.493  21.086  1.00  0.00     0.197 C 
BRANCH  16  17
HETATM   17  O3  UNL     1      56.635  71.943  20.886  1.00  0.00    -0.389 OA
ATOM     18  H3  UNL     1      56.785  71.091  20.493  1.00  0.00     0.210 HD
ENDBRANCH  16  17
BRANCH  16  19
HETATM   19  C12 UNL     1      57.933  73.914  20.809  1.00  0.00     0.104 C 
HETATM   20  C13 UNL     1      57.091  74.319  19.599  1.00  0.00     0.051 C 
BRANCH  19  21
HETATM   21  O4  UNL     1      57.179  74.501  21.891  1.00  0.00    -0.385 OA
ATOM     22  H4  UNL     1      57.459  75.408  21.921  1.00  0.00     0.210 HD
ENDBRANCH  19  21
BRANCH  19  23
HETATM   23  C14 UNL     1      59.170  74.712  20.763  1.00  0.00     0.204 C 
BRANCH  23  24
HETATM   24  O5  UNL     1      60.363  74.016  20.731  1.00  0.00    -0.398 OA
ATOM     25  H5  UNL     1      61.007  74.236  21.393  1.00  0.00     0.209 HD
ENDBRANCH  23  24
ENDBRANCH  19  23
ENDBRANCH  16  19
ENDBRANCH  12  16
ENDBRANCH   9  12
TORSDOF 8
ENDMDL
