MODEL 1
REMARK VINA RESULT: -6.692485459      0.000      0.000
REMARK  6 active torsions:
REMARK  status: ('A' for Active; 'I' for Inactive)
REMARK       I    between atoms: N1_2  and  C2_4 
REMARK    1  A    between atoms: C2_4  and  C3_6 
REMARK    2  A    between atoms: C4_7  and  C5_8 
REMARK    3  A    between atoms: C6_10  and  N2_11 
REMARK    4  A    between atoms: N2_11  and  N3_13 
REMARK    5  A    between atoms: N3_13  and  S2_15 
REMARK    6  A    between atoms: S2_15  and  N4_17 
ROOT
HETATM    1  C5  UNL     1      57.394  71.153  22.359  1.00  0.00     0.030 A 
HETATM    2  S1  UNL     1      56.255  71.943  21.365  1.00  0.00    -0.051 SA
HETATM    3  C6  UNL     1      56.921  73.506  21.419  1.00  0.00     0.164 A 
HETATM    4  N5  UNL     1      57.988  73.360  22.196  1.00  0.00    -0.338 N 
ATOM      5  H5  UNL     1      58.591  74.156  22.408  1.00  0.00     0.168 HD
HETATM    6  C8  UNL     1      58.248  72.171  22.686  1.00  0.00     0.024 A 
HETATM    7  C9  UNL     1      59.438  71.863  23.591  1.00  0.00     0.069 C 
ENDROOT
BRANCH   3   8
HETATM    8  N2  UNL     1      56.459  74.569  20.822  1.00  0.00    -0.271 N 
ATOM      9  H2  UNL     1      56.621  75.477  21.259  1.00  0.00     0.189 HD
BRANCH   8  10
HETATM   10  N3  UNL     1      55.766  74.532  19.637  1.00  0.00    -0.242 N 
ATOM     11  H3  UNL     1      56.198  74.334  18.735  1.00  0.00     0.198 HD
BRANCH  10  12
HETATM   12  S2  UNL     1      53.816  74.909  19.875  1.00  0.00     0.114 S 
HETATM   13  C7  UNL     1      53.487  76.257  21.154  1.00  0.00     0.161 C 
HETATM   14  O2  UNL     1      52.625  73.887  19.168  1.00  0.00    -0.228 OA
BRANCH  12  15
HETATM   15  N4  UNL     1      53.902  75.885  18.440  1.00  0.00    -0.344 N 
ATOM     16  H42 UNL     1      54.647  76.210  17.822  1.00  0.00     0.167 HD
ATOM     17  H41 UNL     1      52.889  75.983  18.496  1.00  0.00     0.167 HD
ENDBRANCH  12  15
ENDBRANCH  10  12
ENDBRANCH   8  10
ENDBRANCH   3   8
BRANCH   1  18
HETATM   18  C4  UNL     1      57.439  69.735  22.760  1.00  0.00     0.026 C 
HETATM   19  C3  UNL     1      56.320  69.039  22.745  1.00  0.00     0.075 C 
BRANCH  19  20
HETATM   20  C2  UNL     1      56.311  67.641  23.129  1.00  0.00     0.240 C 
HETATM   21  N1  UNL     1      56.894  66.642  22.310  1.00  0.00    -0.362 N 
HETATM   22  C1  UNL     1      56.883  65.249  22.692  1.00  0.00     0.149 C 
ATOM     23  H1  UNL     1      57.333  66.914  21.429  1.00  0.00     0.162 HD
HETATM   24  O1  UNL     1      55.778  67.305  24.201  1.00  0.00    -0.269 OA
ENDBRANCH  19  20
ENDBRANCH   1  18
TORSDOF 6
ENDMDL
MODEL 2
REMARK VINA RESULT: -6.504708683      3.459      4.278
REMARK  6 active torsions:
REMARK  status: ('A' for Active; 'I' for Inactive)
REMARK       I    between atoms: N1_2  and  C2_4 
REMARK    1  A    between atoms: C2_4  and  C3_6 
REMARK    2  A    between atoms: C4_7  and  C5_8 
REMARK    3  A    between atoms: C6_10  and  N2_11 
REMARK    4  A    between atoms: N2_11  and  N3_13 
REMARK    5  A    between atoms: N3_13  and  S2_15 
REMARK    6  A    between atoms: S2_15  and  N4_17 
ROOT
HETATM    1  C5  UNL     1      56.177  68.730  23.370  1.00  0.00     0.030 A 
HETATM    2  S1  UNL     1      56.636  69.251  21.812  1.00  0.00    -0.051 SA
HETATM    3  C6  UNL     1      56.495  70.926  22.058  1.00  0.00     0.164 A 
HETATM    4  N5  UNL     1      56.101  71.020  23.323  1.00  0.00    -0.338 N 
ATOM      5  H5  UNL     1      55.933  71.931  23.751  1.00  0.00     0.168 HD
HETATM    6  C8  UNL     1      55.933  69.915  24.011  1.00  0.00     0.024 A 
HETATM    7  C9  UNL     1      55.484  69.877  25.469  1.00  0.00     0.069 C 
ENDROOT
BRANCH   3   8
HETATM    8  N2  UNL     1      56.728  71.864  21.183  1.00  0.00    -0.271 N 
ATOM      9  H2  UNL     1      55.932  72.369  20.793  1.00  0.00     0.189 HD
BRANCH   8  10
HETATM   10  N3  UNL     1      57.988  72.206  20.757  1.00  0.00    -0.242 N 
ATOM     11  H3  UNL     1      58.376  71.927  19.856  1.00  0.00     0.198 HD
BRANCH  10  12
HETATM   12  S2  UNL     1      58.978  73.310  22.099  1.00  0.00     0.114 S 
HETATM   13  C7  UNL     1      60.235  72.305  23.084  1.00  0.00     0.161 C 
HETATM   14  O2  UNL     1      58.488  74.922  22.452  1.00  0.00    -0.228 OA
BRANCH  12  15
HETATM   15  N4  UNL     1      59.995  73.851  20.797  1.00  0.00    -0.344 N 
ATOM     16  H42 UNL     1      60.873  73.541  20.380  1.00  0.00     0.167 HD
ATOM     17  H41 UNL     1      59.327  74.606  20.644  1.00  0.00     0.167 HD
ENDBRANCH  12  15
ENDBRANCH  10  12
ENDBRANCH   8  10
ENDBRANCH   3   8
BRANCH   1  18
HETATM   18  C4  UNL     1      56.071  67.353  23.886  1.00  0.00     0.026 C 
HETATM   19  C3  UNL     1      56.777  66.405  23.305  1.00  0.00     0.075 C 
BRANCH  19  20
HETATM   20  C2  UNL     1      56.709  65.034  23.775  1.00  0.00     0.240 C 
HETATM   21  N1  UNL     1      56.007  64.036  23.055  1.00  0.00    -0.362 N 
HETATM   22  C1  UNL     1      55.939  62.671  23.524  1.00  0.00     0.149 C 
ATOM     23  H1  UNL     1      55.538  64.287  22.184  1.00  0.00     0.162 HD
HETATM   24  O1  UNL     1      57.279  64.723  24.835  1.00  0.00    -0.269 OA
ENDBRANCH  19  20
ENDBRANCH   1  18
TORSDOF 6
ENDMDL
MODEL 3
REMARK VINA RESULT: -6.383920694      2.465      3.073
REMARK  6 active torsions:
REMARK  status: ('A' for Active; 'I' for Inactive)
REMARK       I    between atoms: N1_2  and  C2_4 
REMARK    1  A    between atoms: C2_4  and  C3_6 
REMARK    2  A    between atoms: C4_7  and  C5_8 
REMARK    3  A    between atoms: C6_10  and  N2_11 
REMARK    4  A    between atoms: N2_11  and  N3_13 
REMARK    5  A    between atoms: N3_13  and  S2_15 
REMARK    6  A    between atoms: S2_15  and  N4_17 
ROOT
HETATM    1  C5  UNL     1      56.330  68.874  23.071  1.00  0.00     0.030 A 
HETATM    2  S1  UNL     1      56.905  69.507  21.595  1.00  0.00    -0.051 SA
HETATM    3  C6  UNL     1      56.764  71.160  21.962  1.00  0.00     0.164 A 
HETATM    4  N5  UNL     1      56.282  71.161  23.200  1.00  0.00    -0.338 N 
ATOM      5  H5  UNL     1      56.094  72.039  23.685  1.00  0.00     0.168 HD
HETATM    6  C8  UNL     1      56.054  70.009  23.784  1.00  0.00     0.024 A 
HETATM    7  C9  UNL     1      55.502  69.865  25.200  1.00  0.00     0.069 C 
ENDROOT
BRANCH   3   8
HETATM    8  N2  UNL     1      57.069  72.159  21.182  1.00  0.00    -0.271 N 
ATOM      9  H2  UNL     1      58.016  72.206  20.806  1.00  0.00     0.189 HD
BRANCH   8  10
HETATM   10  N3  UNL     1      56.183  73.151  20.841  1.00  0.00    -0.242 N 
ATOM     11  H3  UNL     1      55.569  73.616  21.509  1.00  0.00     0.198 HD
BRANCH  10  12
HETATM   12  S2  UNL     1      56.228  73.583  18.888  1.00  0.00     0.114 S 
HETATM   13  C7  UNL     1      54.550  74.138  18.227  1.00  0.00     0.161 C 
HETATM   14  O2  UNL     1      57.605  73.199  17.929  1.00  0.00    -0.228 OA
BRANCH  12  15
HETATM   15  N4  UNL     1      56.897  75.128  19.318  1.00  0.00    -0.344 N 
ATOM     16  H42 UNL     1      57.626  75.457  19.952  1.00  0.00     0.167 HD
ATOM     17  H41 UNL     1      56.240  75.549  18.661  1.00  0.00     0.167 HD
ENDBRANCH  12  15
ENDBRANCH  10  12
ENDBRANCH   8  10
ENDBRANCH   3   8
BRANCH   1  18
HETATM   18  C4  UNL     1      56.174  67.463  23.469  1.00  0.00     0.026 C 
HETATM   19  C3  UNL     1      56.687  66.528  22.695  1.00  0.00     0.075 C 
BRANCH  19  20
HETATM   20  C2  UNL     1      56.561  65.125  23.042  1.00  0.00     0.240 C 
HETATM   21  N1  UNL     1      56.805  64.101  22.092  1.00  0.00    -0.362 N 
HETATM   22  C1  UNL     1      56.679  62.704  22.438  1.00  0.00     0.149 C 
ATOM     23  H1  UNL     1      57.076  64.357  21.142  1.00  0.00     0.162 HD
HETATM   24  O1  UNL     1      56.232  64.808  24.197  1.00  0.00    -0.269 OA
ENDBRANCH  19  20
ENDBRANCH   1  18
TORSDOF 6
ENDMDL
MODEL 4
REMARK VINA RESULT: -6.377743767      3.839      8.737
REMARK  6 active torsions:
REMARK  status: ('A' for Active; 'I' for Inactive)
REMARK       I    between atoms: N1_2  and  C2_4 
REMARK    1  A    between atoms: C2_4  and  C3_6 
REMARK    2  A    between atoms: C4_7  and  C5_8 
REMARK    3  A    between atoms: C6_10  and  N2_11 
REMARK    4  A    between atoms: N2_11  and  N3_13 
REMARK    5  A    between atoms: N3_13  and  S2_15 
REMARK    6  A    between atoms: S2_15  and  N4_17 
ROOT
HETATM    1  C5  UNL     1      56.440  68.932  22.610  1.00  0.00     0.030 A 
HETATM    2  S1  UNL     1      56.833  67.281  22.435  1.00  0.00    -0.051 SA
HETATM    3  C6  UNL     1      56.229  66.723  23.921  1.00  0.00     0.164 A 
HETATM    4  N5  UNL     1      55.751  67.823  24.493  1.00  0.00    -0.338 N 
ATOM      5  H5  UNL     1      55.319  67.784  25.417  1.00  0.00     0.168 HD
HETATM    6  C8  UNL     1      55.847  68.959  23.844  1.00  0.00     0.024 A 
HETATM    7  C9  UNL     1      55.342  70.295  24.382  1.00  0.00     0.069 C 
ENDROOT
BRANCH   3   8
HETATM    8  N2  UNL     1      56.250  65.494  24.358  1.00  0.00    -0.271 N 
ATOM      9  H2  UNL     1      55.507  65.194  24.989  1.00  0.00     0.189 HD
BRANCH   8  10
HETATM   10  N3  UNL     1      57.219  64.585  24.013  1.00  0.00    -0.242 N 
ATOM     11  H3  UNL     1      58.217  64.796  24.007  1.00  0.00     0.198 HD
BRANCH  10  12
HETATM   12  S2  UNL     1      56.459  62.801  23.524  1.00  0.00     0.114 S 
HETATM   13  C7  UNL     1      57.208  62.101  21.939  1.00  0.00     0.161 C 
HETATM   14  O2  UNL     1      55.085  62.169  24.346  1.00  0.00    -0.228 OA
BRANCH  12  15
HETATM   15  N4  UNL     1      57.541  62.100  24.690  1.00  0.00    -0.344 N 
ATOM     16  H42 UNL     1      58.483  61.709  24.668  1.00  0.00     0.167 HD
ATOM     17  H41 UNL     1      56.819  62.256  25.392  1.00  0.00     0.167 HD
ENDBRANCH  12  15
ENDBRANCH  10  12
ENDBRANCH   8  10
ENDBRANCH   3   8
BRANCH   1  18
HETATM   18  C4  UNL     1      56.682  70.041  21.669  1.00  0.00     0.026 C 
HETATM   19  C3  UNL     1      57.677  70.869  21.912  1.00  0.00     0.075 C 
BRANCH  19  20
HETATM   20  C2  UNL     1      57.958  71.975  21.016  1.00  0.00     0.240 C 
HETATM   21  N1  UNL     1      56.923  72.643  20.314  1.00  0.00    -0.362 N 
HETATM   22  C1  UNL     1      57.203  73.744  19.421  1.00  0.00     0.149 C 
ATOM     23  H1  UNL     1      55.957  72.338  20.441  1.00  0.00     0.162 HD
HETATM   24  O1  UNL     1      59.131  72.350  20.857  1.00  0.00    -0.269 OA
ENDBRANCH  19  20
ENDBRANCH   1  18
TORSDOF 6
ENDMDL
MODEL 5
REMARK VINA RESULT: -6.288065188      3.773      8.690
REMARK  6 active torsions:
REMARK  status: ('A' for Active; 'I' for Inactive)
REMARK       I    between atoms: N1_2  and  C2_4 
REMARK    1  A    between atoms: C2_4  and  C3_6 
REMARK    2  A    between atoms: C4_7  and  C5_8 
REMARK    3  A    between atoms: C6_10  and  N2_11 
REMARK    4  A    between atoms: N2_11  and  N3_13 
REMARK    5  A    between atoms: N3_13  and  S2_15 
REMARK    6  A    between atoms: S2_15  and  N4_17 
ROOT
HETATM    1  C5  UNL     1      56.430  68.971  22.631  1.00  0.00     0.030 A 
HETATM    2  S1  UNL     1      56.921  67.353  22.408  1.00  0.00    -0.051 SA
HETATM    3  C6  UNL     1      56.377  66.722  23.888  1.00  0.00     0.164 A 
HETATM    4  N5  UNL     1      55.842  67.775  24.495  1.00  0.00    -0.338 N 
ATOM      5  H5  UNL     1      55.428  67.687  25.423  1.00  0.00     0.168 HD
HETATM    6  C8  UNL     1      55.857  68.930  23.873  1.00  0.00     0.024 A 
HETATM    7  C9  UNL     1      55.279  70.219  24.453  1.00  0.00     0.069 C 
ENDROOT
BRANCH   3   8
HETATM    8  N2  UNL     1      56.482  65.486  24.293  1.00  0.00    -0.271 N 
ATOM      9  H2  UNL     1      55.717  64.844  24.086  1.00  0.00     0.189 HD
BRANCH   8  10
HETATM   10  N3  UNL     1      57.567  65.005  24.984  1.00  0.00    -0.242 N 
ATOM     11  H3  UNL     1      57.766  65.236  25.957  1.00  0.00     0.198 HD
BRANCH  10  12
HETATM   12  S2  UNL     1      58.715  63.804  23.870  1.00  0.00     0.114 S 
HETATM   13  C7  UNL     1      60.435  63.555  24.605  1.00  0.00     0.161 C 
HETATM   14  O2  UNL     1      58.219  63.318  22.295  1.00  0.00    -0.228 OA
BRANCH  12  15
HETATM   15  N4  UNL     1      57.890  62.459  24.599  1.00  0.00    -0.344 N 
ATOM     16  H42 UNL     1      58.159  61.675  25.194  1.00  0.00     0.167 HD
ATOM     17  H41 UNL     1      57.033  62.805  24.170  1.00  0.00     0.167 HD
ENDBRANCH  12  15
ENDBRANCH  10  12
ENDBRANCH   8  10
ENDBRANCH   3   8
BRANCH   1  18
HETATM   18  C4  UNL     1      56.587  70.115  21.715  1.00  0.00     0.026 C 
HETATM   19  C3  UNL     1      57.597  70.940  21.902  1.00  0.00     0.075 C 
BRANCH  19  20
HETATM   20  C2  UNL     1      57.797  72.080  21.028  1.00  0.00     0.240 C 
HETATM   21  N1  UNL     1      56.713  72.890  20.605  1.00  0.00    -0.362 N 
HETATM   22  C1  UNL     1      56.913  74.025  19.733  1.00  0.00     0.149 C 
ATOM     23  H1  UNL     1      55.769  72.666  20.922  1.00  0.00     0.162 HD
HETATM   24  O1  UNL     1      58.944  72.358  20.639  1.00  0.00    -0.269 OA
ENDBRANCH  19  20
ENDBRANCH   1  18
TORSDOF 6
ENDMDL
