MODEL 1
REMARK VINA RESULT: -4.311837433      0.000      0.000
REMARK  8 active torsions:
REMARK  status: ('A' for Active; 'I' for Inactive)
REMARK    1  A    between atoms: C3_3  and  C4_4 
REMARK    2  A    between atoms: C4_4  and  C5_5 
REMARK    3  A    between atoms: C7_9  and  O3_11 
REMARK    4  A    between atoms: C9_13  and  O4_14 
REMARK    5  A    between atoms: C9_13  and  N1_16 
REMARK    6  A    between atoms: N1_16  and  N2_18 
REMARK    7  A    between atoms: C10_23  and  O5_24 
REMARK    8  A    between atoms: C10_23  and  N4_26 
ROOT
HETATM    1  C1  UNL     1      58.314  65.641  25.068  1.00  0.00     0.012 C 
HETATM    2  C2  UNL     1      59.502  65.680  25.252  1.00  0.00    -0.116 C 
HETATM    3  C3  UNL     1      60.925  65.741  25.451  1.00  0.00     0.119 C 
ENDROOT
BRANCH   3   4
HETATM    4  C4  UNL     1      61.405  64.842  26.616  1.00  0.00     0.127 C 
HETATM    5  C6  UNL     1      60.547  65.288  27.784  1.00  0.00     0.069 C 
HETATM    6  C7  UNL     1      61.320  66.257  28.568  1.00  0.00     0.112 C 
HETATM    7  C8  UNL     1      60.704  67.633  28.640  1.00  0.00     0.051 C 
HETATM    8  C9  UNL     1      62.696  66.270  27.936  1.00  0.00     0.240 C 
HETATM    9  C10 UNL     1      62.809  65.144  26.958  1.00  0.00     0.331 C 
BRANCH   4  10
HETATM   10  C5  UNL     1      60.990  63.496  26.271  1.00  0.00     0.188 C 
HETATM   11  O1  UNL     1      60.269  62.799  27.026  1.00  0.00    -0.647 OA
HETATM   12  O2  UNL     1      61.346  62.860  25.085  1.00  0.00    -0.647 OA
ENDBRANCH   4  10
BRANCH   6  13
HETATM   13  O3  UNL     1      61.387  65.782  29.892  1.00  0.00    -0.385 OA
ATOM     14  H3  UNL     1      61.257  66.522  30.472  1.00  0.00     0.210 HD
ENDBRANCH   6  13
BRANCH   8  15
HETATM   15  O4  UNL     1      62.898  67.535  27.292  1.00  0.00    -0.363 OA
ATOM     16  H4  UNL     1      62.972  67.394  26.355  1.00  0.00     0.213 HD
ENDBRANCH   8  15
BRANCH   8  17
HETATM   17  N1  UNL     1      63.595  66.307  29.038  1.00  0.00    -0.281 N 
ATOM     18  H1  UNL     1      63.793  65.423  29.508  1.00  0.00     0.185 HD
BRANCH  17  19
HETATM   19  N2  UNL     1      64.154  67.311  29.471  1.00  0.00    -0.251 N 
HETATM   20  N3  UNL     1      64.797  68.048  30.242  1.00  0.00    -0.331 N 
ATOM     21  H32 UNL     1      64.946  67.359  30.980  1.00  0.00     0.178 HD
ATOM     22  H31 UNL     1      65.261  68.882  30.601  1.00  0.00     0.178 HD
ATOM     23  H2  UNL     1      63.977  67.960  28.705  1.00  0.00     0.207 HD
ENDBRANCH  17  19
ENDBRANCH   8  17
BRANCH   9  24
HETATM   24  O5  UNL     1      63.444  65.757  25.826  1.00  0.00    -0.358 OA
ATOM     25  H5  UNL     1      64.150  66.313  26.132  1.00  0.00     0.213 HD
ENDBRANCH   9  24
BRANCH   9  26
HETATM   26  N4  UNL     1      63.684  64.116  27.341  1.00  0.00     0.121 N 
HETATM   27  C11 UNL     1      63.139  63.069  28.161  1.00  0.00     0.313 C 
HETATM   28  C12 UNL     1      64.214  63.409  26.162  1.00  0.00     0.313 C 
ENDBRANCH   9  26
ENDBRANCH   3   4
TORSDOF 8
ENDMDL
MODEL 2
REMARK VINA RESULT: -3.784754070      3.084      4.946
REMARK  8 active torsions:
REMARK  status: ('A' for Active; 'I' for Inactive)
REMARK    1  A    between atoms: C3_3  and  C4_4 
REMARK    2  A    between atoms: C4_4  and  C5_5 
REMARK    3  A    between atoms: C7_9  and  O3_11 
REMARK    4  A    between atoms: C9_13  and  O4_14 
REMARK    5  A    between atoms: C9_13  and  N1_16 
REMARK    6  A    between atoms: N1_16  and  N2_18 
REMARK    7  A    between atoms: C10_23  and  O5_24 
REMARK    8  A    between atoms: C10_23  and  N4_26 
ROOT
HETATM    1  C1  UNL     1      64.241  62.710  24.956  1.00  0.00     0.012 C 
HETATM    2  C2  UNL     1      63.601  63.693  25.219  1.00  0.00    -0.116 C 
HETATM    3  C3  UNL     1      62.850  64.883  25.517  1.00  0.00     0.119 C 
ENDROOT
BRANCH   3   4
HETATM    4  C4  UNL     1      61.841  64.679  26.675  1.00  0.00     0.127 C 
HETATM    5  C6  UNL     1      61.193  63.347  26.350  1.00  0.00     0.069 C 
HETATM    6  C7  UNL     1      59.931  63.617  25.655  1.00  0.00     0.112 C 
HETATM    7  C8  UNL     1      59.865  63.071  24.249  1.00  0.00     0.051 C 
HETATM    8  C9  UNL     1      59.766  65.122  25.701  1.00  0.00     0.240 C 
HETATM    9  C10 UNL     1      60.784  65.709  26.627  1.00  0.00     0.331 C 
BRANCH   4  10
HETATM   10  C5  UNL     1      62.645  64.484  27.866  1.00  0.00     0.188 C 
HETATM   11  O1  UNL     1      63.506  65.317  28.242  1.00  0.00    -0.647 OA
HETATM   12  O2  UNL     1      62.538  63.370  28.693  1.00  0.00    -0.647 OA
ENDBRANCH   4  10
BRANCH   6  13
HETATM   13  O3  UNL     1      58.900  62.984  26.376  1.00  0.00    -0.385 OA
ATOM     14  H3  UNL     1      58.851  62.083  26.080  1.00  0.00     0.210 HD
ENDBRANCH   6  13
BRANCH   8  15
HETATM   15  O4  UNL     1      59.914  65.644  24.374  1.00  0.00    -0.363 OA
ATOM     16  H4  UNL     1      60.768  65.395  24.039  1.00  0.00     0.213 HD
ENDBRANCH   8  15
BRANCH   8  17
HETATM   17  N1  UNL     1      58.388  65.322  25.990  1.00  0.00    -0.281 N 
ATOM     18  H1  UNL     1      58.111  65.316  26.971  1.00  0.00     0.185 HD
BRANCH  17  19
HETATM   19  N2  UNL     1      57.503  65.502  25.158  1.00  0.00    -0.251 N 
HETATM   20  N3  UNL     1      56.692  66.102  24.427  1.00  0.00    -0.331 N 
ATOM     21  H32 UNL     1      56.933  67.049  24.724  1.00  0.00     0.178 HD
ATOM     22  H31 UNL     1      55.957  66.252  23.736  1.00  0.00     0.178 HD
ATOM     23  H2  UNL     1      57.301  64.537  24.897  1.00  0.00     0.207 HD
ENDBRANCH  17  19
ENDBRANCH   8  17
BRANCH   9  24
HETATM   24  O5  UNL     1      61.271  66.845  25.899  1.00  0.00    -0.358 OA
ATOM     25  H5  UNL     1      60.656  67.055  25.207  1.00  0.00     0.213 HD
ENDBRANCH   9  24
BRANCH   9  26
HETATM   26  N4  UNL     1      60.261  66.246  27.813  1.00  0.00     0.121 N 
HETATM   27  C11 UNL     1      60.273  65.397  28.973  1.00  0.00     0.313 C 
HETATM   28  C12 UNL     1      61.021  67.436  28.232  1.00  0.00     0.313 C 
ENDBRANCH   9  26
ENDBRANCH   3   4
TORSDOF 8
ENDMDL
MODEL 3
REMARK VINA RESULT: -3.712681653      0.855      1.164
REMARK  8 active torsions:
REMARK  status: ('A' for Active; 'I' for Inactive)
REMARK    1  A    between atoms: C3_3  and  C4_4 
REMARK    2  A    between atoms: C4_4  and  C5_5 
REMARK    3  A    between atoms: C7_9  and  O3_11 
REMARK    4  A    between atoms: C9_13  and  O4_14 
REMARK    5  A    between atoms: C9_13  and  N1_16 
REMARK    6  A    between atoms: N1_16  and  N2_18 
REMARK    7  A    between atoms: C10_23  and  O5_24 
REMARK    8  A    between atoms: C10_23  and  N4_26 
ROOT
HETATM    1  C1  UNL     1      57.597  65.741  24.617  1.00  0.00     0.012 C 
HETATM    2  C2  UNL     1      58.768  65.707  24.890  1.00  0.00    -0.116 C 
HETATM    3  C3  UNL     1      60.174  65.682  25.194  1.00  0.00     0.119 C 
ENDROOT
BRANCH   3   4
HETATM    4  C4  UNL     1      60.523  64.677  26.319  1.00  0.00     0.127 C 
HETATM    5  C6  UNL     1      59.849  65.267  27.543  1.00  0.00     0.069 C 
HETATM    6  C7  UNL     1      60.854  66.035  28.285  1.00  0.00     0.112 C 
HETATM    7  C8  UNL     1      60.545  67.508  28.408  1.00  0.00     0.051 C 
HETATM    8  C9  UNL     1      62.162  65.775  27.568  1.00  0.00     0.240 C 
HETATM    9  C10 UNL     1      61.977  64.672  26.575  1.00  0.00     0.331 C 
BRANCH   4  10
HETATM   10  C5  UNL     1      59.815  63.455  25.988  1.00  0.00     0.188 C 
HETATM   11  O1  UNL     1      58.919  62.976  26.724  1.00  0.00    -0.647 OA
HETATM   12  O2  UNL     1      60.060  62.711  24.838  1.00  0.00    -0.647 OA
ENDBRANCH   4  10
BRANCH   6  13
HETATM   13  O3  UNL     1      60.899  65.527  29.598  1.00  0.00    -0.385 OA
ATOM     14  H3  UNL     1      61.570  66.004  30.071  1.00  0.00     0.210 HD
ENDBRANCH   6  13
BRANCH   8  15
HETATM   15  O4  UNL     1      62.585  66.984  26.924  1.00  0.00    -0.363 OA
ATOM     16  H4  UNL     1      62.358  66.936  26.003  1.00  0.00     0.213 HD
ENDBRANCH   8  15
BRANCH   8  17
HETATM   17  N1  UNL     1      63.112  65.598  28.612  1.00  0.00    -0.281 N 
ATOM     18  H1  UNL     1      63.144  64.685  29.064  1.00  0.00     0.185 HD
BRANCH  17  19
HETATM   19  N2  UNL     1      63.898  66.452  29.013  1.00  0.00    -0.251 N 
HETATM   20  N3  UNL     1      64.312  67.520  29.504  1.00  0.00    -0.331 N 
ATOM     21  H32 UNL     1      63.399  67.941  29.674  1.00  0.00     0.178 HD
ATOM     22  H31 UNL     1      64.965  68.228  29.838  1.00  0.00     0.178 HD
ATOM     23  H2  UNL     1      64.785  65.986  28.822  1.00  0.00     0.207 HD
ENDBRANCH  17  19
ENDBRANCH   8  17
BRANCH   9  24
HETATM   24  O5  UNL     1      62.658  65.163  25.411  1.00  0.00    -0.358 OA
ATOM     25  H5  UNL     1      63.575  64.923  25.465  1.00  0.00     0.213 HD
ENDBRANCH   9  24
BRANCH   9  26
HETATM   26  N4  UNL     1      62.639  63.476  26.892  1.00  0.00     0.121 N 
HETATM   27  C11 UNL     1      64.062  63.445  26.689  1.00  0.00     0.313 C 
HETATM   28  C12 UNL     1      62.473  63.144  28.318  1.00  0.00     0.313 C 
ENDBRANCH   9  26
ENDBRANCH   3   4
TORSDOF 8
ENDMDL
MODEL 4
REMARK VINA RESULT: -3.681330676      1.477      1.903
REMARK  8 active torsions:
REMARK  status: ('A' for Active; 'I' for Inactive)
REMARK    1  A    between atoms: C3_3  and  C4_4 
REMARK    2  A    between atoms: C4_4  and  C5_5 
REMARK    3  A    between atoms: C7_9  and  O3_11 
REMARK    4  A    between atoms: C9_13  and  O4_14 
REMARK    5  A    between atoms: C9_13  and  N1_16 
REMARK    6  A    between atoms: N1_16  and  N2_18 
REMARK    7  A    between atoms: C10_23  and  O5_24 
REMARK    8  A    between atoms: C10_23  and  N4_26 
ROOT
HETATM    1  C1  UNL     1      58.164  65.752  24.637  1.00  0.00     0.012 C 
HETATM    2  C2  UNL     1      59.187  65.350  25.127  1.00  0.00    -0.116 C 
HETATM    3  C3  UNL     1      60.420  64.866  25.687  1.00  0.00     0.119 C 
ENDROOT
BRANCH   3   4
HETATM    4  C4  UNL     1      60.345  64.679  27.223  1.00  0.00     0.127 C 
HETATM    5  C6  UNL     1      60.059  66.077  27.737  1.00  0.00     0.069 C 
HETATM    6  C7  UNL     1      61.334  66.678  28.142  1.00  0.00     0.112 C 
HETATM    7  C8  UNL     1      61.711  67.918  27.366  1.00  0.00     0.051 C 
HETATM    8  C9  UNL     1      62.358  65.572  27.999  1.00  0.00     0.240 C 
HETATM    9  C10 UNL     1      61.659  64.271  27.759  1.00  0.00     0.331 C 
BRANCH   4  10
HETATM   10  C5  UNL     1      59.156  63.884  27.464  1.00  0.00     0.188 C 
HETATM   11  O1  UNL     1      58.309  64.187  28.339  1.00  0.00    -0.647 OA
HETATM   12  O2  UNL     1      58.848  62.726  26.757  1.00  0.00    -0.647 OA
ENDBRANCH   4  10
BRANCH   6  13
HETATM   13  O3  UNL     1      61.214  67.072  29.488  1.00  0.00    -0.385 OA
ATOM     14  H3  UNL     1      61.548  67.958  29.562  1.00  0.00     0.210 HD
ENDBRANCH   6  13
BRANCH   8  15
HETATM   15  O4  UNL     1      63.238  65.892  26.914  1.00  0.00    -0.363 OA
ATOM     16  H4  UNL     1      64.010  66.324  27.262  1.00  0.00     0.213 HD
ENDBRANCH   8  15
BRANCH   8  17
HETATM   17  N1  UNL     1      63.182  65.698  29.151  1.00  0.00    -0.281 N 
ATOM     18  H1  UNL     1      63.066  65.001  29.887  1.00  0.00     0.185 HD
BRANCH  17  19
HETATM   19  N2  UNL     1      64.023  66.574  29.335  1.00  0.00    -0.251 N 
HETATM   20  N3  UNL     1      64.511  67.708  29.497  1.00  0.00    -0.331 N 
ATOM     21  H32 UNL     1      63.637  68.231  29.433  1.00  0.00     0.178 HD
ATOM     22  H31 UNL     1      65.210  68.435  29.650  1.00  0.00     0.178 HD
ATOM     23  H2  UNL     1      64.868  66.004  29.391  1.00  0.00     0.207 HD
ENDBRANCH  17  19
ENDBRANCH   8  17
BRANCH   9  24
HETATM   24  O5  UNL     1      62.429  63.676  26.704  1.00  0.00    -0.358 OA
ATOM     25  H5  UNL     1      61.852  63.162  26.153  1.00  0.00     0.213 HD
ENDBRANCH   9  24
BRANCH   9  26
HETATM   26  N4  UNL     1      61.741  63.353  28.817  1.00  0.00     0.121 N 
HETATM   27  C11 UNL     1      63.033  62.781  29.085  1.00  0.00     0.313 C 
HETATM   28  C12 UNL     1      61.357  63.984  30.092  1.00  0.00     0.313 C 
ENDBRANCH   9  26
ENDBRANCH   3   4
TORSDOF 8
ENDMDL
MODEL 5
REMARK VINA RESULT: -3.498544475      2.760      4.658
REMARK  8 active torsions:
REMARK  status: ('A' for Active; 'I' for Inactive)
REMARK    1  A    between atoms: C3_3  and  C4_4 
REMARK    2  A    between atoms: C4_4  and  C5_5 
REMARK    3  A    between atoms: C7_9  and  O3_11 
REMARK    4  A    between atoms: C9_13  and  O4_14 
REMARK    5  A    between atoms: C9_13  and  N1_16 
REMARK    6  A    between atoms: N1_16  and  N2_18 
REMARK    7  A    between atoms: C10_23  and  O5_24 
REMARK    8  A    between atoms: C10_23  and  N4_26 
ROOT
HETATM    1  C1  UNL     1      64.269  67.584  29.370  1.00  0.00     0.012 C 
HETATM    2  C2  UNL     1      63.500  67.412  28.461  1.00  0.00    -0.116 C 
HETATM    3  C3  UNL     1      62.586  67.230  27.366  1.00  0.00     0.119 C 
ENDROOT
BRANCH   3   4
HETATM    4  C4  UNL     1      61.714  65.960  27.519  1.00  0.00     0.127 C 
HETATM    5  C6  UNL     1      62.619  64.997  28.264  1.00  0.00     0.069 C 
HETATM    6  C7  UNL     1      63.252  64.117  27.277  1.00  0.00     0.112 C 
HETATM    7  C8  UNL     1      64.758  64.219  27.228  1.00  0.00     0.051 C 
HETATM    8  C9  UNL     1      62.604  64.472  25.955  1.00  0.00     0.240 C 
HETATM    9  C10 UNL     1      61.429  65.365  26.198  1.00  0.00     0.331 C 
BRANCH   4  10
HETATM   10  C5  UNL     1      60.642  66.326  28.425  1.00  0.00     0.188 C 
HETATM   11  O1  UNL     1      60.132  65.510  29.230  1.00  0.00    -0.647 OA
HETATM   12  O2  UNL     1      60.086  67.600  28.484  1.00  0.00    -0.647 OA
ENDBRANCH   4  10
BRANCH   6  13
HETATM   13  O3  UNL     1      62.956  62.788  27.633  1.00  0.00    -0.385 OA
ATOM     14  H3  UNL     1      63.128  62.240  26.877  1.00  0.00     0.210 HD
ENDBRANCH   6  13
BRANCH   8  15
HETATM   15  O4  UNL     1      63.576  65.114  25.120  1.00  0.00    -0.363 OA
ATOM     16  H4  UNL     1      64.444  64.916  25.451  1.00  0.00     0.213 HD
ENDBRANCH   8  15
BRANCH   8  17
HETATM   17  N1  UNL     1      62.385  63.220  25.317  1.00  0.00    -0.281 N 
ATOM     18  H1  UNL     1      61.669  62.612  25.714  1.00  0.00     0.185 HD
BRANCH  17  19
HETATM   19  N2  UNL     1      62.986  62.808  24.328  1.00  0.00    -0.251 N 
HETATM   20  N3  UNL     1      63.870  62.710  23.456  1.00  0.00    -0.331 N 
ATOM     21  H32 UNL     1      64.470  63.459  23.801  1.00  0.00     0.178 HD
ATOM     22  H31 UNL     1      64.368  62.367  22.635  1.00  0.00     0.178 HD
ATOM     23  H2  UNL     1      62.351  62.069  24.026  1.00  0.00     0.207 HD
ENDBRANCH  17  19
ENDBRANCH   8  17
BRANCH   9  24
HETATM   24  O5  UNL     1      61.573  66.376  25.190  1.00  0.00    -0.358 OA
ATOM     25  H5  UNL     1      60.721  66.752  25.006  1.00  0.00     0.213 HD
ENDBRANCH   9  24
BRANCH   9  26
HETATM   26  N4  UNL     1      60.180  64.781  25.936  1.00  0.00     0.121 N 
HETATM   27  C11 UNL     1      59.040  65.658  25.928  1.00  0.00     0.313 C 
HETATM   28  C12 UNL     1      60.161  64.155  24.603  1.00  0.00     0.313 C 
ENDBRANCH   9  26
ENDBRANCH   3   4
TORSDOF 8
ENDMDL
