MODEL 1
REMARK VINA RESULT: -5.665950467      0.000      0.000
REMARK  5 active torsions:
REMARK  status: ('A' for Active; 'I' for Inactive)
REMARK    1  A    between atoms: C2_2  and  O1_3 
REMARK    2  A    between atoms: C3_5  and  C4_6 
REMARK       I    between atoms: C4_6  and  N1_8 
REMARK    3  A    between atoms: N1_8  and  N2_10 
REMARK    4  A    between atoms: N3_13  and  C7_14 
REMARK    5  A    between atoms: C10_20  and  N5_21 
ROOT
HETATM    1  N2  UNL     1      56.422  71.655  22.263  1.00  0.00    -0.226 NA
HETATM    2  C5  UNL     1      55.349  70.808  22.791  1.00  0.00     0.133 C 
HETATM    3  C6  UNL     1      55.474  69.482  22.025  1.00  0.00     0.141 C 
HETATM    4  N3  UNL     1      56.641  68.817  22.610  1.00  0.00    -0.364 N 
HETATM    5  C11 UNL     1      57.633  69.726  23.154  1.00  0.00     0.141 C 
HETATM    6  C12 UNL     1      57.665  70.929  22.201  1.00  0.00     0.133 C 
ENDROOT
BRANCH   4   7
HETATM    7  C7  UNL     1      56.773  67.418  22.623  1.00  0.00     0.124 A 
HETATM    8  C8  UNL     1      56.427  66.680  21.512  1.00  0.00     0.123 A 
HETATM    9  C9  UNL     1      56.552  65.288  21.534  1.00  0.00     0.263 A 
HETATM   10  O3  UNL     1      56.217  64.674  20.487  1.00  0.00    -0.268 OA
HETATM   11  N4  UNL     1      57.006  64.717  22.644  1.00  0.00    -0.156 N 
HETATM   12  C10 UNL     1      57.350  65.428  23.741  1.00  0.00     0.680 A 
ATOM     13  H4  UNL     1      57.098  63.701  22.669  1.00  0.00     0.187 HD
HETATM   14  N6  UNL     1      57.227  66.780  23.717  1.00  0.00    -0.177 N 
ATOM     15  H6  UNL     1      57.485  67.321  24.542  1.00  0.00     0.185 HD
BRANCH  12  16
HETATM   16  N5  UNL     1      57.782  64.823  24.770  1.00  0.00    -0.234 N 
ATOM     17  H52 UNL     1      58.310  63.954  24.691  1.00  0.00     0.174 HD
ATOM     18  H51 UNL     1      57.598  65.209  25.696  1.00  0.00     0.174 HD
ENDBRANCH  12  16
ENDBRANCH   4   7
BRANCH   1  19
HETATM   19  N1  UNL     1      56.004  72.130  21.020  1.00  0.00    -0.286 N 
HETATM   20  C4  UNL     1      56.133  73.552  20.752  1.00  0.00     0.258 C 
HETATM   21  O2  UNL     1      56.604  74.314  21.619  1.00  0.00    -0.267 OA
ATOM     22  H1  UNL     1      55.618  71.498  20.319  1.00  0.00     0.184 HD
BRANCH  20  23
HETATM   23  C3  UNL     1      55.712  74.062  19.473  1.00  0.00     0.106 C 
HETATM   24  C2  UNL     1      54.597  74.740  19.338  1.00  0.00     0.044 C 
HETATM   25  C1  UNL     1      53.665  75.058  20.438  1.00  0.00     0.076 C 
BRANCH  24  26
HETATM   26  O1  UNL     1      54.222  75.223  18.057  1.00  0.00    -0.365 OA
ATOM     27  H1  UNL     1      54.845  75.807  17.640  1.00  0.00     0.217 HD
ENDBRANCH  24  26
ENDBRANCH  20  23
ENDBRANCH   1  19
TORSDOF 5
ENDMDL
MODEL 2
REMARK VINA RESULT: -5.654565002      2.003      8.038
REMARK  5 active torsions:
REMARK  status: ('A' for Active; 'I' for Inactive)
REMARK    1  A    between atoms: C2_2  and  O1_3 
REMARK    2  A    between atoms: C3_5  and  C4_6 
REMARK       I    between atoms: C4_6  and  N1_8 
REMARK    3  A    between atoms: N1_8  and  N2_10 
REMARK    4  A    between atoms: N3_13  and  C7_14 
REMARK    5  A    between atoms: C10_20  and  N5_21 
ROOT
HETATM    1  N2  UNL     1      56.247  69.528  23.276  1.00  0.00    -0.226 NA
HETATM    2  C5  UNL     1      57.316  70.502  23.037  1.00  0.00     0.133 C 
HETATM    3  C6  UNL     1      57.111  70.970  21.588  1.00  0.00     0.141 C 
HETATM    4  N3  UNL     1      55.953  71.866  21.641  1.00  0.00    -0.364 N 
HETATM    5  C11 UNL     1      55.018  71.565  22.711  1.00  0.00     0.141 C 
HETATM    6  C12 UNL     1      54.979  70.034  22.815  1.00  0.00     0.133 C 
ENDROOT
BRANCH   4   7
HETATM    7  C7  UNL     1      55.776  72.912  20.720  1.00  0.00     0.124 A 
HETATM    8  C8  UNL     1      56.488  72.922  19.540  1.00  0.00     0.123 A 
HETATM    9  C9  UNL     1      56.314  73.970  18.631  1.00  0.00     0.263 A 
HETATM   10  O3  UNL     1      56.996  73.919  17.574  1.00  0.00    -0.268 OA
HETATM   11  N4  UNL     1      55.456  74.935  18.943  1.00  0.00    -0.156 N 
HETATM   12  C10 UNL     1      54.751  74.938  20.096  1.00  0.00     0.680 A 
ATOM     13  H4  UNL     1      55.325  75.704  18.287  1.00  0.00     0.187 HD
HETATM   14  N6  UNL     1      54.921  73.918  20.978  1.00  0.00    -0.177 N 
ATOM     15  H6  UNL     1      54.392  73.916  21.849  1.00  0.00     0.185 HD
BRANCH  12  16
HETATM   16  N5  UNL     1      53.942  75.887  20.335  1.00  0.00    -0.234 N 
ATOM     17  H52 UNL     1      53.598  76.489  19.587  1.00  0.00     0.174 HD
ATOM     18  H51 UNL     1      53.631  76.056  21.292  1.00  0.00     0.174 HD
ENDBRANCH  12  16
ENDBRANCH   4   7
BRANCH   1  19
HETATM   19  N1  UNL     1      56.621  68.338  22.652  1.00  0.00    -0.286 N 
HETATM   20  C4  UNL     1      56.067  67.095  23.161  1.00  0.00     0.258 C 
HETATM   21  O2  UNL     1      55.283  67.108  24.131  1.00  0.00    -0.267 OA
ATOM     22  H1  UNL     1      57.264  68.339  21.861  1.00  0.00     0.184 HD
BRANCH  20  23
HETATM   23  C3  UNL     1      56.436  65.856  22.528  1.00  0.00     0.106 C 
HETATM   24  C2  UNL     1      57.369  65.081  23.027  1.00  0.00     0.044 C 
HETATM   25  C1  UNL     1      58.133  65.367  24.258  1.00  0.00     0.076 C 
BRANCH  24  26
HETATM   26  O1  UNL     1      57.700  63.868  22.368  1.00  0.00    -0.365 OA
ATOM     27  H1  UNL     1      57.023  63.510  21.805  1.00  0.00     0.217 HD
ENDBRANCH  24  26
ENDBRANCH  20  23
ENDBRANCH   1  19
TORSDOF 5
ENDMDL
MODEL 3
REMARK VINA RESULT: -5.631066973      2.120      2.968
REMARK  5 active torsions:
REMARK  status: ('A' for Active; 'I' for Inactive)
REMARK    1  A    between atoms: C2_2  and  O1_3 
REMARK    2  A    between atoms: C3_5  and  C4_6 
REMARK       I    between atoms: C4_6  and  N1_8 
REMARK    3  A    between atoms: N1_8  and  N2_10 
REMARK    4  A    between atoms: N3_13  and  C7_14 
REMARK    5  A    between atoms: C10_20  and  N5_21 
ROOT
HETATM    1  N2  UNL     1      55.704  70.765  23.040  1.00  0.00    -0.226 NA
HETATM    2  C5  UNL     1      55.856  69.995  21.802  1.00  0.00     0.133 C 
HETATM    3  C6  UNL     1      56.914  68.927  22.125  1.00  0.00     0.141 C 
HETATM    4  N3  UNL     1      56.215  67.944  22.957  1.00  0.00    -0.364 N 
HETATM    5  C11 UNL     1      55.116  68.494  23.730  1.00  0.00     0.141 C 
HETATM    6  C12 UNL     1      55.575  69.890  24.177  1.00  0.00     0.133 C 
ENDROOT
BRANCH   4   7
HETATM    7  C7  UNL     1      56.600  66.593  22.996  1.00  0.00     0.124 A 
HETATM    8  C8  UNL     1      56.169  65.723  22.019  1.00  0.00     0.123 A 
HETATM    9  C9  UNL     1      56.548  64.378  22.068  1.00  0.00     0.263 A 
HETATM   10  O3  UNL     1      56.119  63.636  21.146  1.00  0.00    -0.268 OA
HETATM   11  N4  UNL     1      57.321  63.982  23.073  1.00  0.00    -0.156 N 
HETATM   12  C10 UNL     1      57.752  64.824  24.037  1.00  0.00     0.680 A 
ATOM     13  H4  UNL     1      57.601  63.001  23.117  1.00  0.00     0.187 HD
HETATM   14  N6  UNL     1      57.383  66.130  23.987  1.00  0.00    -0.177 N 
ATOM     15  H6  UNL     1      57.704  66.770  24.714  1.00  0.00     0.185 HD
BRANCH  12  16
HETATM   16  N5  UNL     1      58.494  64.384  24.969  1.00  0.00    -0.234 N 
ATOM     17  H52 UNL     1      58.117  63.797  25.713  1.00  0.00     0.174 HD
ATOM     18  H51 UNL     1      59.486  64.622  24.979  1.00  0.00     0.174 HD
ENDBRANCH  12  16
ENDBRANCH   4   7
BRANCH   1  19
HETATM   19  N1  UNL     1      56.799  71.625  23.133  1.00  0.00    -0.286 N 
HETATM   20  C4  UNL     1      56.845  72.773  22.245  1.00  0.00     0.258 C 
HETATM   21  O2  UNL     1      55.926  72.972  21.427  1.00  0.00    -0.267 OA
ATOM     22  H1  UNL     1      57.547  71.452  23.805  1.00  0.00     0.184 HD
BRANCH  20  23
HETATM   23  C3  UNL     1      57.964  73.676  22.329  1.00  0.00     0.106 C 
HETATM   24  C2  UNL     1      59.172  73.305  21.977  1.00  0.00     0.044 C 
HETATM   25  C1  UNL     1      59.528  71.968  21.464  1.00  0.00     0.076 C 
BRANCH  24  26
HETATM   26  O1  UNL     1      60.245  74.229  22.077  1.00  0.00    -0.365 OA
ATOM     27  H1  UNL     1      60.027  75.134  21.885  1.00  0.00     0.217 HD
ENDBRANCH  24  26
ENDBRANCH  20  23
ENDBRANCH   1  19
TORSDOF 5
ENDMDL
MODEL 4
REMARK VINA RESULT: -5.625893814      1.258      1.745
REMARK  5 active torsions:
REMARK  status: ('A' for Active; 'I' for Inactive)
REMARK    1  A    between atoms: C2_2  and  O1_3 
REMARK    2  A    between atoms: C3_5  and  C4_6 
REMARK       I    between atoms: C4_6  and  N1_8 
REMARK    3  A    between atoms: N1_8  and  N2_10 
REMARK    4  A    between atoms: N3_13  and  C7_14 
REMARK    5  A    between atoms: C10_20  and  N5_21 
ROOT
HETATM    1  N2  UNL     1      56.388  71.604  22.341  1.00  0.00    -0.226 NA
HETATM    2  C5  UNL     1      55.314  70.753  22.860  1.00  0.00     0.133 C 
HETATM    3  C6  UNL     1      55.417  69.447  22.056  1.00  0.00     0.141 C 
HETATM    4  N3  UNL     1      56.584  68.756  22.609  1.00  0.00    -0.364 N 
HETATM    5  C11 UNL     1      57.591  69.641  23.165  1.00  0.00     0.141 C 
HETATM    6  C12 UNL     1      57.624  70.869  22.244  1.00  0.00     0.133 C 
ENDROOT
BRANCH   4   7
HETATM    7  C7  UNL     1      56.702  67.356  22.583  1.00  0.00     0.124 A 
HETATM    8  C8  UNL     1      57.115  66.675  23.708  1.00  0.00     0.123 A 
HETATM    9  C9  UNL     1      57.239  65.283  23.673  1.00  0.00     0.263 A 
HETATM   10  O3  UNL     1      57.622  64.724  24.734  1.00  0.00    -0.268 OA
HETATM   11  N4  UNL     1      56.951  64.657  22.538  1.00  0.00    -0.156 N 
HETATM   12  C10 UNL     1      56.545  65.311  21.428  1.00  0.00     0.680 A 
ATOM     13  H4  UNL     1      57.041  63.641  22.504  1.00  0.00     0.187 HD
HETATM   14  N6  UNL     1      56.425  66.663  21.464  1.00  0.00    -0.177 N 
ATOM     15  H6  UNL     1      56.119  67.161  20.628  1.00  0.00     0.185 HD
BRANCH  12  16
HETATM   16  N5  UNL     1      56.280  64.653  20.374  1.00  0.00    -0.234 N 
ATOM     17  H52 UNL     1      55.552  63.940  20.365  1.00  0.00     0.174 HD
ATOM     18  H51 UNL     1      56.805  64.838  19.519  1.00  0.00     0.174 HD
ENDBRANCH  12  16
ENDBRANCH   4   7
BRANCH   1  19
HETATM   19  N1  UNL     1      55.959  72.117  21.116  1.00  0.00    -0.286 N 
HETATM   20  C4  UNL     1      56.188  73.525  20.846  1.00  0.00     0.258 C 
HETATM   21  O2  UNL     1      56.752  74.244  21.694  1.00  0.00    -0.267 OA
ATOM     22  H1  UNL     1      55.498  71.520  20.430  1.00  0.00     0.184 HD
BRANCH  20  23
HETATM   23  C3  UNL     1      55.758  74.073  19.585  1.00  0.00     0.106 C 
HETATM   24  C2  UNL     1      54.644  74.757  19.479  1.00  0.00     0.044 C 
HETATM   25  C1  UNL     1      53.722  75.046  20.595  1.00  0.00     0.076 C 
BRANCH  24  26
HETATM   26  O1  UNL     1      54.259  75.277  18.215  1.00  0.00    -0.365 OA
ATOM     27  H1  UNL     1      53.413  75.708  18.189  1.00  0.00     0.217 HD
ENDBRANCH  24  26
ENDBRANCH  20  23
ENDBRANCH   1  19
TORSDOF 5
ENDMDL
MODEL 5
REMARK VINA RESULT: -5.590414904      2.302      7.827
REMARK  5 active torsions:
REMARK  status: ('A' for Active; 'I' for Inactive)
REMARK    1  A    between atoms: C2_2  and  O1_3 
REMARK    2  A    between atoms: C3_5  and  C4_6 
REMARK       I    between atoms: C4_6  and  N1_8 
REMARK    3  A    between atoms: N1_8  and  N2_10 
REMARK    4  A    between atoms: N3_13  and  C7_14 
REMARK    5  A    between atoms: C10_20  and  N5_21 
ROOT
HETATM    1  N2  UNL     1      55.317  68.784  23.251  1.00  0.00    -0.226 NA
HETATM    2  C5  UNL     1      55.290  70.114  23.866  1.00  0.00     0.133 C 
HETATM    3  C6  UNL     1      56.680  70.708  23.592  1.00  0.00     0.141 C 
HETATM    4  N3  UNL     1      56.659  71.079  22.174  1.00  0.00    -0.364 N 
HETATM    5  C11 UNL     1      55.765  70.272  21.363  1.00  0.00     0.141 C 
HETATM    6  C12 UNL     1      55.866  68.845  21.920  1.00  0.00     0.133 C 
ENDROOT
BRANCH   4   7
HETATM    7  C7  UNL     1      57.452  72.121  21.664  1.00  0.00     0.124 A 
HETATM    8  C8  UNL     1      56.958  72.947  20.679  1.00  0.00     0.123 A 
HETATM    9  C9  UNL     1      57.754  73.977  20.170  1.00  0.00     0.263 A 
HETATM   10  O3  UNL     1      57.243  74.694  19.270  1.00  0.00    -0.268 OA
HETATM   11  N4  UNL     1      58.979  74.123  20.661  1.00  0.00    -0.156 N 
HETATM   12  C10 UNL     1      59.477  73.320  21.628  1.00  0.00     0.680 A 
ATOM     13  H4  UNL     1      59.568  74.871  20.294  1.00  0.00     0.187 HD
HETATM   14  N6  UNL     1      58.701  72.321  22.121  1.00  0.00    -0.177 N 
ATOM     15  H6  UNL     1      59.072  71.712  22.851  1.00  0.00     0.185 HD
BRANCH  12  16
HETATM   16  N5  UNL     1      60.655  73.515  22.060  1.00  0.00    -0.234 N 
ATOM     17  H52 UNL     1      60.839  74.170  22.819  1.00  0.00     0.174 HD
ATOM     18  H51 UNL     1      61.436  73.009  21.640  1.00  0.00     0.174 HD
ENDBRANCH  12  16
ENDBRANCH   4   7
BRANCH   1  19
HETATM   19  N1  UNL     1      56.038  67.945  24.102  1.00  0.00    -0.286 N 
HETATM   20  C4  UNL     1      56.240  66.566  23.693  1.00  0.00     0.258 C 
HETATM   21  O2  UNL     1      55.776  66.157  22.611  1.00  0.00    -0.267 OA
ATOM     22  H1  UNL     1      56.412  68.291  24.985  1.00  0.00     0.184 HD
BRANCH  20  23
HETATM   23  C3  UNL     1      56.986  65.686  24.555  1.00  0.00     0.106 C 
HETATM   24  C2  UNL     1      57.817  64.795  24.070  1.00  0.00     0.044 C 
HETATM   25  C1  UNL     1      58.089  64.587  22.635  1.00  0.00     0.076 C 
BRANCH  24  26
HETATM   26  O1  UNL     1      58.531  63.947  24.958  1.00  0.00    -0.365 OA
ATOM     27  H1  UNL     1      58.945  64.381  25.695  1.00  0.00     0.217 HD
ENDBRANCH  24  26
ENDBRANCH  20  23
ENDBRANCH   1  19
TORSDOF 5
ENDMDL
