MODEL 1
REMARK VINA RESULT: -6.408355806      0.000      0.000
REMARK  5 active torsions:
REMARK  status: ('A' for Active; 'I' for Inactive)
REMARK    1  A    between atoms: C2_2  and  N2_6 
REMARK    2  A    between atoms: N2_6  and  C3_8 
REMARK    3  A    between atoms: C5_11  and  C7_13 
REMARK    4  A    between atoms: C7_13  and  O2_15 
REMARK    5  A    between atoms: C10_18  and  N3_19 
ROOT
HETATM    1  C3  UNL     1      57.459  73.069  22.567  1.00  0.00     0.131 C 
HETATM    2  C4  UNL     1      57.674  71.873  23.495  1.00  0.00     0.196 C 
HETATM    3  O1  UNL     1      56.421  71.382  23.794  1.00  0.00    -0.376 OA
HETATM    4  C5  UNL     1      55.816  70.892  22.675  1.00  0.00     0.085 C 
HETATM    5  C6  UNL     1      54.408  71.450  22.556  1.00  0.00     0.049 C 
HETATM    6  C9  UNL     1      56.517  71.132  21.373  1.00  0.00     0.070 C 
HETATM    7  C10 UNL     1      57.060  72.517  21.221  1.00  0.00     0.141 C 
ENDROOT
BRANCH   7   8
HETATM    8  N3  UNL     1      56.241  73.447  20.526  1.00  0.00    -0.232 N 
HETATM    9  N4  UNL     1      55.159  74.017  21.021  1.00  0.00    -0.245 N 
HETATM   10  C11 UNL     1      54.631  74.838  20.103  1.00  0.00     0.343 A 
ATOM     11  H4  UNL     1      54.783  73.858  21.956  1.00  0.00     0.192 HD
HETATM   12  O3  UNL     1      53.596  75.535  20.253  1.00  0.00    -0.245 OA
HETATM   13  N5  UNL     1      55.384  74.793  19.012  1.00  0.00    -0.258 N 
HETATM   14  C12 UNL     1      56.378  73.929  19.282  1.00  0.00     0.345 A 
ATOM     15  H5  UNL     1      55.238  75.309  18.144  1.00  0.00     0.175 HD
HETATM   16  O4  UNL     1      57.275  73.667  18.426  1.00  0.00    -0.245 OA
ENDBRANCH   7   8
BRANCH   1  17
HETATM   17  N2  UNL     1      58.606  73.917  22.476  1.00  0.00    -0.372 N 
ATOM     18  H2  UNL     1      58.526  74.904  22.720  1.00  0.00     0.161 HD
BRANCH  17  19
HETATM   19  C2  UNL     1      59.857  73.395  22.046  1.00  0.00     0.066 C 
HETATM   20  C1  UNL     1      60.713  72.528  22.894  1.00  0.00     0.088 C 
HETATM   21  N1  UNL     1      60.258  73.695  20.860  1.00  0.00    -0.389 N 
ATOM     22  H12 UNL     1      61.155  73.321  20.552  1.00  0.00     0.157 HD
ATOM     23  H11 UNL     1      59.670  74.291  20.277  1.00  0.00     0.157 HD
ENDBRANCH  17  19
ENDBRANCH   1  17
BRANCH   4  24
HETATM   24  C7  UNL     1      55.657  69.378  22.866  1.00  0.00     0.148 C 
HETATM   25  C8  UNL     1      56.892  68.674  22.346  1.00  0.00     0.042 C 
BRANCH  24  26
HETATM   26  O2  UNL     1      55.433  69.037  24.173  1.00  0.00    -0.393 OA
ATOM     27  H2  UNL     1      54.997  68.197  24.259  1.00  0.00     0.210 HD
ENDBRANCH  24  26
ENDBRANCH   4  24
TORSDOF 5
ENDMDL
MODEL 2
REMARK VINA RESULT: -6.328306105      2.061      4.049
REMARK  5 active torsions:
REMARK  status: ('A' for Active; 'I' for Inactive)
REMARK    1  A    between atoms: C2_2  and  N2_6 
REMARK    2  A    between atoms: N2_6  and  C3_8 
REMARK    3  A    between atoms: C5_11  and  C7_13 
REMARK    4  A    between atoms: C7_13  and  O2_15 
REMARK    5  A    between atoms: C10_18  and  N3_19 
ROOT
HETATM    1  C3  UNL     1      56.550  71.621  21.298  1.00  0.00     0.131 C 
HETATM    2  C4  UNL     1      57.846  71.120  21.937  1.00  0.00     0.196 C 
HETATM    3  O1  UNL     1      58.870  71.836  21.356  1.00  0.00    -0.376 OA
HETATM    4  C5  UNL     1      58.774  73.158  21.674  1.00  0.00     0.085 C 
HETATM    5  C6  UNL     1      58.888  74.007  20.420  1.00  0.00     0.049 C 
HETATM    6  C9  UNL     1      57.540  73.585  22.407  1.00  0.00     0.070 C 
HETATM    7  C10 UNL     1      56.277  72.990  21.871  1.00  0.00     0.141 C 
ENDROOT
BRANCH   7   8
HETATM    8  N3  UNL     1      55.549  73.780  20.940  1.00  0.00    -0.232 N 
HETATM    9  N4  UNL     1      54.606  74.645  21.258  1.00  0.00    -0.245 N 
HETATM   10  C11 UNL     1      54.131  75.215  20.143  1.00  0.00     0.343 A 
ATOM     11  H4  UNL     1      54.288  74.848  22.206  1.00  0.00     0.192 HD
HETATM   12  O3  UNL     1      53.224  76.084  20.094  1.00  0.00    -0.245 OA
HETATM   13  N5  UNL     1      54.778  74.710  19.101  1.00  0.00    -0.258 N 
HETATM   14  C12 UNL     1      55.654  73.822  19.603  1.00  0.00     0.345 A 
ATOM     15  H5  UNL     1      54.640  74.947  18.119  1.00  0.00     0.175 HD
HETATM   16  O4  UNL     1      56.431  73.163  18.850  1.00  0.00    -0.245 OA
ENDBRANCH   7   8
BRANCH   1  17
HETATM   17  N2  UNL     1      55.450  70.732  21.498  1.00  0.00    -0.372 N 
ATOM     18  H2  UNL     1      54.660  70.753  20.853  1.00  0.00     0.161 HD
BRANCH  17  19
HETATM   19  C2  UNL     1      55.447  69.820  22.589  1.00  0.00     0.066 C 
HETATM   20  C1  UNL     1      55.995  68.443  22.502  1.00  0.00     0.088 C 
HETATM   21  N1  UNL     1      54.942  70.219  23.704  1.00  0.00    -0.389 N 
ATOM     22  H12 UNL     1      54.940  69.565  24.487  1.00  0.00     0.157 HD
ATOM     23  H11 UNL     1      54.566  71.165  23.765  1.00  0.00     0.157 HD
ENDBRANCH  17  19
ENDBRANCH   1  17
BRANCH   4  24
HETATM   24  C7  UNL     1      59.994  73.510  22.536  1.00  0.00     0.148 C 
HETATM   25  C8  UNL     1      60.352  72.326  23.408  1.00  0.00     0.042 C 
BRANCH  24  26
HETATM   26  O2  UNL     1      61.075  73.886  21.784  1.00  0.00    -0.393 OA
ATOM     27  H2  UNL     1      61.372  73.194  21.205  1.00  0.00     0.210 HD
ENDBRANCH  24  26
ENDBRANCH   4  24
TORSDOF 5
ENDMDL
MODEL 3
REMARK VINA RESULT: -6.225818338      2.108      4.308
REMARK  5 active torsions:
REMARK  status: ('A' for Active; 'I' for Inactive)
REMARK    1  A    between atoms: C2_2  and  N2_6 
REMARK    2  A    between atoms: N2_6  and  C3_8 
REMARK    3  A    between atoms: C5_11  and  C7_13 
REMARK    4  A    between atoms: C7_13  and  O2_15 
REMARK    5  A    between atoms: C10_18  and  N3_19 
ROOT
HETATM    1  C3  UNL     1      56.409  71.708  21.719  1.00  0.00     0.131 C 
HETATM    2  C4  UNL     1      57.639  71.244  22.500  1.00  0.00     0.196 C 
HETATM    3  O1  UNL     1      58.738  71.676  21.788  1.00  0.00    -0.376 OA
HETATM    4  C5  UNL     1      58.792  73.038  21.765  1.00  0.00     0.085 C 
HETATM    5  C6  UNL     1      59.001  73.528  20.343  1.00  0.00     0.049 C 
HETATM    6  C9  UNL     1      57.614  73.766  22.334  1.00  0.00     0.070 C 
HETATM    7  C10 UNL     1      56.292  73.198  21.926  1.00  0.00     0.141 C 
ENDROOT
BRANCH   7   8
HETATM    8  N3  UNL     1      55.658  73.804  20.808  1.00  0.00    -0.232 N 
HETATM    9  N4  UNL     1      55.950  73.554  19.546  1.00  0.00    -0.245 N 
HETATM   10  C11 UNL     1      55.164  74.294  18.753  1.00  0.00     0.343 A 
ATOM     11  H4  UNL     1      56.663  72.898  19.225  1.00  0.00     0.192 HD
HETATM   12  O3  UNL     1      55.185  74.295  17.496  1.00  0.00    -0.245 OA
HETATM   13  N5  UNL     1      54.362  75.025  19.515  1.00  0.00    -0.258 N 
HETATM   14  C12 UNL     1      54.674  74.716  20.786  1.00  0.00     0.345 A 
ATOM     15  H5  UNL     1      53.651  75.686  19.201  1.00  0.00     0.175 HD
HETATM   16  O4  UNL     1      54.074  75.255  21.763  1.00  0.00    -0.245 OA
ENDBRANCH   7   8
BRANCH   1  17
HETATM   17  N2  UNL     1      55.215  71.023  22.103  1.00  0.00    -0.372 N 
ATOM     18  H2  UNL     1      54.321  71.299  21.697  1.00  0.00     0.161 HD
BRANCH  17  19
HETATM   19  C2  UNL     1      55.263  69.959  23.045  1.00  0.00     0.066 C 
HETATM   20  C1  UNL     1      55.710  68.586  22.703  1.00  0.00     0.088 C 
HETATM   21  N1  UNL     1      54.898  70.211  24.254  1.00  0.00    -0.389 N 
ATOM     22  H12 UNL     1      54.933  69.448  24.931  1.00  0.00     0.157 HD
ATOM     23  H11 UNL     1      54.590  71.154  24.490  1.00  0.00     0.157 HD
ENDBRANCH  17  19
ENDBRANCH   1  17
BRANCH   4  24
HETATM   24  C7  UNL     1      60.043  73.459  22.547  1.00  0.00     0.148 C 
HETATM   25  C8  UNL     1      60.502  72.309  23.417  1.00  0.00     0.042 C 
BRANCH  24  26
HETATM   26  O2  UNL     1      61.061  73.865  21.725  1.00  0.00    -0.393 OA
ATOM     27  H2  UNL     1      61.675  74.441  22.166  1.00  0.00     0.210 HD
ENDBRANCH  24  26
ENDBRANCH   4  24
TORSDOF 5
ENDMDL
MODEL 4
REMARK VINA RESULT: -5.828154325      2.268      5.198
REMARK  5 active torsions:
REMARK  status: ('A' for Active; 'I' for Inactive)
REMARK    1  A    between atoms: C2_2  and  N2_6 
REMARK    2  A    between atoms: N2_6  and  C3_8 
REMARK    3  A    between atoms: C5_11  and  C7_13 
REMARK    4  A    between atoms: C7_13  and  O2_15 
REMARK    5  A    between atoms: C10_18  and  N3_19 
ROOT
HETATM    1  C3  UNL     1      55.979  73.458  21.437  1.00  0.00     0.131 C 
HETATM    2  C4  UNL     1      57.017  74.530  21.101  1.00  0.00     0.196 C 
HETATM    3  O1  UNL     1      57.885  74.580  22.171  1.00  0.00    -0.376 OA
HETATM    4  C5  UNL     1      58.572  73.409  22.289  1.00  0.00     0.085 C 
HETATM    5  C6  UNL     1      58.510  72.910  23.723  1.00  0.00     0.049 C 
HETATM    6  C9  UNL     1      58.146  72.288  21.393  1.00  0.00     0.070 C 
HETATM    7  C10 UNL     1      56.664  72.121  21.289  1.00  0.00     0.141 C 
ENDROOT
BRANCH   7   8
HETATM    8  N3  UNL     1      56.070  71.163  22.154  1.00  0.00    -0.232 N 
HETATM    9  N4  UNL     1      55.927  71.308  23.457  1.00  0.00    -0.245 N 
HETATM   10  C11 UNL     1      55.329  70.220  23.962  1.00  0.00     0.343 A 
ATOM     11  H4  UNL     1      56.224  72.121  23.996  1.00  0.00     0.192 HD
HETATM   12  O3  UNL     1      55.044  70.037  25.173  1.00  0.00    -0.245 OA
HETATM   13  N5  UNL     1      55.087  69.373  22.971  1.00  0.00    -0.258 N 
HETATM   14  C12 UNL     1      55.549  69.963  21.856  1.00  0.00     0.345 A 
ATOM     15  H5  UNL     1      54.641  68.458  23.042  1.00  0.00     0.175 HD
HETATM   16  O4  UNL     1      55.464  69.397  20.726  1.00  0.00    -0.245 OA
ENDBRANCH   7   8
BRANCH   1  17
HETATM   17  N2  UNL     1      54.805  73.547  20.628  1.00  0.00    -0.372 N 
ATOM     18  H2  UNL     1      54.316  72.695  20.353  1.00  0.00     0.161 HD
BRANCH  17  19
HETATM   19  C2  UNL     1      54.314  74.812  20.204  1.00  0.00     0.066 C 
HETATM   20  C1  UNL     1      53.519  75.712  21.076  1.00  0.00     0.088 C 
HETATM   21  N1  UNL     1      54.578  75.186  19.000  1.00  0.00    -0.389 N 
ATOM     22  H12 UNL     1      54.226  76.093  18.696  1.00  0.00     0.157 HD
ATOM     23  H11 UNL     1      55.124  74.568  18.401  1.00  0.00     0.157 HD
ENDBRANCH  17  19
ENDBRANCH   1  17
BRANCH   4  24
HETATM   24  C7  UNL     1      60.050  73.715  22.011  1.00  0.00     0.148 C 
HETATM   25  C8  UNL     1      60.916  72.711  22.741  1.00  0.00     0.042 C 
BRANCH  24  26
HETATM   26  O2  UNL     1      60.342  73.707  20.673  1.00  0.00    -0.393 OA
ATOM     27  H2  UNL     1      61.079  74.268  20.460  1.00  0.00     0.210 HD
ENDBRANCH  24  26
ENDBRANCH   4  24
TORSDOF 5
ENDMDL
MODEL 5
REMARK VINA RESULT: -5.368431379      1.322      1.411
REMARK  5 active torsions:
REMARK  status: ('A' for Active; 'I' for Inactive)
REMARK    1  A    between atoms: C2_2  and  N2_6 
REMARK    2  A    between atoms: N2_6  and  C3_8 
REMARK    3  A    between atoms: C5_11  and  C7_13 
REMARK    4  A    between atoms: C7_13  and  O2_15 
REMARK    5  A    between atoms: C10_18  and  N3_19 
ROOT
HETATM    1  C3  UNL     1      57.898  72.393  21.846  1.00  0.00     0.131 C 
HETATM    2  C4  UNL     1      58.026  71.210  22.807  1.00  0.00     0.196 C 
HETATM    3  O1  UNL     1      56.832  71.134  23.493  1.00  0.00    -0.376 OA
HETATM    4  C5  UNL     1      55.809  70.829  22.647  1.00  0.00     0.085 C 
HETATM    5  C6  UNL     1      54.651  71.789  22.860  1.00  0.00     0.049 C 
HETATM    6  C9  UNL     1      56.129  70.812  21.185  1.00  0.00     0.070 C 
HETATM    7  C10 UNL     1      56.976  71.959  20.733  1.00  0.00     0.141 C 
ENDROOT
BRANCH   7   8
HETATM    8  N3  UNL     1      56.290  73.080  20.192  1.00  0.00    -0.232 N 
HETATM    9  N4  UNL     1      55.692  73.104  19.017  1.00  0.00    -0.245 N 
HETATM   10  C11 UNL     1      55.147  74.312  18.822  1.00  0.00     0.343 A 
ATOM     11  H4  UNL     1      55.651  72.325  18.360  1.00  0.00     0.192 HD
HETATM   12  O3  UNL     1      54.503  74.669  17.803  1.00  0.00    -0.245 OA
HETATM   13  N5  UNL     1      55.398  75.067  19.883  1.00  0.00    -0.258 N 
HETATM   14  C12 UNL     1      56.107  74.296  20.726  1.00  0.00     0.345 A 
ATOM     15  H5  UNL     1      55.112  76.035  20.030  1.00  0.00     0.175 HD
HETATM   16  O4  UNL     1      56.505  74.737  21.846  1.00  0.00    -0.245 OA
ENDBRANCH   7   8
BRANCH   1  17
HETATM   17  N2  UNL     1      59.158  72.844  21.347  1.00  0.00    -0.372 N 
ATOM     18  H2  UNL     1      59.269  73.030  20.350  1.00  0.00     0.161 HD
BRANCH  17  19
HETATM   19  C2  UNL     1      60.257  73.037  22.229  1.00  0.00     0.066 C 
HETATM   20  C1  UNL     1      60.430  72.280  23.494  1.00  0.00     0.088 C 
HETATM   21  N1  UNL     1      61.142  73.914  21.903  1.00  0.00    -0.389 N 
ATOM     22  H12 UNL     1      61.931  74.051  22.534  1.00  0.00     0.157 HD
ATOM     23  H11 UNL     1      61.024  74.434  21.033  1.00  0.00     0.157 HD
ENDBRANCH  17  19
ENDBRANCH   1  17
BRANCH   4  24
HETATM   24  C7  UNL     1      55.286  69.442  23.044  1.00  0.00     0.148 C 
HETATM   25  C8  UNL     1      56.075  68.379  22.309  1.00  0.00     0.042 C 
BRANCH  24  26
HETATM   26  O2  UNL     1      55.347  69.226  24.395  1.00  0.00    -0.393 OA
ATOM     27  H2  UNL     1      55.789  69.931  24.854  1.00  0.00     0.210 HD
ENDBRANCH  24  26
ENDBRANCH   4  24
TORSDOF 5
ENDMDL
