MODEL 1
REMARK VINA RESULT: -6.756049018      0.000      0.000
REMARK  3 active torsions:
REMARK  status: ('A' for Active; 'I' for Inactive)
REMARK    1  A    between atoms: C1_2  and  C2_4 
REMARK    2  A    between atoms: C2_4  and  C3_5 
REMARK       I    between atoms: C3_5  and  N1_7 
REMARK    3  A    between atoms: N1_7  and  N2_9 
ROOT
HETATM    1  C3  UNL     1      56.911  72.858  20.345  1.00  0.00     0.261 C 
HETATM    2  O3  UNL     1      55.974  72.085  20.554  1.00  0.00    -0.270 OA
HETATM    3  N1  UNL     1      56.995  73.650  19.186  1.00  0.00    -0.266 N 
ATOM      4  H1  UNL     1      57.796  74.271  19.071  1.00  0.00     0.190 HD
ENDROOT
BRANCH   1   5
HETATM    5  C2  UNL     1      58.011  72.972  21.352  1.00  0.00     0.166 C 
HETATM    6  C6  UNL     1      59.334  72.683  20.768  1.00  0.00     0.091 C 
HETATM    7  N5  UNL     1      60.239  72.012  21.596  1.00  0.00    -0.380 N 
HETATM    8  C7  UNL     1      60.056  72.212  22.974  1.00  0.00     0.065 C 
ATOM      9  H5  UNL     1      60.981  71.417  21.225  1.00  0.00     0.164 HD
HETATM   10  C8  UNL     1      58.686  71.795  23.460  1.00  0.00     0.031 A 
HETATM   11  C9  UNL     1      58.072  70.696  22.662  1.00  0.00     0.017 A 
HETATM   12  C10 UNL     1      57.616  72.094  22.501  1.00  0.00     0.029 A 
BRANCH   5  13
HETATM   13  C1  UNL     1      57.974  74.408  21.820  1.00  0.00     0.197 C 
HETATM   14  O1  UNL     1      56.889  74.893  22.126  1.00  0.00    -0.647 OA
HETATM   15  O2  UNL     1      59.153  75.140  21.892  1.00  0.00    -0.647 OA
ENDBRANCH   5  13
ENDBRANCH   1   5
BRANCH   3  16
HETATM   16  N2  UNL     1      56.003  73.614  18.171  1.00  0.00    -0.261 N 
HETATM   17  C4  UNL     1      54.915  74.261  18.415  1.00  0.00     0.261 A 
HETATM   18  N3  UNL     1      53.875  74.327  17.558  1.00  0.00    -0.261 N 
HETATM   19  O4  UNL     1      54.572  74.958  19.469  1.00  0.00    -0.248 OA
HETATM   20  N4  UNL     1      52.928  75.067  18.119  1.00  0.00    -0.267 N 
ATOM     21  H3  UNL     1      53.827  73.886  16.640  1.00  0.00     0.190 HD
HETATM   22  C5  UNL     1      53.370  75.464  19.326  1.00  0.00     0.237 A 
ATOM     23  H4  UNL     1      52.023  75.294  17.708  1.00  0.00     0.190 HD
HETATM   24  S1  UNL     1      52.647  76.382  20.455  1.00  0.00    -0.031 SA
ATOM     25  H2  UNL     1      56.144  73.105  17.299  1.00  0.00     0.190 HD
ENDBRANCH   3  16
TORSDOF 3
ENDMDL
MODEL 2
REMARK VINA RESULT: -5.679798252      4.205      6.032
REMARK  3 active torsions:
REMARK  status: ('A' for Active; 'I' for Inactive)
REMARK    1  A    between atoms: C1_2  and  C2_4 
REMARK    2  A    between atoms: C2_4  and  C3_5 
REMARK       I    between atoms: C3_5  and  N1_7 
REMARK    3  A    between atoms: N1_7  and  N2_9 
ROOT
HETATM    1  C3  UNL     1      57.097  72.086  22.745  1.00  0.00     0.261 C 
HETATM    2  O3  UNL     1      57.611  72.315  23.841  1.00  0.00    -0.270 OA
HETATM    3  N1  UNL     1      56.145  71.069  22.553  1.00  0.00    -0.266 N 
ATOM      4  H1  UNL     1      55.755  70.928  21.621  1.00  0.00     0.190 HD
ENDROOT
BRANCH   1   5
HETATM    5  C2  UNL     1      57.488  72.911  21.560  1.00  0.00     0.166 C 
HETATM    6  C6  UNL     1      57.152  74.337  21.739  1.00  0.00     0.091 C 
HETATM    7  N5  UNL     1      56.728  75.017  20.593  1.00  0.00    -0.380 N 
HETATM    8  C7  UNL     1      57.213  74.508  19.378  1.00  0.00     0.065 C 
ATOM      9  H5  UNL     1      56.109  75.827  20.638  1.00  0.00     0.164 HD
HETATM   10  C8  UNL     1      56.836  73.062  19.145  1.00  0.00     0.031 A 
HETATM   11  C9  UNL     1      55.558  72.658  19.797  1.00  0.00     0.017 A 
HETATM   12  C10 UNL     1      56.860  72.253  20.369  1.00  0.00     0.029 A 
BRANCH   5  13
HETATM   13  C1  UNL     1      58.987  72.761  21.448  1.00  0.00     0.197 C 
HETATM   14  O1  UNL     1      59.442  71.660  21.150  1.00  0.00    -0.647 OA
HETATM   15  O2  UNL     1      59.809  73.857  21.682  1.00  0.00    -0.647 OA
ENDBRANCH   5  13
ENDBRANCH   1   5
BRANCH   3  16
HETATM   16  N2  UNL     1      55.708  70.232  23.612  1.00  0.00    -0.261 N 
HETATM   17  C4  UNL     1      55.792  68.961  23.407  1.00  0.00     0.261 A 
HETATM   18  N3  UNL     1      55.419  68.031  24.309  1.00  0.00    -0.261 N 
HETATM   19  O4  UNL     1      56.222  68.309  22.357  1.00  0.00    -0.248 OA
HETATM   20  N4  UNL     1      55.636  66.835  23.778  1.00  0.00    -0.267 N 
ATOM     21  H3  UNL     1      55.037  68.215  25.237  1.00  0.00     0.190 HD
HETATM   22  C5  UNL     1      56.143  67.012  22.545  1.00  0.00     0.237 A 
ATOM     23  H4  UNL     1      55.450  65.938  24.227  1.00  0.00     0.190 HD
HETATM   24  S1  UNL     1      56.599  65.919  21.434  1.00  0.00    -0.031 SA
ATOM     25  H2  UNL     1      55.348  70.613  24.487  1.00  0.00     0.190 HD
ENDBRANCH   3  16
TORSDOF 3
ENDMDL
MODEL 3
REMARK VINA RESULT: -5.595694933      9.158     10.688
REMARK  3 active torsions:
REMARK  status: ('A' for Active; 'I' for Inactive)
REMARK    1  A    between atoms: C1_2  and  C2_4 
REMARK    2  A    between atoms: C2_4  and  C3_5 
REMARK       I    between atoms: C3_5  and  N1_7 
REMARK    3  A    between atoms: N1_7  and  N2_9 
ROOT
HETATM    1  C3  UNL     1      61.076  64.377  26.297  1.00  0.00     0.261 C 
HETATM    2  O3  UNL     1      61.099  63.212  26.697  1.00  0.00    -0.270 OA
HETATM    3  N1  UNL     1      60.200  64.815  25.288  1.00  0.00    -0.266 N 
ATOM      4  H1  UNL     1      60.229  65.794  25.001  1.00  0.00     0.190 HD
ENDROOT
BRANCH   1   5
HETATM    5  C2  UNL     1      62.010  65.380  26.897  1.00  0.00     0.166 C 
HETATM    6  C6  UNL     1      62.452  64.991  28.250  1.00  0.00     0.091 C 
HETATM    7  N5  UNL     1      62.621  66.034  29.166  1.00  0.00    -0.380 N 
HETATM    8  C7  UNL     1      62.936  67.282  28.604  1.00  0.00     0.065 C 
ATOM      9  H5  UNL     1      62.522  65.897  30.172  1.00  0.00     0.164 HD
HETATM   10  C8  UNL     1      61.894  67.776  27.626  1.00  0.00     0.031 A 
HETATM   11  C9  UNL     1      60.516  67.286  27.914  1.00  0.00     0.017 A 
HETATM   12  C10 UNL     1      61.311  66.703  26.812  1.00  0.00     0.029 A 
BRANCH   5  13
HETATM   13  C1  UNL     1      63.204  65.415  25.972  1.00  0.00     0.197 C 
HETATM   14  O1  UNL     1      64.326  65.416  26.470  1.00  0.00    -0.647 OA
HETATM   15  O2  UNL     1      63.010  65.446  24.596  1.00  0.00    -0.647 OA
ENDBRANCH   5  13
ENDBRANCH   1   5
BRANCH   3  16
HETATM   16  N2  UNL     1      59.276  63.942  24.657  1.00  0.00    -0.261 N 
HETATM   17  C4  UNL     1      58.158  64.467  24.286  1.00  0.00     0.261 A 
HETATM   18  N3  UNL     1      57.174  63.776  23.674  1.00  0.00    -0.261 N 
HETATM   19  O4  UNL     1      57.730  65.699  24.402  1.00  0.00    -0.248 OA
HETATM   20  N4  UNL     1      56.174  64.614  23.434  1.00  0.00    -0.267 N 
ATOM     21  H3  UNL     1      57.196  62.784  23.437  1.00  0.00     0.190 HD
HETATM   22  C5  UNL     1      56.527  65.827  23.895  1.00  0.00     0.237 A 
ATOM     23  H4  UNL     1      55.291  64.378  22.980  1.00  0.00     0.190 HD
HETATM   24  S1  UNL     1      55.710  67.231  23.879  1.00  0.00    -0.031 SA
ATOM     25  H2  UNL     1      59.485  62.956  24.506  1.00  0.00     0.190 HD
ENDBRANCH   3  16
TORSDOF 3
ENDMDL
MODEL 4
REMARK VINA RESULT: -5.546164048      9.276     10.882
REMARK  3 active torsions:
REMARK  status: ('A' for Active; 'I' for Inactive)
REMARK    1  A    between atoms: C1_2  and  C2_4 
REMARK    2  A    between atoms: C2_4  and  C3_5 
REMARK       I    between atoms: C3_5  and  N1_7 
REMARK    3  A    between atoms: N1_7  and  N2_9 
ROOT
HETATM    1  C3  UNL     1      61.350  64.850  26.850  1.00  0.00     0.261 C 
HETATM    2  O3  UNL     1      61.896  63.749  26.768  1.00  0.00    -0.270 OA
HETATM    3  N1  UNL     1      60.159  65.158  26.169  1.00  0.00    -0.266 N 
ATOM      4  H1  UNL     1      59.755  66.088  26.278  1.00  0.00     0.190 HD
ENDROOT
BRANCH   1   5
HETATM    5  C2  UNL     1      61.963  65.914  27.705  1.00  0.00     0.166 C 
HETATM    6  C6  UNL     1      62.607  66.971  26.902  1.00  0.00     0.091 C 
HETATM    7  N5  UNL     1      63.780  67.517  27.431  1.00  0.00    -0.380 N 
HETATM    8  C7  UNL     1      63.887  67.469  28.831  1.00  0.00     0.065 C 
ATOM      9  H5  UNL     1      64.508  67.923  26.842  1.00  0.00     0.164 HD
HETATM   10  C8  UNL     1      63.816  66.064  29.386  1.00  0.00     0.031 A 
HETATM   11  C9  UNL     1      64.318  65.019  28.448  1.00  0.00     0.017 A 
HETATM   12  C10 UNL     1      62.867  65.205  28.667  1.00  0.00     0.029 A 
BRANCH   5  13
HETATM   13  C1  UNL     1      60.815  66.509  28.484  1.00  0.00     0.197 C 
HETATM   14  O1  UNL     1      60.100  65.753  29.138  1.00  0.00    -0.647 OA
HETATM   15  O2  UNL     1      60.591  67.880  28.447  1.00  0.00    -0.647 OA
ENDBRANCH   5  13
ENDBRANCH   1   5
BRANCH   3  16
HETATM   16  N2  UNL     1      59.500  64.218  25.334  1.00  0.00    -0.261 N 
HETATM   17  C4  UNL     1      58.414  64.622  24.767  1.00  0.00     0.261 A 
HETATM   18  N3  UNL     1      57.669  63.854  23.946  1.00  0.00    -0.261 N 
HETATM   19  O4  UNL     1      57.812  65.782  24.841  1.00  0.00    -0.248 OA
HETATM   20  N4  UNL     1      56.631  64.574  23.542  1.00  0.00    -0.267 N 
ATOM     21  H3  UNL     1      57.868  62.889  23.682  1.00  0.00     0.190 HD
HETATM   22  C5  UNL     1      56.723  65.791  24.108  1.00  0.00     0.237 A 
ATOM     23  H4  UNL     1      55.892  64.260  22.913  1.00  0.00     0.190 HD
HETATM   24  S1  UNL     1      55.744  67.081  23.981  1.00  0.00    -0.031 SA
ATOM     25  H2  UNL     1      59.864  63.276  25.192  1.00  0.00     0.190 HD
ENDBRANCH   3  16
TORSDOF 3
ENDMDL
MODEL 5
REMARK VINA RESULT: -5.362935369      1.676      2.415
REMARK  3 active torsions:
REMARK  status: ('A' for Active; 'I' for Inactive)
REMARK    1  A    between atoms: C1_2  and  C2_4 
REMARK    2  A    between atoms: C2_4  and  C3_5 
REMARK       I    between atoms: C3_5  and  N1_7 
REMARK    3  A    between atoms: N1_7  and  N2_9 
ROOT
HETATM    1  C3  UNL     1      56.615  72.133  20.755  1.00  0.00     0.261 C 
HETATM    2  O3  UNL     1      55.664  71.373  20.571  1.00  0.00    -0.270 OA
HETATM    3  N1  UNL     1      56.942  73.169  19.861  1.00  0.00    -0.266 N 
ATOM      4  H1  UNL     1      57.742  73.766  20.070  1.00  0.00     0.190 HD
ENDROOT
BRANCH   1   5
HETATM    5  C2  UNL     1      57.468  71.965  21.972  1.00  0.00     0.166 C 
HETATM    6  C6  UNL     1      57.265  73.051  22.950  1.00  0.00     0.091 C 
HETATM    7  N5  UNL     1      58.400  73.467  23.653  1.00  0.00    -0.380 N 
HETATM    8  C7  UNL     1      59.400  72.494  23.811  1.00  0.00     0.065 C 
ATOM      9  H5  UNL     1      58.495  74.413  24.024  1.00  0.00     0.164 HD
HETATM   10  C8  UNL     1      59.919  71.955  22.497  1.00  0.00     0.031 A 
HETATM   11  C9  UNL     1      59.838  72.927  21.371  1.00  0.00     0.017 A 
HETATM   12  C10 UNL     1      58.875  71.810  21.477  1.00  0.00     0.029 A 
BRANCH   5  13
HETATM   13  C1  UNL     1      57.035  70.654  22.584  1.00  0.00     0.197 C 
HETATM   14  O1  UNL     1      57.518  69.616  22.140  1.00  0.00    -0.647 OA
HETATM   15  O2  UNL     1      56.110  70.649  23.621  1.00  0.00    -0.647 OA
ENDBRANCH   5  13
ENDBRANCH   1   5
BRANCH   3  16
HETATM   16  N2  UNL     1      56.196  73.411  18.679  1.00  0.00    -0.261 N 
HETATM   17  C4  UNL     1      55.174  74.189  18.798  1.00  0.00     0.261 A 
HETATM   18  N3  UNL     1      54.361  74.519  17.774  1.00  0.00    -0.261 N 
HETATM   19  O4  UNL     1      54.707  74.802  19.857  1.00  0.00    -0.248 OA
HETATM   20  N4  UNL     1      53.420  75.328  18.243  1.00  0.00    -0.267 N 
ATOM     21  H3  UNL     1      54.453  74.203  16.809  1.00  0.00     0.190 HD
HETATM   22  C5  UNL     1      53.640  75.505  19.558  1.00  0.00     0.237 A 
ATOM     23  H4  UNL     1      52.662  75.743  17.701  1.00  0.00     0.190 HD
HETATM   24  S1  UNL     1      52.818  76.386  20.648  1.00  0.00    -0.031 SA
ATOM     25  H2  UNL     1      56.452  72.992  17.785  1.00  0.00     0.190 HD
ENDBRANCH   3  16
TORSDOF 3
ENDMDL
