MODEL 1
REMARK VINA RESULT: -8.694210438      0.000      0.000
REMARK  7 active torsions:
REMARK  status: ('A' for Active; 'I' for Inactive)
REMARK    1  A    between atoms: O1_1  and  C1_3 
REMARK    2  A    between atoms: C3_5  and  N1_6 
REMARK    3  A    between atoms: N2_9  and  C6_10 
REMARK    4  A    between atoms: C6_10  and  C7_11 
REMARK    5  A    between atoms: C16_21  and  C17_22 
REMARK    6  A    between atoms: N3_23  and  N4_25 
REMARK    7  A    between atoms: C21_31  and  O4_32 
ROOT
HETATM    1  C1  UNL     1      60.647  59.716  48.056  1.00  0.00     0.101 A 
HETATM    2  C2  UNL     1      59.884  58.650  47.616  1.00  0.00     0.068 A 
HETATM    3  C3  UNL     1      59.498  57.659  48.476  1.00  0.00     0.034 A 
HETATM    4  C15 UNL     1      59.897  57.759  49.807  1.00  0.00     0.045 A 
HETATM    5  C16 UNL     1      60.646  58.800  50.247  1.00  0.00     0.019 A 
HETATM    6  C21 UNL     1      61.032  59.798  49.370  1.00  0.00     0.110 A 
ENDROOT
BRANCH   3   7
HETATM    7  N1  UNL     1      58.717  56.545  48.102  1.00  0.00    -0.378 N 
HETATM    8  C4  UNL     1      57.832  56.557  46.977  1.00  0.00     0.142 C 
HETATM    9  C5  UNL     1      58.281  55.397  46.080  1.00  0.00     0.137 C 
HETATM   10  N2  UNL     1      58.215  54.158  46.756  1.00  0.00    -0.405 N 
HETATM   11  C13 UNL     1      58.024  54.201  48.156  1.00  0.00     0.137 C 
HETATM   12  C14 UNL     1      58.779  55.300  48.858  1.00  0.00     0.142 C 
BRANCH  10  13
HETATM   13  C6  UNL     1      59.072  53.132  46.258  1.00  0.00     0.155 C 
BRANCH  13  14
HETATM   14  C7  UNL     1      58.280  52.227  45.390  1.00  0.00    -0.041 A 
HETATM   15  C8  UNL     1      56.909  52.289  45.286  1.00  0.00     0.012 A 
HETATM   16  C9  UNL     1      56.201  51.422  44.462  1.00  0.00     0.043 A 
HETATM   17  C10 UNL     1      56.864  50.472  43.725  1.00  0.00     0.116 A 
HETATM   18  F1  UNL     1      56.151  49.622  42.914  1.00  0.00    -0.206 F 
HETATM   19  C11 UNL     1      58.227  50.394  43.815  1.00  0.00     0.043 A 
HETATM   20  C12 UNL     1      58.916  51.252  44.628  1.00  0.00     0.012 A 
ENDBRANCH  13  14
ENDBRANCH  10  13
ENDBRANCH   3   7
BRANCH   1  21
HETATM   21  O1  UNL     1      60.982  60.661  47.103  1.00  0.00    -0.358 OA
ATOM     22  H1  UNL     1      61.907  60.747  46.905  1.00  0.00     0.217 HD
ENDBRANCH   1  21
BRANCH   5  23
HETATM   23  C17 UNL     1      61.050  58.871  51.669  1.00  0.00     0.123 C 
HETATM   24  N3  UNL     1      60.533  59.770  52.394  1.00  0.00    -0.289 N 
ATOM     25  H3  UNL     1      59.864  60.397  51.946  1.00  0.00     0.188 HD
BRANCH  24  26
HETATM   26  N4  UNL     1      60.789  59.985  53.733  1.00  0.00    -0.195 N 
HETATM   27  C18 UNL     1      60.174  61.082  54.423  1.00  0.00     0.203 C 
HETATM   28  C19 UNL     1      59.395  60.475  55.596  1.00  0.00     0.194 C 
HETATM   29  O2  UNL     1      59.581  59.092  55.501  1.00  0.00    -0.363 OA
HETATM   30  C20 UNL     1      60.931  58.739  55.544  1.00  0.00     0.371 C 
HETATM   31  O3  UNL     1      61.616  59.169  54.395  1.00  0.00    -0.237 OA
ENDBRANCH  24  26
ENDBRANCH   5  23
BRANCH   6  32
HETATM   32  O4  UNL     1      61.791  60.852  49.826  1.00  0.00    -0.357 OA
ATOM     33  H4  UNL     1      61.597  61.276  50.653  1.00  0.00     0.217 HD
ENDBRANCH   6  32
TORSDOF 7
ENDMDL
MODEL 2
REMARK VINA RESULT: -8.552612736      2.706      4.195
REMARK  7 active torsions:
REMARK  status: ('A' for Active; 'I' for Inactive)
REMARK    1  A    between atoms: O1_1  and  C1_3 
REMARK    2  A    between atoms: C3_5  and  N1_6 
REMARK    3  A    between atoms: N2_9  and  C6_10 
REMARK    4  A    between atoms: C6_10  and  C7_11 
REMARK    5  A    between atoms: C16_21  and  C17_22 
REMARK    6  A    between atoms: N3_23  and  N4_25 
REMARK    7  A    between atoms: C21_31  and  O4_32 
ROOT
HETATM    1  C1  UNL     1      60.611  58.333  53.618  1.00  0.00     0.101 A 
HETATM    2  C2  UNL     1      60.479  57.516  52.511  1.00  0.00     0.068 A 
HETATM    3  C3  UNL     1      60.478  58.038  51.247  1.00  0.00     0.034 A 
HETATM    4  C15 UNL     1      60.613  59.419  51.112  1.00  0.00     0.045 A 
HETATM    5  C16 UNL     1      60.743  60.227  52.192  1.00  0.00     0.019 A 
HETATM    6  C21 UNL     1      60.743  59.690  53.468  1.00  0.00     0.110 A 
ENDROOT
BRANCH   3   7
HETATM    7  N1  UNL     1      60.353  57.268  50.071  1.00  0.00    -0.378 N 
HETATM    8  C4  UNL     1      61.133  56.094  49.822  1.00  0.00     0.142 C 
HETATM    9  C5  UNL     1      60.123  54.965  49.583  1.00  0.00     0.137 C 
HETATM   10  N2  UNL     1      59.277  55.245  48.487  1.00  0.00    -0.405 N 
HETATM   11  C13 UNL     1      59.299  56.564  47.980  1.00  0.00     0.137 C 
HETATM   12  C14 UNL     1      59.400  57.638  49.032  1.00  0.00     0.142 C 
BRANCH  10  13
HETATM   13  C6  UNL     1      58.013  54.583  48.494  1.00  0.00     0.155 C 
BRANCH  13  14
HETATM   14  C7  UNL     1      57.911  53.735  47.281  1.00  0.00    -0.041 A 
HETATM   15  C8  UNL     1      58.985  53.072  46.731  1.00  0.00     0.012 A 
HETATM   16  C9  UNL     1      58.851  52.287  45.592  1.00  0.00     0.043 A 
HETATM   17  C10 UNL     1      57.627  52.153  44.984  1.00  0.00     0.116 A 
HETATM   18  F1  UNL     1      57.509  51.373  43.859  1.00  0.00    -0.206 F 
HETATM   19  C11 UNL     1      56.547  52.804  45.516  1.00  0.00     0.043 A 
HETATM   20  C12 UNL     1      56.688  53.575  46.637  1.00  0.00     0.012 A 
ENDBRANCH  13  14
ENDBRANCH  10  13
ENDBRANCH   3   7
BRANCH   1  21
HETATM   21  O1  UNL     1      60.599  57.701  54.848  1.00  0.00    -0.358 OA
ATOM     22  H1  UNL     1      60.606  58.267  55.611  1.00  0.00     0.217 HD
ENDBRANCH   1  21
BRANCH   5  23
HETATM   23  C17 UNL     1      60.885  61.689  52.008  1.00  0.00     0.123 C 
HETATM   24  N3  UNL     1      60.231  62.455  52.774  1.00  0.00    -0.289 N 
ATOM     25  H3  UNL     1      59.641  62.010  53.478  1.00  0.00     0.188 HD
BRANCH  24  26
HETATM   26  N4  UNL     1      60.240  63.835  52.749  1.00  0.00    -0.195 N 
HETATM   27  C18 UNL     1      59.869  64.541  51.557  1.00  0.00     0.203 C 
HETATM   28  C19 UNL     1      58.699  65.455  51.941  1.00  0.00     0.194 C 
HETATM   29  O2  UNL     1      58.452  65.209  53.294  1.00  0.00    -0.363 OA
HETATM   30  C20 UNL     1      59.575  65.453  54.087  1.00  0.00     0.371 C 
HETATM   31  O3  UNL     1      60.596  64.521  53.840  1.00  0.00    -0.237 OA
ENDBRANCH  24  26
ENDBRANCH   5  23
BRANCH   6  32
HETATM   32  O4  UNL     1      60.875  60.519  54.557  1.00  0.00    -0.357 OA
ATOM     33  H4  UNL     1      61.714  60.638  54.986  1.00  0.00     0.217 HD
ENDBRANCH   6  32
TORSDOF 7
ENDMDL
MODEL 3
REMARK VINA RESULT: -8.429662195      0.949      1.519
REMARK  7 active torsions:
REMARK  status: ('A' for Active; 'I' for Inactive)
REMARK    1  A    between atoms: O1_1  and  C1_3 
REMARK    2  A    between atoms: C3_5  and  N1_6 
REMARK    3  A    between atoms: N2_9  and  C6_10 
REMARK    4  A    between atoms: C6_10  and  C7_11 
REMARK    5  A    between atoms: C16_21  and  C17_22 
REMARK    6  A    between atoms: N3_23  and  N4_25 
REMARK    7  A    between atoms: C21_31  and  O4_32 
ROOT
HETATM    1  C1  UNL     1      59.834  59.846  48.172  1.00  0.00     0.101 A 
HETATM    2  C2  UNL     1      59.755  58.591  47.596  1.00  0.00     0.068 A 
HETATM    3  C3  UNL     1      60.124  57.473  48.292  1.00  0.00     0.034 A 
HETATM    4  C15 UNL     1      60.582  57.639  49.598  1.00  0.00     0.045 A 
HETATM    5  C16 UNL     1      60.663  58.865  50.170  1.00  0.00     0.019 A 
HETATM    6  C21 UNL     1      60.287  59.991  49.458  1.00  0.00     0.110 A 
ENDROOT
BRANCH   3   7
HETATM    7  N1  UNL     1      60.067  56.162  47.774  1.00  0.00    -0.378 N 
HETATM    8  C4  UNL     1      60.135  54.995  48.600  1.00  0.00     0.142 C 
HETATM    9  C5  UNL     1      58.862  54.195  48.300  1.00  0.00     0.137 C 
HETATM   10  N2  UNL     1      58.778  53.838  46.935  1.00  0.00    -0.405 N 
HETATM   11  C13 UNL     1      59.683  54.469  46.051  1.00  0.00     0.137 C 
HETATM   12  C14 UNL     1      59.929  55.928  46.342  1.00  0.00     0.142 C 
BRANCH  10  13
HETATM   13  C6  UNL     1      57.465  53.590  46.437  1.00  0.00     0.155 C 
BRANCH  13  14
HETATM   14  C7  UNL     1      57.521  52.451  45.488  1.00  0.00    -0.041 A 
HETATM   15  C8  UNL     1      58.689  51.800  45.158  1.00  0.00     0.012 A 
HETATM   16  C9  UNL     1      58.702  50.737  44.262  1.00  0.00     0.043 A 
HETATM   17  C10 UNL     1      57.534  50.308  43.681  1.00  0.00     0.116 A 
HETATM   18  F1  UNL     1      57.562  49.255  42.798  1.00  0.00    -0.206 F 
HETATM   19  C11 UNL     1      56.363  50.942  43.996  1.00  0.00     0.043 A 
HETATM   20  C12 UNL     1      56.359  51.987  44.878  1.00  0.00     0.012 A 
ENDBRANCH  13  14
ENDBRANCH  10  13
ENDBRANCH   3   7
BRANCH   1  21
HETATM   21  O1  UNL     1      59.436  60.907  47.380  1.00  0.00    -0.358 OA
ATOM     22  H1  UNL     1      59.603  61.775  47.727  1.00  0.00     0.217 HD
ENDBRANCH   1  21
BRANCH   5  23
HETATM   23  C17 UNL     1      61.153  59.001  51.559  1.00  0.00     0.123 C 
HETATM   24  N3  UNL     1      60.461  59.676  52.376  1.00  0.00    -0.289 N 
ATOM     25  H3  UNL     1      59.598  60.088  52.019  1.00  0.00     0.188 HD
BRANCH  24  26
HETATM   26  N4  UNL     1      60.760  59.907  53.703  1.00  0.00    -0.195 N 
HETATM   27  C18 UNL     1      60.191  61.030  54.390  1.00  0.00     0.203 C 
HETATM   28  C19 UNL     1      59.433  60.462  55.596  1.00  0.00     0.194 C 
HETATM   29  O2  UNL     1      59.583  59.074  55.521  1.00  0.00    -0.363 OA
HETATM   30  C20 UNL     1      60.925  58.689  55.531  1.00  0.00     0.371 C 
HETATM   31  O3  UNL     1      61.586  59.082  54.355  1.00  0.00    -0.237 OA
ENDBRANCH  24  26
ENDBRANCH   5  23
BRANCH   6  32
HETATM   32  O4  UNL     1      60.372  61.231  50.048  1.00  0.00    -0.357 OA
ATOM     33  H4  UNL     1      60.951  61.387  50.785  1.00  0.00     0.217 HD
ENDBRANCH   6  32
TORSDOF 7
ENDMDL
MODEL 4
REMARK VINA RESULT: -8.399276251      1.088      1.516
REMARK  7 active torsions:
REMARK  status: ('A' for Active; 'I' for Inactive)
REMARK    1  A    between atoms: O1_1  and  C1_3 
REMARK    2  A    between atoms: C3_5  and  N1_6 
REMARK    3  A    between atoms: N2_9  and  C6_10 
REMARK    4  A    between atoms: C6_10  and  C7_11 
REMARK    5  A    between atoms: C16_21  and  C17_22 
REMARK    6  A    between atoms: N3_23  and  N4_25 
REMARK    7  A    between atoms: C21_31  and  O4_32 
ROOT
HETATM    1  C1  UNL     1      62.200  59.942  47.936  1.00  0.00     0.101 A 
HETATM    2  C2  UNL     1      61.422  59.071  47.196  1.00  0.00     0.068 A 
HETATM    3  C3  UNL     1      60.359  58.422  47.761  1.00  0.00     0.034 A 
HETATM    4  C15 UNL     1      60.086  58.667  49.106  1.00  0.00     0.045 A 
HETATM    5  C16 UNL     1      60.843  59.520  49.839  1.00  0.00     0.019 A 
HETATM    6  C21 UNL     1      61.917  60.172  49.258  1.00  0.00     0.110 A 
ENDROOT
BRANCH   3   7
HETATM    7  N1  UNL     1      59.519  57.524  47.070  1.00  0.00    -0.378 N 
HETATM    8  C4  UNL     1      59.791  57.071  45.740  1.00  0.00     0.142 C 
HETATM    9  C5  UNL     1      59.840  55.540  45.821  1.00  0.00     0.137 C 
HETATM   10  N2  UNL     1      58.622  55.003  46.294  1.00  0.00    -0.405 N 
HETATM   11  C13 UNL     1      57.694  55.911  46.851  1.00  0.00     0.137 C 
HETATM   12  C14 UNL     1      58.310  56.999  47.693  1.00  0.00     0.142 C 
BRANCH  10  13
HETATM   13  C6  UNL     1      58.707  53.717  46.907  1.00  0.00     0.155 C 
BRANCH  13  14
HETATM   14  C7  UNL     1      58.325  52.687  45.911  1.00  0.00    -0.041 A 
HETATM   15  C8  UNL     1      59.231  51.836  45.319  1.00  0.00     0.012 A 
HETATM   16  C9  UNL     1      58.834  50.883  44.388  1.00  0.00     0.043 A 
HETATM   17  C10 UNL     1      57.512  50.768  44.035  1.00  0.00     0.116 A 
HETATM   18  F1  UNL     1      57.135  49.821  43.114  1.00  0.00    -0.206 F 
HETATM   19  C11 UNL     1      56.596  51.604  44.613  1.00  0.00     0.043 A 
HETATM   20  C12 UNL     1      56.995  52.540  45.529  1.00  0.00     0.012 A 
ENDBRANCH  13  14
ENDBRANCH  10  13
ENDBRANCH   3   7
BRANCH   1  21
HETATM   21  O1  UNL     1      63.249  60.543  47.266  1.00  0.00    -0.358 OA
ATOM     22  H1  UNL     1      63.409  61.457  47.470  1.00  0.00     0.217 HD
ENDBRANCH   1  21
BRANCH   5  23
HETATM   23  C17 UNL     1      60.520  59.755  51.264  1.00  0.00     0.123 C 
HETATM   24  N3  UNL     1      61.373  59.412  52.135  1.00  0.00    -0.289 N 
ATOM     25  H3  UNL     1      62.237  58.991  51.794  1.00  0.00     0.188 HD
BRANCH  24  26
HETATM   26  N4  UNL     1      61.244  59.554  53.502  1.00  0.00    -0.195 N 
HETATM   27  C18 UNL     1      60.601  60.710  54.054  1.00  0.00     0.203 C 
HETATM   28  C19 UNL     1      59.435  60.192  54.907  1.00  0.00     0.194 C 
HETATM   29  O2  UNL     1      59.458  58.800  54.778  1.00  0.00    -0.363 OA
HETATM   30  C20 UNL     1      60.676  58.255  55.188  1.00  0.00     0.371 C 
HETATM   31  O3  UNL     1      61.722  58.610  54.319  1.00  0.00    -0.237 OA
ENDBRANCH  24  26
ENDBRANCH   5  23
BRANCH   6  32
HETATM   32  O4  UNL     1      62.679  61.036  50.011  1.00  0.00    -0.357 OA
ATOM     33  H4  UNL     1      63.220  60.720  50.725  1.00  0.00     0.217 HD
ENDBRANCH   6  32
TORSDOF 7
ENDMDL
MODEL 5
REMARK VINA RESULT: -8.205720079      2.175      2.525
REMARK  7 active torsions:
REMARK  status: ('A' for Active; 'I' for Inactive)
REMARK    1  A    between atoms: O1_1  and  C1_3 
REMARK    2  A    between atoms: C3_5  and  N1_6 
REMARK    3  A    between atoms: N2_9  and  C6_10 
REMARK    4  A    between atoms: C6_10  and  C7_11 
REMARK    5  A    between atoms: C16_21  and  C17_22 
REMARK    6  A    between atoms: N3_23  and  N4_25 
REMARK    7  A    between atoms: C21_31  and  O4_32 
ROOT
HETATM    1  C1  UNL     1      62.386  59.872  47.787  1.00  0.00     0.101 A 
HETATM    2  C2  UNL     1      61.504  58.884  47.389  1.00  0.00     0.068 A 
HETATM    3  C3  UNL     1      60.425  58.550  48.161  1.00  0.00     0.034 A 
HETATM    4  C15 UNL     1      60.244  59.237  49.360  1.00  0.00     0.045 A 
HETATM    5  C16 UNL     1      61.104  60.207  49.758  1.00  0.00     0.019 A 
HETATM    6  C21 UNL     1      62.193  60.538  48.971  1.00  0.00     0.110 A 
ENDROOT
BRANCH   3   7
HETATM    7  N1  UNL     1      59.482  57.558  47.819  1.00  0.00    -0.378 N 
HETATM    8  C4  UNL     1      58.900  57.454  46.516  1.00  0.00     0.142 C 
HETATM    9  C5  UNL     1      59.215  56.035  46.029  1.00  0.00     0.137 C 
HETATM   10  N2  UNL     1      58.681  55.055  46.896  1.00  0.00    -0.405 N 
HETATM   11  C13 UNL     1      58.206  55.499  48.150  1.00  0.00     0.137 C 
HETATM   12  C14 UNL     1      59.050  56.568  48.797  1.00  0.00     0.142 C 
BRANCH  10  13
HETATM   13  C6  UNL     1      59.328  53.784  46.869  1.00  0.00     0.155 C 
BRANCH  13  14
HETATM   14  C7  UNL     1      58.544  52.865  46.009  1.00  0.00    -0.041 A 
HETATM   15  C8  UNL     1      57.174  52.934  45.883  1.00  0.00     0.012 A 
HETATM   16  C9  UNL     1      56.472  52.053  45.067  1.00  0.00     0.043 A 
HETATM   17  C10 UNL     1      57.140  51.085  44.360  1.00  0.00     0.116 A 
HETATM   18  F1  UNL     1      56.434  50.222  43.557  1.00  0.00    -0.206 F 
HETATM   19  C11 UNL     1      58.502  51.000  44.471  1.00  0.00     0.043 A 
HETATM   20  C12 UNL     1      59.184  51.870  45.276  1.00  0.00     0.012 A 
ENDBRANCH  13  14
ENDBRANCH  10  13
ENDBRANCH   3   7
BRANCH   1  21
HETATM   21  O1  UNL     1      63.441  60.129  46.932  1.00  0.00    -0.358 OA
ATOM     22  H1  UNL     1      64.291  60.252  47.339  1.00  0.00     0.217 HD
ENDBRANCH   1  21
BRANCH   5  23
HETATM   23  C17 UNL     1      60.877  60.914  51.038  1.00  0.00     0.123 C 
HETATM   24  N3  UNL     1      60.801  62.177  51.019  1.00  0.00    -0.289 N 
ATOM     25  H3  UNL     1      60.902  62.632  50.111  1.00  0.00     0.188 HD
BRANCH  24  26
HETATM   26  N4  UNL     1      60.594  62.999  52.109  1.00  0.00    -0.195 N 
HETATM   27  C18 UNL     1      60.903  64.397  52.032  1.00  0.00     0.203 C 
HETATM   28  C19 UNL     1      59.606  65.147  52.360  1.00  0.00     0.194 C 
HETATM   29  O2  UNL     1      58.640  64.160  52.575  1.00  0.00    -0.363 OA
HETATM   30  C20 UNL     1      59.001  63.286  53.602  1.00  0.00     0.371 C 
HETATM   31  O3  UNL     1      60.103  62.492  53.244  1.00  0.00    -0.237 OA
ENDBRANCH  24  26
ENDBRANCH   5  23
BRANCH   6  32
HETATM   32  O4  UNL     1      63.059  61.524  49.383  1.00  0.00    -0.357 OA
ATOM     33  H4  UNL     1      63.079  62.372  48.956  1.00  0.00     0.217 HD
ENDBRANCH   6  32
TORSDOF 7
ENDMDL
