MODEL 1
REMARK VINA RESULT: -6.872819957      0.000      0.000
REMARK  8 active torsions:
REMARK  status: ('A' for Active; 'I' for Inactive)
REMARK    1  A    between atoms: O1_1  and  C1_3 
REMARK    2  A    between atoms: N1_5  and  C3_6 
REMARK    3  A    between atoms: C5_9  and  C6_10 
REMARK    4  A    between atoms: C8_14  and  O3_15 
REMARK    5  A    between atoms: O3_15  and  C9_16 
REMARK    6  A    between atoms: C9_16  and  C10_17 
REMARK    7  A    between atoms: C13_20  and  C14_21 
REMARK    8  A    between atoms: C20_31  and  O4_32 
ROOT
HETATM    1  C6  UNL     1      61.563  58.789  49.963  1.00  0.00    -0.013 A 
HETATM    2  C7  UNL     1      62.648  58.777  49.122  1.00  0.00     0.100 A 
HETATM    3  N2  UNL     1      62.748  57.866  48.112  1.00  0.00    -0.346 N 
ATOM      4  H2  UNL     1      63.567  57.882  47.503  1.00  0.00     0.167 HD
HETATM    5  C8  UNL     1      61.789  56.947  47.904  1.00  0.00     0.154 A 
HETATM    6  C13 UNL     1      60.660  56.921  48.740  1.00  0.00     0.037 A 
HETATM    7  C17 UNL     1      60.565  57.830  49.745  1.00  0.00     0.028 A 
ENDROOT
BRANCH   1   8
HETATM    8  C5  UNL     1      61.471  59.781  51.044  1.00  0.00     0.158 C 
HETATM    9  O2  UNL     1      61.079  59.221  52.255  1.00  0.00    -0.379 OA
HETATM   10  C4  UNL     1      60.631  60.276  53.049  1.00  0.00     0.194 C 
HETATM   11  C3  UNL     1      60.032  61.289  52.123  1.00  0.00     0.110 C 
HETATM   12  C18 UNL     1      60.493  60.897  50.758  1.00  0.00     0.064 C 
BRANCH  11  13
HETATM   13  N1  UNL     1      60.222  62.646  52.452  1.00  0.00    -0.381 N 
HETATM   14  C2  UNL     1      59.859  63.589  51.451  1.00  0.00     0.157 C 
HETATM   15  C1  UNL     1      59.333  64.812  52.191  1.00  0.00     0.169 C 
HETATM   16  C20 UNL     1      58.784  64.156  53.461  1.00  0.00     0.186 C 
HETATM   17  C19 UNL     1      59.808  63.101  53.720  1.00  0.00     0.093 C 
BRANCH  15  18
HETATM   18  O1  UNL     1      58.336  65.452  51.465  1.00  0.00    -0.391 OA
ATOM     19  H1  UNL     1      58.274  65.104  50.582  1.00  0.00     0.210 HD
ENDBRANCH  15  18
BRANCH  16  20
HETATM   20  O4  UNL     1      58.677  65.098  54.480  1.00  0.00    -0.388 OA
ATOM     21  H4  UNL     1      57.826  65.034  54.898  1.00  0.00     0.210 HD
ENDBRANCH  16  20
ENDBRANCH  11  13
ENDBRANCH   1   8
BRANCH   6  22
HETATM   22  C14 UNL     1      59.641  55.912  48.491  1.00  0.00     0.076 A 
HETATM   23  S1  UNL     1      58.364  56.075  47.324  1.00  0.00    -0.011 SA
HETATM   24  N3  UNL     1      57.591  54.607  47.558  1.00  0.00    -0.334 N 
HETATM   25  C15 UNL     1      58.310  54.019  48.511  1.00  0.00     0.139 A 
ATOM     26  H3  UNL     1      56.763  54.249  47.081  1.00  0.00     0.173 HD
HETATM   27  C16 UNL     1      59.372  54.686  48.998  1.00  0.00     0.151 A 
HETATM   28  F1  UNL     1      60.154  54.114  49.996  1.00  0.00    -0.203 F 
ENDBRANCH   6  22
BRANCH   5  29
HETATM   29  O3  UNL     1      61.890  56.009  46.865  1.00  0.00    -0.335 OA
BRANCH  29  30
HETATM   30  C9  UNL     1      61.690  56.490  45.549  1.00  0.00     0.182 C 
BRANCH  30  31
HETATM   31  C10 UNL     1      61.618  55.378  44.528  1.00  0.00     0.010 A 
HETATM   32  C11 UNL     1      61.772  55.784  43.055  1.00  0.00     0.007 A 
HETATM   33  C12 UNL     1      62.830  54.991  43.808  1.00  0.00     0.007 A 
ENDBRANCH  30  31
ENDBRANCH  29  30
ENDBRANCH   5  29
TORSDOF 8
ENDMDL
MODEL 2
REMARK VINA RESULT: -6.865486419      3.281      4.340
REMARK  8 active torsions:
REMARK  status: ('A' for Active; 'I' for Inactive)
REMARK    1  A    between atoms: O1_1  and  C1_3 
REMARK    2  A    between atoms: N1_5  and  C3_6 
REMARK    3  A    between atoms: C5_9  and  C6_10 
REMARK    4  A    between atoms: C8_14  and  O3_15 
REMARK    5  A    between atoms: O3_15  and  C9_16 
REMARK    6  A    between atoms: C9_16  and  C10_17 
REMARK    7  A    between atoms: C13_20  and  C14_21 
REMARK    8  A    between atoms: C20_31  and  O4_32 
ROOT
HETATM    1  C6  UNL     1      61.234  57.597  47.867  1.00  0.00    -0.013 A 
HETATM    2  C7  UNL     1      62.235  56.666  48.001  1.00  0.00     0.100 A 
HETATM    3  N2  UNL     1      62.532  55.798  46.992  1.00  0.00    -0.346 N 
ATOM      4  H2  UNL     1      63.281  55.118  47.122  1.00  0.00     0.167 HD
HETATM    5  C8  UNL     1      61.856  55.822  45.830  1.00  0.00     0.154 A 
HETATM    6  C13 UNL     1      60.823  56.757  45.647  1.00  0.00     0.037 A 
HETATM    7  C17 UNL     1      60.530  57.619  46.655  1.00  0.00     0.028 A 
ENDROOT
BRANCH   1   8
HETATM    8  C5  UNL     1      60.931  58.527  48.964  1.00  0.00     0.158 C 
HETATM    9  O2  UNL     1      61.800  59.612  49.004  1.00  0.00    -0.379 OA
HETATM   10  C4  UNL     1      61.684  60.160  50.281  1.00  0.00     0.194 C 
HETATM   11  C3  UNL     1      61.383  59.027  51.212  1.00  0.00     0.110 C 
HETATM   12  C18 UNL     1      60.990  57.887  50.332  1.00  0.00     0.064 C 
BRANCH  11  13
HETATM   13  N1  UNL     1      60.499  59.294  52.277  1.00  0.00    -0.381 N 
HETATM   14  C2  UNL     1      60.279  58.225  53.188  1.00  0.00     0.157 C 
HETATM   15  C1  UNL     1      60.078  58.867  54.555  1.00  0.00     0.169 C 
HETATM   16  C20 UNL     1      60.918  60.136  54.394  1.00  0.00     0.186 C 
HETATM   17  C19 UNL     1      60.629  60.509  52.978  1.00  0.00     0.093 C 
BRANCH  15  18
HETATM   18  O1  UNL     1      60.559  58.051  55.572  1.00  0.00    -0.391 OA
ATOM     19  H1  UNL     1      59.848  57.670  56.074  1.00  0.00     0.210 HD
ENDBRANCH  15  18
BRANCH  16  20
HETATM   20  O4  UNL     1      60.522  61.096  55.320  1.00  0.00    -0.388 OA
ATOM     21  H4  UNL     1      61.219  61.254  55.947  1.00  0.00     0.210 HD
ENDBRANCH  16  20
ENDBRANCH  11  13
ENDBRANCH   1   8
BRANCH   6  22
HETATM   22  C14 UNL     1      60.108  56.754  44.380  1.00  0.00     0.076 A 
HETATM   23  S1  UNL     1      58.491  56.157  44.166  1.00  0.00    -0.011 SA
HETATM   24  N3  UNL     1      58.305  56.447  42.527  1.00  0.00    -0.334 N 
HETATM   25  C15 UNL     1      59.466  56.990  42.168  1.00  0.00     0.139 A 
ATOM     26  H3  UNL     1      57.494  56.253  41.941  1.00  0.00     0.173 HD
HETATM   27  C16 UNL     1      60.404  57.154  43.120  1.00  0.00     0.151 A 
HETATM   28  F1  UNL     1      61.633  57.716  42.795  1.00  0.00    -0.203 F 
ENDBRANCH   6  22
BRANCH   5  29
HETATM   29  O3  UNL     1      62.160  54.930  44.791  1.00  0.00    -0.335 OA
BRANCH  29  30
HETATM   30  C9  UNL     1      63.488  54.946  44.303  1.00  0.00     0.182 C 
BRANCH  30  31
HETATM   31  C10 UNL     1      63.553  54.986  42.794  1.00  0.00     0.010 A 
HETATM   32  C11 UNL     1      63.921  53.674  42.084  1.00  0.00     0.007 A 
HETATM   33  C12 UNL     1      62.530  54.288  42.016  1.00  0.00     0.007 A 
ENDBRANCH  30  31
ENDBRANCH  29  30
ENDBRANCH   5  29
TORSDOF 8
ENDMDL
MODEL 3
REMARK VINA RESULT: -6.858901432      2.380      3.014
REMARK  8 active torsions:
REMARK  status: ('A' for Active; 'I' for Inactive)
REMARK    1  A    between atoms: O1_1  and  C1_3 
REMARK    2  A    between atoms: N1_5  and  C3_6 
REMARK    3  A    between atoms: C5_9  and  C6_10 
REMARK    4  A    between atoms: C8_14  and  O3_15 
REMARK    5  A    between atoms: O3_15  and  C9_16 
REMARK    6  A    between atoms: C9_16  and  C10_17 
REMARK    7  A    between atoms: C13_20  and  C14_21 
REMARK    8  A    between atoms: C20_31  and  O4_32 
ROOT
HETATM    1  C6  UNL     1      61.016  58.453  50.426  1.00  0.00    -0.013 A 
HETATM    2  C7  UNL     1      61.280  57.129  50.681  1.00  0.00     0.100 A 
HETATM    3  N2  UNL     1      61.079  56.173  49.731  1.00  0.00    -0.346 N 
ATOM      4  H2  UNL     1      61.285  55.198  49.950  1.00  0.00     0.167 HD
HETATM    5  C8  UNL     1      60.616  56.490  48.509  1.00  0.00     0.154 A 
HETATM    6  C13 UNL     1      60.332  57.831  48.201  1.00  0.00     0.037 A 
HETATM    7  C17 UNL     1      60.533  58.781  49.152  1.00  0.00     0.028 A 
ENDROOT
BRANCH   1   8
HETATM    8  C5  UNL     1      61.241  59.470  51.462  1.00  0.00     0.158 C 
HETATM    9  O2  UNL     1      61.071  58.973  52.750  1.00  0.00    -0.379 OA
HETATM   10  C4  UNL     1      60.894  60.080  53.578  1.00  0.00     0.194 C 
HETATM   11  C3  UNL     1      60.198  61.125  52.761  1.00  0.00     0.110 C 
HETATM   12  C18 UNL     1      60.322  60.665  51.346  1.00  0.00     0.064 C 
BRANCH  11  13
HETATM   13  N1  UNL     1      60.569  62.465  52.989  1.00  0.00    -0.381 N 
HETATM   14  C2  UNL     1      60.738  63.272  51.830  1.00  0.00     0.157 C 
HETATM   15  C1  UNL     1      60.290  64.675  52.221  1.00  0.00     0.169 C 
HETATM   16  C20 UNL     1      59.255  64.347  53.300  1.00  0.00     0.186 C 
HETATM   17  C19 UNL     1      59.898  63.192  53.992  1.00  0.00     0.093 C 
BRANCH  15  18
HETATM   18  O1  UNL     1      59.723  65.343  51.143  1.00  0.00    -0.391 OA
ATOM     19  H1  UNL     1      60.122  66.197  51.017  1.00  0.00     0.210 HD
ENDBRANCH  15  18
BRANCH  16  20
HETATM   20  O4  UNL     1      59.050  65.452  54.121  1.00  0.00    -0.388 OA
ATOM     21  H4  UNL     1      58.198  65.398  54.538  1.00  0.00     0.210 HD
ENDBRANCH  16  20
ENDBRANCH  11  13
ENDBRANCH   1   8
BRANCH   6  22
HETATM   22  C14 UNL     1      59.830  58.142  46.871  1.00  0.00     0.076 A 
HETATM   23  S1  UNL     1      60.793  58.812  45.590  1.00  0.00    -0.011 SA
HETATM   24  N3  UNL     1      59.626  58.910  44.392  1.00  0.00    -0.334 N 
HETATM   25  C15 UNL     1      58.530  58.435  44.978  1.00  0.00     0.139 A 
ATOM     26  H3  UNL     1      59.731  59.253  43.437  1.00  0.00     0.173 HD
HETATM   27  C16 UNL     1      58.626  58.035  46.260  1.00  0.00     0.151 A 
HETATM   28  F1  UNL     1      57.508  57.532  46.917  1.00  0.00    -0.203 F 
ENDBRANCH   6  22
BRANCH   5  29
HETATM   29  O3  UNL     1      60.410  55.508  47.528  1.00  0.00    -0.335 OA
BRANCH  29  30
HETATM   30  C9  UNL     1      59.352  54.595  47.751  1.00  0.00     0.182 C 
BRANCH  30  31
HETATM   31  C10 UNL     1      58.607  54.247  46.483  1.00  0.00     0.010 A 
HETATM   32  C11 UNL     1      58.553  52.760  46.101  1.00  0.00     0.007 A 
HETATM   33  C12 UNL     1      57.333  53.535  46.577  1.00  0.00     0.007 A 
ENDBRANCH  30  31
ENDBRANCH  29  30
ENDBRANCH   5  29
TORSDOF 8
ENDMDL
MODEL 4
REMARK VINA RESULT: -6.856619608      3.102      4.374
REMARK  8 active torsions:
REMARK  status: ('A' for Active; 'I' for Inactive)
REMARK    1  A    between atoms: O1_1  and  C1_3 
REMARK    2  A    between atoms: N1_5  and  C3_6 
REMARK    3  A    between atoms: C5_9  and  C6_10 
REMARK    4  A    between atoms: C8_14  and  O3_15 
REMARK    5  A    between atoms: O3_15  and  C9_16 
REMARK    6  A    between atoms: C9_16  and  C10_17 
REMARK    7  A    between atoms: C13_20  and  C14_21 
REMARK    8  A    between atoms: C20_31  and  O4_32 
ROOT
HETATM    1  C6  UNL     1      61.368  55.920  47.779  1.00  0.00    -0.013 A 
HETATM    2  C7  UNL     1      62.647  56.093  47.309  1.00  0.00     0.100 A 
HETATM    3  N2  UNL     1      62.971  55.797  46.019  1.00  0.00    -0.346 N 
ATOM      4  H2  UNL     1      63.930  55.936  45.698  1.00  0.00     0.167 HD
HETATM    5  C8  UNL     1      62.051  55.325  45.159  1.00  0.00     0.154 A 
HETATM    6  C13 UNL     1      60.730  55.132  45.595  1.00  0.00     0.037 A 
HETATM    7  C17 UNL     1      60.411  55.427  46.882  1.00  0.00     0.028 A 
ENDROOT
BRANCH   1   8
HETATM    8  C5  UNL     1      61.037  56.248  49.173  1.00  0.00     0.158 C 
HETATM    9  O2  UNL     1      59.678  56.128  49.445  1.00  0.00    -0.379 OA
HETATM   10  C4  UNL     1      59.447  56.847  50.616  1.00  0.00     0.194 C 
HETATM   11  C3  UNL     1      60.417  57.988  50.621  1.00  0.00     0.110 C 
HETATM   12  C18 UNL     1      61.426  57.653  49.572  1.00  0.00     0.064 C 
BRANCH  11  13
HETATM   13  N1  UNL     1      60.955  58.364  51.868  1.00  0.00    -0.381 N 
HETATM   14  C2  UNL     1      60.982  59.759  52.143  1.00  0.00     0.157 C 
HETATM   15  C1  UNL     1      60.757  59.901  53.643  1.00  0.00     0.169 C 
HETATM   16  C20 UNL     1      59.916  58.652  53.919  1.00  0.00     0.186 C 
HETATM   17  C19 UNL     1      60.561  57.651  53.019  1.00  0.00     0.093 C 
BRANCH  15  18
HETATM   18  O1  UNL     1      60.066  61.069  53.942  1.00  0.00    -0.391 OA
ATOM     19  H1  UNL     1      59.708  61.044  54.822  1.00  0.00     0.210 HD
ENDBRANCH  15  18
BRANCH  16  20
HETATM   20  O4  UNL     1      59.980  58.318  55.269  1.00  0.00    -0.388 OA
ATOM     21  H4  UNL     1      59.178  57.884  55.537  1.00  0.00     0.210 HD
ENDBRANCH  16  20
ENDBRANCH  11  13
ENDBRANCH   1   8
BRANCH   6  22
HETATM   22  C14 UNL     1      59.758  54.616  44.641  1.00  0.00     0.076 A 
HETATM   23  S1  UNL     1      58.512  55.571  43.897  1.00  0.00    -0.011 SA
HETATM   24  N3  UNL     1      57.789  54.391  42.953  1.00  0.00    -0.334 N 
HETATM   25  C15 UNL     1      58.500  53.297  43.215  1.00  0.00     0.139 A 
ATOM     26  H3  UNL     1      56.991  54.488  42.326  1.00  0.00     0.173 HD
HETATM   27  C16 UNL     1      59.521  53.405  44.085  1.00  0.00     0.151 A 
HETATM   28  F1  UNL     1      60.293  52.290  44.392  1.00  0.00    -0.203 F 
ENDBRANCH   6  22
BRANCH   5  29
HETATM   29  O3  UNL     1      62.382  55.020  43.830  1.00  0.00    -0.335 OA
BRANCH  29  30
HETATM   30  C9  UNL     1      63.708  54.591  43.584  1.00  0.00     0.182 C 
BRANCH  30  31
HETATM   31  C10 UNL     1      63.768  53.215  42.961  1.00  0.00     0.010 A 
HETATM   32  C11 UNL     1      64.548  53.088  41.644  1.00  0.00     0.007 A 
HETATM   33  C12 UNL     1      65.038  52.490  42.955  1.00  0.00     0.007 A 
ENDBRANCH  30  31
ENDBRANCH  29  30
ENDBRANCH   5  29
TORSDOF 8
ENDMDL
MODEL 5
REMARK VINA RESULT: -6.799327740      2.218      2.645
REMARK  8 active torsions:
REMARK  status: ('A' for Active; 'I' for Inactive)
REMARK    1  A    between atoms: O1_1  and  C1_3 
REMARK    2  A    between atoms: N1_5  and  C3_6 
REMARK    3  A    between atoms: C5_9  and  C6_10 
REMARK    4  A    between atoms: C8_14  and  O3_15 
REMARK    5  A    between atoms: O3_15  and  C9_16 
REMARK    6  A    between atoms: C9_16  and  C10_17 
REMARK    7  A    between atoms: C13_20  and  C14_21 
REMARK    8  A    between atoms: C20_31  and  O4_32 
ROOT
HETATM    1  C6  UNL     1      61.173  58.666  49.914  1.00  0.00    -0.013 A 
HETATM    2  C7  UNL     1      61.703  57.400  49.950  1.00  0.00     0.100 A 
HETATM    3  N2  UNL     1      61.571  56.550  48.892  1.00  0.00    -0.346 N 
ATOM      4  H2  UNL     1      61.976  55.614  48.948  1.00  0.00     0.167 HD
HETATM    5  C8  UNL     1      60.919  56.920  47.776  1.00  0.00     0.154 A 
HETATM    6  C13 UNL     1      60.361  58.207  47.694  1.00  0.00     0.037 A 
HETATM    7  C17 UNL     1      60.493  59.050  48.750  1.00  0.00     0.028 A 
ENDROOT
BRANCH   1   8
HETATM    8  C5  UNL     1      61.328  59.570  51.063  1.00  0.00     0.158 C 
HETATM    9  O2  UNL     1      61.071  58.944  52.278  1.00  0.00    -0.379 OA
HETATM   10  C4  UNL     1      60.839  59.961  53.202  1.00  0.00     0.194 C 
HETATM   11  C3  UNL     1      60.199  61.089  52.453  1.00  0.00     0.110 C 
HETATM   12  C18 UNL     1      60.419  60.777  51.009  1.00  0.00     0.064 C 
BRANCH  11  13
HETATM   13  N1  UNL     1      60.553  62.396  52.842  1.00  0.00    -0.381 N 
HETATM   14  C2  UNL     1      60.801  63.317  51.787  1.00  0.00     0.157 C 
HETATM   15  C1  UNL     1      60.327  64.675  52.290  1.00  0.00     0.169 C 
HETATM   16  C20 UNL     1      59.221  64.245  53.256  1.00  0.00     0.186 C 
HETATM   17  C19 UNL     1      59.817  63.021  53.868  1.00  0.00     0.093 C 
BRANCH  15  18
HETATM   18  O1  UNL     1      59.834  65.455  51.250  1.00  0.00    -0.391 OA
ATOM     19  H1  UNL     1      60.460  66.122  50.992  1.00  0.00     0.210 HD
ENDBRANCH  15  18
BRANCH  16  20
HETATM   20  O4  UNL     1      58.961  65.261  54.171  1.00  0.00    -0.388 OA
ATOM     21  H4  UNL     1      58.138  65.098  54.618  1.00  0.00     0.210 HD
ENDBRANCH  16  20
ENDBRANCH  11  13
ENDBRANCH   1   8
BRANCH   6  22
HETATM   22  C14 UNL     1      59.658  58.576  46.474  1.00  0.00     0.076 A 
HETATM   23  S1  UNL     1      57.929  58.657  46.324  1.00  0.00    -0.011 SA
HETATM   24  N3  UNL     1      57.815  59.125  44.719  1.00  0.00    -0.334 N 
HETATM   25  C15 UNL     1      59.083  59.212  44.324  1.00  0.00     0.139 A 
ATOM     26  H3  UNL     1      56.972  59.301  44.172  1.00  0.00     0.173 HD
HETATM   27  C16 UNL     1      60.043  58.931  45.225  1.00  0.00     0.151 A 
HETATM   28  F1  UNL     1      61.382  59.007  44.860  1.00  0.00    -0.203 F 
ENDBRANCH   6  22
BRANCH   5  29
HETATM   29  O3  UNL     1      60.783  56.047  46.686  1.00  0.00    -0.335 OA
BRANCH  29  30
HETATM   30  C9  UNL     1      61.966  55.712  45.985  1.00  0.00     0.182 C 
BRANCH  30  31
HETATM   31  C10 UNL     1      61.751  55.625  44.491  1.00  0.00     0.010 A 
HETATM   32  C11 UNL     1      62.891  55.007  43.666  1.00  0.00     0.007 A 
HETATM   33  C12 UNL     1      61.552  54.314  43.875  1.00  0.00     0.007 A 
ENDBRANCH  30  31
ENDBRANCH  29  30
ENDBRANCH   5  29
TORSDOF 8
ENDMDL
