MODEL 1
REMARK VINA RESULT: -6.780527554      0.000      0.000
REMARK  7 active torsions:
REMARK  status: ('A' for Active; 'I' for Inactive)
REMARK    1  A    between atoms: C2_2  and  N1_3 
REMARK    2  A    between atoms: N1_3  and  C3_4 
REMARK    3  A    between atoms: N1_3  and  C19_30 
REMARK    4  A    between atoms: C4_7  and  O1_8 
REMARK    5  A    between atoms: O1_8  and  C5_9 
REMARK    6  A    between atoms: C12_17  and  N4_18 
REMARK    7  A    between atoms: C16_23  and  O2_24 
ROOT
HETATM    1  C3  UNL     1      60.604  57.736  49.019  1.00  0.00     0.688 A 
HETATM    2  N2  UNL     1      60.981  58.559  50.000  1.00  0.00    -0.170 N 
ATOM      3  H2  UNL     1      61.610  58.203  50.718  1.00  0.00     0.186 HD
HETATM    4  C4  UNL     1      60.560  59.860  50.085  1.00  0.00     0.161 A 
HETATM    5  C11 UNL     1      59.716  60.286  49.096  1.00  0.00     0.105 A 
HETATM    6  C12 UNL     1      59.307  59.446  48.062  1.00  0.00     0.123 A 
HETATM    7  N5  UNL     1      59.764  58.183  48.049  1.00  0.00    -0.176 N 
ATOM      8  H5  UNL     1      59.478  57.552  47.301  1.00  0.00     0.186 HD
ENDROOT
BRANCH   6   9
HETATM    9  N4  UNL     1      58.432  59.931  47.051  1.00  0.00    -0.360 N 
HETATM   10  C13 UNL     1      58.883  60.504  45.807  1.00  0.00     0.128 C 
HETATM   11  C14 UNL     1      57.769  60.453  44.808  1.00  0.00     0.060 C 
HETATM   12  C15 UNL     1      56.610  61.291  45.285  1.00  0.00     0.202 C 
HETATM   13  F1  UNL     1      55.535  61.033  44.431  1.00  0.00    -0.247 F 
HETATM   14  C16 UNL     1      56.246  61.026  46.707  1.00  0.00     0.174 C 
HETATM   15  C17 UNL     1      57.004  59.848  47.289  1.00  0.00     0.113 C 
HETATM   16  C18 UNL     1      56.404  58.547  46.857  1.00  0.00     0.035 C 
BRANCH  14  17
HETATM   17  O2  UNL     1      56.441  62.136  47.525  1.00  0.00    -0.391 OA
ATOM     18  H2  UNL     1      55.642  62.632  47.661  1.00  0.00     0.210 HD
ENDBRANCH  14  17
ENDBRANCH   6   9
BRANCH   4  19
HETATM   19  O1  UNL     1      60.962  60.671  51.095  1.00  0.00    -0.330 OA
BRANCH  19  20
HETATM   20  C5  UNL     1      60.172  61.574  51.755  1.00  0.00     0.134 C 
HETATM   21  C6  UNL     1      60.133  61.364  53.263  1.00  0.00     0.062 C 
HETATM   22  C7  UNL     1      60.121  62.652  54.011  1.00  0.00     0.274 C 
HETATM   23  N3  UNL     1      59.356  63.692  53.368  1.00  0.00     0.084 N 
HETATM   24  C8  UNL     1      59.607  64.922  54.132  1.00  0.00     0.309 C 
HETATM   25  C9  UNL     1      59.799  63.960  52.019  1.00  0.00     0.274 C 
HETATM   26  C10 UNL     1      60.838  62.958  51.594  1.00  0.00     0.062 C 
ENDBRANCH  19  20
ENDBRANCH   4  19
BRANCH   1  27
HETATM   27  N1  UNL     1      61.046  56.389  48.940  1.00  0.00    -0.190 N 
BRANCH  27  28
HETATM   28  C2  UNL     1      60.396  55.393  49.748  1.00  0.00     0.099 C 
HETATM   29  C1  UNL     1      59.580  54.556  49.173  1.00  0.00     0.030 C 
ENDBRANCH  27  28
BRANCH  27  30
HETATM   30  C19 UNL     1      62.109  55.908  48.112  1.00  0.00     0.099 C 
HETATM   31  C20 UNL     1      63.453  56.506  48.490  1.00  0.00     0.033 C 
HETATM   32  C21 UNL     1      61.920  56.000  46.645  1.00  0.00     0.033 C 
ENDBRANCH  27  30
ENDBRANCH   1  27
TORSDOF 7
ENDMDL
MODEL 2
REMARK VINA RESULT: -6.565698910      2.794      7.315
REMARK  7 active torsions:
REMARK  status: ('A' for Active; 'I' for Inactive)
REMARK    1  A    between atoms: C2_2  and  N1_3 
REMARK    2  A    between atoms: N1_3  and  C3_4 
REMARK    3  A    between atoms: N1_3  and  C19_30 
REMARK    4  A    between atoms: C4_7  and  O1_8 
REMARK    5  A    between atoms: O1_8  and  C5_9 
REMARK    6  A    between atoms: C12_17  and  N4_18 
REMARK    7  A    between atoms: C16_23  and  O2_24 
ROOT
HETATM    1  C3  UNL     1      59.070  62.078  50.274  1.00  0.00     0.688 A 
HETATM    2  N2  UNL     1      57.949  62.421  49.636  1.00  0.00    -0.170 N 
ATOM      3  H2  UNL     1      57.417  63.219  49.983  1.00  0.00     0.186 HD
HETATM    4  C4  UNL     1      57.481  61.752  48.537  1.00  0.00     0.161 A 
HETATM    5  C11 UNL     1      58.232  60.689  48.113  1.00  0.00     0.105 A 
HETATM    6  C12 UNL     1      59.405  60.310  48.763  1.00  0.00     0.123 A 
HETATM    7  N5  UNL     1      59.798  61.018  49.834  1.00  0.00    -0.176 N 
ATOM      8  H5  UNL     1      60.654  60.757  50.324  1.00  0.00     0.186 HD
ENDROOT
BRANCH   6   9
HETATM    9  N4  UNL     1      60.159  59.202  48.287  1.00  0.00    -0.360 N 
HETATM   10  C13 UNL     1      59.582  58.081  47.586  1.00  0.00     0.128 C 
HETATM   11  C14 UNL     1      60.657  57.370  46.823  1.00  0.00     0.060 C 
HETATM   12  C15 UNL     1      61.683  56.813  47.777  1.00  0.00     0.202 C 
HETATM   13  F1  UNL     1      62.757  56.358  47.008  1.00  0.00    -0.247 F 
HETATM   14  C16 UNL     1      62.131  57.805  48.796  1.00  0.00     0.174 C 
HETATM   15  C17 UNL     1      61.589  59.197  48.527  1.00  0.00     0.113 C 
HETATM   16  C18 UNL     1      62.374  59.889  47.457  1.00  0.00     0.035 C 
BRANCH  14  17
HETATM   17  O2  UNL     1      61.790  57.431  50.093  1.00  0.00    -0.391 OA
ATOM     18  H2  UNL     1      62.149  58.018  50.748  1.00  0.00     0.210 HD
ENDBRANCH  14  17
ENDBRANCH   6   9
BRANCH   4  19
HETATM   19  O1  UNL     1      56.338  62.128  47.911  1.00  0.00    -0.330 OA
BRANCH  19  20
HETATM   20  C5  UNL     1      55.678  61.403  46.954  1.00  0.00     0.134 C 
HETATM   21  C6  UNL     1      54.662  60.423  47.523  1.00  0.00     0.062 C 
HETATM   22  C7  UNL     1      53.428  60.343  46.692  1.00  0.00     0.274 C 
HETATM   23  N3  UNL     1      53.674  60.447  45.274  1.00  0.00     0.084 N 
HETATM   24  C8  UNL     1      52.355  60.539  44.633  1.00  0.00     0.309 C 
HETATM   25  C9  UNL     1      54.380  61.655  44.916  1.00  0.00     0.274 C 
HETATM   26  C10 UNL     1      54.816  62.400  46.148  1.00  0.00     0.062 C 
ENDBRANCH  19  20
ENDBRANCH   4  19
BRANCH   1  27
HETATM   27  N1  UNL     1      59.546  62.779  51.413  1.00  0.00    -0.190 N 
BRANCH  27  28
HETATM   28  C2  UNL     1      60.638  62.226  52.166  1.00  0.00     0.099 C 
HETATM   29  C1  UNL     1      60.387  61.292  53.039  1.00  0.00     0.030 C 
ENDBRANCH  27  28
BRANCH  27  30
HETATM   30  C19 UNL     1      59.031  64.021  51.903  1.00  0.00     0.099 C 
HETATM   31  C20 UNL     1      59.859  65.210  51.451  1.00  0.00     0.033 C 
HETATM   32  C21 UNL     1      58.774  64.120  53.360  1.00  0.00     0.033 C 
ENDBRANCH  27  30
ENDBRANCH   1  27
TORSDOF 7
ENDMDL
MODEL 3
REMARK VINA RESULT: -6.524924480      2.725      7.316
REMARK  7 active torsions:
REMARK  status: ('A' for Active; 'I' for Inactive)
REMARK    1  A    between atoms: C2_2  and  N1_3 
REMARK    2  A    between atoms: N1_3  and  C3_4 
REMARK    3  A    between atoms: N1_3  and  C19_30 
REMARK    4  A    between atoms: C4_7  and  O1_8 
REMARK    5  A    between atoms: O1_8  and  C5_9 
REMARK    6  A    between atoms: C12_17  and  N4_18 
REMARK    7  A    between atoms: C16_23  and  O2_24 
ROOT
HETATM    1  C3  UNL     1      59.373  62.453  51.011  1.00  0.00     0.688 A 
HETATM    2  N2  UNL     1      58.347  62.761  50.216  1.00  0.00    -0.170 N 
ATOM      3  H2  UNL     1      57.807  63.601  50.423  1.00  0.00     0.186 HD
HETATM    4  C4  UNL     1      57.986  62.002  49.135  1.00  0.00     0.161 A 
HETATM    5  C11 UNL     1      58.743  60.886  48.902  1.00  0.00     0.105 A 
HETATM    6  C12 UNL     1      59.819  60.541  49.718  1.00  0.00     0.123 A 
HETATM    7  N5  UNL     1      60.110  61.338  50.759  1.00  0.00    -0.176 N 
ATOM      8  H5  UNL     1      60.894  61.105  51.369  1.00  0.00     0.186 HD
ENDROOT
BRANCH   6   9
HETATM    9  N4  UNL     1      60.583  59.375  49.438  1.00  0.00    -0.360 N 
HETATM   10  C13 UNL     1      61.325  58.644  50.436  1.00  0.00     0.128 C 
HETATM   11  C14 UNL     1      61.592  57.259  49.935  1.00  0.00     0.060 C 
HETATM   12  C15 UNL     1      62.453  57.315  48.699  1.00  0.00     0.202 C 
HETATM   13  F1  UNL     1      62.487  56.026  48.160  1.00  0.00    -0.247 F 
HETATM   14  C16 UNL     1      61.968  58.307  47.696  1.00  0.00     0.174 C 
HETATM   15  C17 UNL     1      60.622  58.898  48.069  1.00  0.00     0.113 C 
HETATM   16  C18 UNL     1      59.504  57.961  47.735  1.00  0.00     0.035 C 
BRANCH  14  17
HETATM   17  O2  UNL     1      62.874  59.343  47.488  1.00  0.00    -0.391 OA
ATOM     18  H2  UNL     1      63.536  59.391  48.167  1.00  0.00     0.210 HD
ENDBRANCH  14  17
ENDBRANCH   6   9
BRANCH   4  19
HETATM   19  O1  UNL     1      56.937  62.345  48.346  1.00  0.00    -0.330 OA
BRANCH  19  20
HETATM   20  C5  UNL     1      55.788  61.616  48.187  1.00  0.00     0.134 C 
HETATM   21  C6  UNL     1      54.608  62.439  47.686  1.00  0.00     0.062 C 
HETATM   22  C7  UNL     1      53.769  61.686  46.712  1.00  0.00     0.274 C 
HETATM   23  N3  UNL     1      53.643  60.281  47.016  1.00  0.00     0.084 N 
HETATM   24  C8  UNL     1      52.955  59.672  45.869  1.00  0.00     0.309 C 
HETATM   25  C9  UNL     1      54.920  59.614  47.119  1.00  0.00     0.274 C 
HETATM   26  C10 UNL     1      56.046  60.610  47.044  1.00  0.00     0.062 C 
ENDBRANCH  19  20
ENDBRANCH   4  19
BRANCH   1  27
HETATM   27  N1  UNL     1      59.739  63.247  52.129  1.00  0.00    -0.190 N 
BRANCH  27  28
HETATM   28  C2  UNL     1      60.415  64.496  51.907  1.00  0.00     0.099 C 
HETATM   29  C1  UNL     1      59.775  65.454  51.299  1.00  0.00     0.030 C 
ENDBRANCH  27  28
BRANCH  27  30
HETATM   30  C19 UNL     1      59.496  62.918  53.501  1.00  0.00     0.099 C 
HETATM   31  C20 UNL     1      59.760  64.088  54.432  1.00  0.00     0.033 C 
HETATM   32  C21 UNL     1      60.157  61.702  54.032  1.00  0.00     0.033 C 
ENDBRANCH  27  30
ENDBRANCH   1  27
TORSDOF 7
ENDMDL
MODEL 4
REMARK VINA RESULT: -6.503811797      5.709     10.033
REMARK  7 active torsions:
REMARK  status: ('A' for Active; 'I' for Inactive)
REMARK    1  A    between atoms: C2_2  and  N1_3 
REMARK    2  A    between atoms: N1_3  and  C3_4 
REMARK    3  A    between atoms: N1_3  and  C19_30 
REMARK    4  A    between atoms: C4_7  and  O1_8 
REMARK    5  A    between atoms: O1_8  and  C5_9 
REMARK    6  A    between atoms: C12_17  and  N4_18 
REMARK    7  A    between atoms: C16_23  and  O2_24 
ROOT
HETATM    1  C3  UNL     1      62.072  54.603  43.782  1.00  0.00     0.688 A 
HETATM    2  N2  UNL     1      60.943  53.902  43.662  1.00  0.00    -0.170 N 
ATOM      3  H2  UNL     1      60.839  53.279  42.862  1.00  0.00     0.186 HD
HETATM    4  C4  UNL     1      59.916  53.981  44.565  1.00  0.00     0.161 A 
HETATM    5  C11 UNL     1      60.105  54.832  45.620  1.00  0.00     0.105 A 
HETATM    6  C12 UNL     1      61.275  55.576  45.767  1.00  0.00     0.123 A 
HETATM    7  N5  UNL     1      62.236  55.442  44.839  1.00  0.00    -0.176 N 
ATOM      8  H5  UNL     1      63.100  55.976  44.927  1.00  0.00     0.186 HD
ENDROOT
BRANCH   6   9
HETATM    9  N4  UNL     1      61.433  56.445  46.881  1.00  0.00    -0.360 N 
HETATM   10  C13 UNL     1      61.259  57.875  46.813  1.00  0.00     0.128 C 
HETATM   11  C14 UNL     1      61.017  58.409  48.191  1.00  0.00     0.060 C 
HETATM   12  C15 UNL     1      62.220  58.152  49.062  1.00  0.00     0.202 C 
HETATM   13  F1  UNL     1      61.856  58.471  50.372  1.00  0.00    -0.247 F 
HETATM   14  C16 UNL     1      62.720  56.750  48.966  1.00  0.00     0.174 C 
HETATM   15  C17 UNL     1      61.796  55.859  48.157  1.00  0.00     0.113 C 
HETATM   16  C18 UNL     1      60.616  55.421  48.966  1.00  0.00     0.035 C 
BRANCH  14  17
HETATM   17  O2  UNL     1      64.002  56.675  48.430  1.00  0.00    -0.391 OA
ATOM     18  H2  UNL     1      63.997  56.548  47.489  1.00  0.00     0.210 HD
ENDBRANCH  14  17
ENDBRANCH   6   9
BRANCH   4  19
HETATM   19  O1  UNL     1      58.780  53.254  44.414  1.00  0.00    -0.330 OA
BRANCH  19  20
HETATM   20  C5  UNL     1      58.606  52.222  43.531  1.00  0.00     0.134 C 
HETATM   21  C6  UNL     1      58.441  50.865  44.204  1.00  0.00     0.062 C 
HETATM   22  C7  UNL     1      57.435  50.012  43.512  1.00  0.00     0.274 C 
HETATM   23  N3  UNL     1      57.438  50.155  42.076  1.00  0.00     0.084 N 
HETATM   24  C8  UNL     1      56.278  49.400  41.585  1.00  0.00     0.309 C 
HETATM   25  C9  UNL     1      57.239  51.520  41.649  1.00  0.00     0.274 C 
HETATM   26  C10 UNL     1      57.249  52.452  42.830  1.00  0.00     0.062 C 
ENDBRANCH  19  20
ENDBRANCH   4  19
BRANCH   1  27
HETATM   27  N1  UNL     1      63.130  54.513  42.840  1.00  0.00    -0.190 N 
BRANCH  27  28
HETATM   28  C2  UNL     1      64.361  53.883  43.232  1.00  0.00     0.099 C 
HETATM   29  C1  UNL     1      64.626  52.690  42.780  1.00  0.00     0.030 C 
ENDBRANCH  27  28
BRANCH  27  30
HETATM   30  C19 UNL     1      63.094  55.003  41.496  1.00  0.00     0.099 C 
HETATM   31  C20 UNL     1      62.677  56.462  41.424  1.00  0.00     0.033 C 
HETATM   32  C21 UNL     1      62.318  54.216  40.508  1.00  0.00     0.033 C 
ENDBRANCH  27  30
ENDBRANCH   1  27
TORSDOF 7
ENDMDL
MODEL 5
REMARK VINA RESULT: -6.483814186      0.779      1.705
REMARK  7 active torsions:
REMARK  status: ('A' for Active; 'I' for Inactive)
REMARK    1  A    between atoms: C2_2  and  N1_3 
REMARK    2  A    between atoms: N1_3  and  C3_4 
REMARK    3  A    between atoms: N1_3  and  C19_30 
REMARK    4  A    between atoms: C4_7  and  O1_8 
REMARK    5  A    between atoms: O1_8  and  C5_9 
REMARK    6  A    between atoms: C12_17  and  N4_18 
REMARK    7  A    between atoms: C16_23  and  O2_24 
ROOT
HETATM    1  C3  UNL     1      60.371  57.636  48.202  1.00  0.00     0.688 A 
HETATM    2  N2  UNL     1      60.854  58.353  49.219  1.00  0.00    -0.170 N 
ATOM      3  H2  UNL     1      61.556  57.928  49.823  1.00  0.00     0.186 HD
HETATM    4  C4  UNL     1      60.448  59.633  49.490  1.00  0.00     0.161 A 
HETATM    5  C11 UNL     1      59.502  60.155  48.649  1.00  0.00     0.105 A 
HETATM    6  C12 UNL     1      58.982  59.428  47.580  1.00  0.00     0.123 A 
HETATM    7  N5  UNL     1      59.433  58.178  47.382  1.00  0.00    -0.176 N 
ATOM      8  H5  UNL     1      59.065  57.628  46.605  1.00  0.00     0.186 HD
ENDROOT
BRANCH   6   9
HETATM    9  N4  UNL     1      58.004  60.009  46.728  1.00  0.00    -0.360 N 
HETATM   10  C13 UNL     1      58.299  60.558  45.427  1.00  0.00     0.128 C 
HETATM   11  C14 UNL     1      57.036  60.630  44.625  1.00  0.00     0.060 C 
HETATM   12  C15 UNL     1      56.057  61.566  45.287  1.00  0.00     0.202 C 
HETATM   13  F1  UNL     1      54.837  61.426  44.622  1.00  0.00    -0.247 F 
HETATM   14  C16 UNL     1      55.907  61.313  46.749  1.00  0.00     0.174 C 
HETATM   15  C17 UNL     1      56.633  60.058  47.198  1.00  0.00     0.113 C 
HETATM   16  C18 UNL     1      55.848  58.828  46.869  1.00  0.00     0.035 C 
BRANCH  14  17
HETATM   17  O2  UNL     1      56.339  62.386  47.525  1.00  0.00    -0.391 OA
ATOM     18  H2  UNL     1      57.132  62.784  47.187  1.00  0.00     0.210 HD
ENDBRANCH  14  17
ENDBRANCH   6   9
BRANCH   4  19
HETATM   19  O1  UNL     1      60.958  60.334  50.532  1.00  0.00    -0.330 OA
BRANCH  19  20
HETATM   20  C5  UNL     1      60.229  61.042  51.450  1.00  0.00     0.134 C 
HETATM   21  C6  UNL     1      60.439  60.578  52.886  1.00  0.00     0.062 C 
HETATM   22  C7  UNL     1      60.468  61.715  53.847  1.00  0.00     0.274 C 
HETATM   23  N3  UNL     1      59.552  62.780  53.518  1.00  0.00     0.084 N 
HETATM   24  C8  UNL     1      59.847  63.879  54.447  1.00  0.00     0.309 C 
HETATM   25  C9  UNL     1      59.762  63.309  52.190  1.00  0.00     0.274 C 
HETATM   26  C10 UNL     1      60.779  62.486  51.447  1.00  0.00     0.062 C 
ENDBRANCH  19  20
ENDBRANCH   4  19
BRANCH   1  27
HETATM   27  N1  UNL     1      60.800  56.310  47.931  1.00  0.00    -0.190 N 
BRANCH  27  28
HETATM   28  C2  UNL     1      61.937  56.105  47.077  1.00  0.00     0.099 C 
HETATM   29  C1  UNL     1      63.127  56.112  47.606  1.00  0.00     0.030 C 
ENDBRANCH  27  28
BRANCH  27  30
HETATM   30  C19 UNL     1      60.192  55.118  48.438  1.00  0.00     0.099 C 
HETATM   31  C20 UNL     1      58.807  54.884  47.860  1.00  0.00     0.033 C 
HETATM   32  C21 UNL     1      60.150  54.953  49.911  1.00  0.00     0.033 C 
ENDBRANCH  27  30
ENDBRANCH   1  27
TORSDOF 7
ENDMDL
