MODEL 1
REMARK VINA RESULT: -7.522932589      0.000      0.000
REMARK  6 active torsions:
REMARK  status: ('A' for Active; 'I' for Inactive)
REMARK    1  A    between atoms: C2_2  and  C3_3 
REMARK    2  A    between atoms: C3_3  and  C5_5 
REMARK    3  A    between atoms: C6_9  and  O1_10 
REMARK    4  A    between atoms: C14_19  and  O2_20 
REMARK    5  A    between atoms: O2_20  and  C15_21 
REMARK    6  A    between atoms: C19_26  and  O4_27 
ROOT
HETATM    1  C5  UNL     1       4.585  37.389  -1.657  1.00  0.00     0.204 C 
HETATM    2  N1  UNL     1       5.064  38.751  -1.351  1.00  0.00    -0.043 N 
ATOM      3  H11 UNL     1       6.064  38.868  -1.519  1.00  0.00     0.280 HD
ATOM      4  H12 UNL     1       5.073  38.954  -0.350  1.00  0.00     0.280 HD
HETATM    5  C6  UNL     1       4.257  39.672  -2.102  1.00  0.00     0.324 C 
HETATM    6  C7  UNL     1       3.722  38.849  -3.221  1.00  0.00     0.055 C 
HETATM    7  C8  UNL     1       2.516  39.480  -3.804  1.00  0.00     0.010 C 
HETATM    8  C9  UNL     1       1.479  38.502  -4.222  1.00  0.00     0.009 C 
HETATM    9  C10 UNL     1       2.055  37.120  -4.542  1.00  0.00     0.031 C 
HETATM   10  C11 UNL     1       0.909  36.276  -4.956  1.00  0.00    -0.014 C 
HETATM   11  C12 UNL     1      -0.456  36.862  -4.532  1.00  0.00     0.018 C 
HETATM   12  C13 UNL     1       0.751  36.255  -6.499  1.00  0.00     0.018 C 
HETATM   13  C14 UNL     1       0.866  34.854  -4.547  1.00  0.00     0.140 C 
HETATM   14  C17 UNL     1       2.230  34.342  -4.178  1.00  0.00     0.036 C 
HETATM   15  C18 UNL     1       2.610  35.257  -2.999  1.00  0.00     0.041 C 
HETATM   16  C19 UNL     1       3.034  36.591  -3.561  1.00  0.00     0.072 C 
HETATM   17  C20 UNL     1       3.445  37.532  -2.473  1.00  0.00     0.024 C 
HETATM   18  C21 UNL     1       2.223  37.852  -1.566  1.00  0.00     0.021 C 
ENDROOT
BRANCH   1  19
HETATM   19  C3  UNL     1       5.743  36.506  -1.723  1.00  0.00     0.013 C 
HETATM   20  C4  UNL     1       7.078  37.193  -1.962  1.00  0.00     0.012 C 
BRANCH  19  21
HETATM   21  C2  UNL     1       5.961  35.683  -0.468  1.00  0.00     0.002 C 
HETATM   22  C1  UNL     1       4.972  35.753   0.609  1.00  0.00     0.005 C 
ENDBRANCH  19  21
ENDBRANCH   1  19
BRANCH   5  23
HETATM   23  O1  UNL     1       5.023  40.708  -2.684  1.00  0.00    -0.369 OA
ATOM     24  H1  UNL     1       5.245  41.390  -2.060  1.00  0.00     0.212 HD
ENDBRANCH   5  23
BRANCH  16  25
HETATM   25  O4  UNL     1       4.232  36.326  -4.260  1.00  0.00    -0.389 OA
ATOM     26  H4  UNL     1       4.897  36.115  -3.615  1.00  0.00     0.210 HD
ENDBRANCH  16  25
BRANCH  13  27
HETATM   27  O2  UNL     1       0.171  34.076  -5.462  1.00  0.00    -0.316 OA
BRANCH  27  28
HETATM   28  C15 UNL     1      -0.720  33.077  -5.187  1.00  0.00     0.255 C 
HETATM   29  C16 UNL     1      -1.167  32.734  -3.799  1.00  0.00     0.126 C 
HETATM   30  O3  UNL     1      -1.180  32.424  -6.125  1.00  0.00    -0.266 OA
ENDBRANCH  27  28
ENDBRANCH  13  27
TORSDOF 6
ENDMDL
MODEL 2
REMARK VINA RESULT: -7.365076476      1.558      1.795
REMARK  6 active torsions:
REMARK  status: ('A' for Active; 'I' for Inactive)
REMARK    1  A    between atoms: C2_2  and  C3_3 
REMARK    2  A    between atoms: C3_3  and  C5_5 
REMARK    3  A    between atoms: C6_9  and  O1_10 
REMARK    4  A    between atoms: C14_19  and  O2_20 
REMARK    5  A    between atoms: O2_20  and  C15_21 
REMARK    6  A    between atoms: C19_26  and  O4_27 
ROOT
HETATM    1  C5  UNL     1       4.741  37.181  -2.535  1.00  0.00     0.204 C 
HETATM    2  N1  UNL     1       5.800  38.021  -3.125  1.00  0.00    -0.043 N 
ATOM      3  H11 UNL     1       6.719  37.577  -3.103  1.00  0.00     0.280 HD
ATOM      4  H12 UNL     1       6.031  38.833  -2.551  1.00  0.00     0.280 HD
HETATM    5  C6  UNL     1       5.382  38.376  -4.453  1.00  0.00     0.324 C 
HETATM    6  C7  UNL     1       4.398  37.318  -4.813  1.00  0.00     0.055 C 
HETATM    7  C8  UNL     1       3.520  37.774  -5.914  1.00  0.00     0.010 C 
HETATM    8  C9  UNL     1       2.115  37.309  -5.784  1.00  0.00     0.009 C 
HETATM    9  C10 UNL     1       1.985  36.027  -4.957  1.00  0.00     0.031 C 
HETATM   10  C11 UNL     1       0.541  35.688  -4.937  1.00  0.00    -0.014 C 
HETATM   11  C12 UNL     1      -0.363  36.877  -5.331  1.00  0.00     0.018 C 
HETATM   12  C13 UNL     1       0.185  34.669  -6.051  1.00  0.00     0.018 C 
HETATM   13  C14 UNL     1      -0.061  35.133  -3.704  1.00  0.00     0.140 C 
HETATM   14  C17 UNL     1       0.981  34.538  -2.798  1.00  0.00     0.036 C 
HETATM   15  C18 UNL     1       1.875  35.754  -2.492  1.00  0.00     0.041 C 
HETATM   16  C19 UNL     1       2.757  35.999  -3.692  1.00  0.00     0.072 C 
HETATM   17  C20 UNL     1       3.679  37.155  -3.461  1.00  0.00     0.024 C 
HETATM   18  C21 UNL     1       2.851  38.462  -3.302  1.00  0.00     0.021 C 
ENDROOT
BRANCH   1  19
HETATM   19  C3  UNL     1       5.379  36.143  -1.735  1.00  0.00     0.013 C 
HETATM   20  C4  UNL     1       6.836  36.393  -1.381  1.00  0.00     0.012 C 
BRANCH  19  21
HETATM   21  C2  UNL     1       4.703  35.894  -0.399  1.00  0.00     0.002 C 
HETATM   22  C1  UNL     1       5.528  35.578   0.767  1.00  0.00     0.005 C 
ENDBRANCH  19  21
ENDBRANCH   1  19
BRANCH   5  23
HETATM   23  O1  UNL     1       6.436  38.290  -5.391  1.00  0.00    -0.369 OA
ATOM     24  H1  UNL     1       6.197  37.785  -6.160  1.00  0.00     0.212 HD
ENDBRANCH   5  23
BRANCH  16  25
HETATM   25  O4  UNL     1       3.616  34.878  -3.745  1.00  0.00    -0.389 OA
ATOM     26  H4  UNL     1       4.118  34.942  -4.549  1.00  0.00     0.210 HD
ENDBRANCH  16  25
BRANCH  13  27
HETATM   27  O2  UNL     1      -1.141  34.308  -3.984  1.00  0.00    -0.316 OA
BRANCH  27  28
HETATM   28  C15 UNL     1      -1.333  33.027  -3.551  1.00  0.00     0.255 C 
HETATM   29  C16 UNL     1      -2.057  32.687  -2.285  1.00  0.00     0.126 C 
HETATM   30  O3  UNL     1      -0.890  32.102  -4.234  1.00  0.00    -0.266 OA
ENDBRANCH  27  28
ENDBRANCH  13  27
TORSDOF 6
ENDMDL
MODEL 3
REMARK VINA RESULT: -7.274008558      2.918      6.527
REMARK  6 active torsions:
REMARK  status: ('A' for Active; 'I' for Inactive)
REMARK    1  A    between atoms: C2_2  and  C3_3 
REMARK    2  A    between atoms: C3_3  and  C5_5 
REMARK    3  A    between atoms: C6_9  and  O1_10 
REMARK    4  A    between atoms: C14_19  and  O2_20 
REMARK    5  A    between atoms: O2_20  and  C15_21 
REMARK    6  A    between atoms: C19_26  and  O4_27 
ROOT
HETATM    1  C5  UNL     1       0.080  33.505  -3.879  1.00  0.00     0.204 C 
HETATM    2  N1  UNL     1      -0.496  32.656  -4.939  1.00  0.00    -0.043 N 
ATOM      3  H11 UNL     1      -1.431  32.316  -4.711  1.00  0.00     0.280 HD
ATOM      4  H12 UNL     1      -0.038  31.747  -5.014  1.00  0.00     0.280 HD
HETATM    5  C6  UNL     1      -0.456  33.406  -6.164  1.00  0.00     0.324 C 
HETATM    6  C7  UNL     1      -0.389  34.823  -5.713  1.00  0.00     0.055 C 
HETATM    7  C8  UNL     1       0.139  35.690  -6.792  1.00  0.00     0.010 C 
HETATM    8  C9  UNL     1       1.018  36.781  -6.298  1.00  0.00     0.009 C 
HETATM    9  C10 UNL     1       0.729  37.171  -4.846  1.00  0.00     0.031 C 
HETATM   10  C11 UNL     1       1.666  38.271  -4.515  1.00  0.00    -0.014 C 
HETATM   11  C12 UNL     1       2.855  38.367  -5.497  1.00  0.00     0.018 C 
HETATM   12  C13 UNL     1       1.003  39.659  -4.722  1.00  0.00     0.018 C 
HETATM   13  C14 UNL     1       2.270  38.333  -3.165  1.00  0.00     0.140 C 
HETATM   14  C17 UNL     1       1.473  37.543  -2.164  1.00  0.00     0.036 C 
HETATM   15  C18 UNL     1       1.541  36.120  -2.748  1.00  0.00     0.041 C 
HETATM   16  C19 UNL     1       0.568  36.041  -3.899  1.00  0.00     0.072 C 
HETATM   17  C20 UNL     1       0.556  34.673  -4.507  1.00  0.00     0.024 C 
HETATM   18  C21 UNL     1       1.944  34.367  -5.137  1.00  0.00     0.021 C 
ENDROOT
BRANCH   1  19
HETATM   19  C3  UNL     1      -0.679  33.280  -2.655  1.00  0.00     0.013 C 
HETATM   20  C4  UNL     1      -2.118  32.831  -2.850  1.00  0.00     0.012 C 
BRANCH  19  21
HETATM   21  C2  UNL     1      -0.076  32.230  -1.741  1.00  0.00     0.002 C 
HETATM   22  C1  UNL     1       1.380  32.107  -1.663  1.00  0.00     0.005 C 
ENDBRANCH  19  21
ENDBRANCH   1  19
BRANCH   5  23
HETATM   23  O1  UNL     1      -1.644  33.272  -6.917  1.00  0.00    -0.369 OA
ATOM     24  H1  UNL     1      -1.473  33.115  -7.839  1.00  0.00     0.212 HD
ENDBRANCH   5  23
BRANCH  16  25
HETATM   25  O4  UNL     1      -0.707  36.166  -3.305  1.00  0.00    -0.389 OA
ATOM     26  H4  UNL     1      -0.714  36.978  -2.812  1.00  0.00     0.210 HD
ENDBRANCH  16  25
BRANCH  13  27
HETATM   27  O2  UNL     1       2.563  39.637  -2.791  1.00  0.00    -0.316 OA
BRANCH  27  28
HETATM   28  C15 UNL     1       3.744  40.105  -2.288  1.00  0.00     0.255 C 
HETATM   29  C16 UNL     1       4.902  40.505  -3.148  1.00  0.00     0.126 C 
HETATM   30  O3  UNL     1       3.865  40.205  -1.065  1.00  0.00    -0.266 OA
ENDBRANCH  27  28
ENDBRANCH  13  27
TORSDOF 6
ENDMDL
MODEL 4
REMARK VINA RESULT: -7.140074114      2.422      3.556
REMARK  6 active torsions:
REMARK  status: ('A' for Active; 'I' for Inactive)
REMARK    1  A    between atoms: C2_2  and  C3_3 
REMARK    2  A    between atoms: C3_3  and  C5_5 
REMARK    3  A    between atoms: C6_9  and  O1_10 
REMARK    4  A    between atoms: C14_19  and  O2_20 
REMARK    5  A    between atoms: O2_20  and  C15_21 
REMARK    6  A    between atoms: C19_26  and  O4_27 
ROOT
HETATM    1  C5  UNL     1       5.639  36.783  -0.892  1.00  0.00     0.204 C 
HETATM    2  N1  UNL     1       7.085  36.770  -0.596  1.00  0.00    -0.043 N 
ATOM      3  H11 UNL     1       7.416  35.861  -0.272  1.00  0.00     0.280 HD
ATOM      4  H12 UNL     1       7.325  37.305   0.239  1.00  0.00     0.280 HD
HETATM    5  C6  UNL     1       7.770  37.229  -1.773  1.00  0.00     0.324 C 
HETATM    6  C7  UNL     1       6.804  36.971  -2.875  1.00  0.00     0.055 C 
HETATM    7  C8  UNL     1       7.124  37.802  -4.057  1.00  0.00     0.010 C 
HETATM    8  C9  UNL     1       5.922  38.297  -4.777  1.00  0.00     0.009 C 
HETATM    9  C10 UNL     1       4.693  37.408  -4.567  1.00  0.00     0.031 C 
HETATM   10  C11 UNL     1       3.597  38.020  -5.357  1.00  0.00    -0.014 C 
HETATM   11  C12 UNL     1       3.879  39.488  -5.744  1.00  0.00     0.018 C 
HETATM   12  C13 UNL     1       3.479  37.366  -6.759  1.00  0.00     0.018 C 
HETATM   13  C14 UNL     1       2.219  38.017  -4.816  1.00  0.00     0.140 C 
HETATM   14  C17 UNL     1       2.041  36.964  -3.757  1.00  0.00     0.036 C 
HETATM   15  C18 UNL     1       3.065  37.400  -2.693  1.00  0.00     0.041 C 
HETATM   16  C19 UNL     1       4.437  36.988  -3.169  1.00  0.00     0.072 C 
HETATM   17  C20 UNL     1       5.490  37.356  -2.170  1.00  0.00     0.024 C 
HETATM   18  C21 UNL     1       5.564  38.903  -2.032  1.00  0.00     0.021 C 
ENDROOT
BRANCH   1  19
HETATM   19  C3  UNL     1       5.036  35.619  -0.254  1.00  0.00     0.013 C 
HETATM   20  C4  UNL     1       6.008  34.541   0.194  1.00  0.00     0.012 C 
BRANCH  19  21
HETATM   21  C2  UNL     1       4.235  35.947   0.992  1.00  0.00     0.002 C 
HETATM   22  C1  UNL     1       3.643  37.278   1.126  1.00  0.00     0.005 C 
ENDBRANCH  19  21
ENDBRANCH   1  19
BRANCH   5  23
HETATM   23  O1  UNL     1       8.927  36.467  -2.055  1.00  0.00    -0.369 OA
ATOM     24  H1  UNL     1       9.361  36.161  -1.266  1.00  0.00     0.212 HD
ENDBRANCH   5  23
BRANCH  16  25
HETATM   25  O4  UNL     1       4.419  35.576  -3.147  1.00  0.00    -0.389 OA
ATOM     26  H4  UNL     1       5.138  35.290  -2.595  1.00  0.00     0.210 HD
ENDBRANCH  16  25
BRANCH  13  27
HETATM   27  O2  UNL     1       1.268  38.005  -5.827  1.00  0.00    -0.316 OA
BRANCH  27  28
HETATM   28  C15 UNL     1       0.098  37.300  -5.850  1.00  0.00     0.255 C 
HETATM   29  C16 UNL     1      -0.073  36.016  -6.601  1.00  0.00     0.126 C 
HETATM   30  O3  UNL     1      -0.866  37.740  -5.221  1.00  0.00    -0.266 OA
ENDBRANCH  27  28
ENDBRANCH  13  27
TORSDOF 6
ENDMDL
MODEL 5
REMARK VINA RESULT: -7.135071981      1.168      1.257
REMARK  6 active torsions:
REMARK  status: ('A' for Active; 'I' for Inactive)
REMARK    1  A    between atoms: C2_2  and  C3_3 
REMARK    2  A    between atoms: C3_3  and  C5_5 
REMARK    3  A    between atoms: C6_9  and  O1_10 
REMARK    4  A    between atoms: C14_19  and  O2_20 
REMARK    5  A    between atoms: O2_20  and  C15_21 
REMARK    6  A    between atoms: C19_26  and  O4_27 
ROOT
HETATM    1  C5  UNL     1       5.193  37.459  -1.500  1.00  0.00     0.204 C 
HETATM    2  N1  UNL     1       5.663  38.856  -1.562  1.00  0.00    -0.043 N 
ATOM      3  H11 UNL     1       6.621  38.939  -1.905  1.00  0.00     0.280 HD
ATOM      4  H12 UNL     1       5.816  39.266  -0.640  1.00  0.00     0.280 HD
HETATM    5  C6  UNL     1       4.720  39.596  -2.355  1.00  0.00     0.324 C 
HETATM    6  C7  UNL     1       4.052  38.553  -3.181  1.00  0.00     0.055 C 
HETATM    7  C8  UNL     1       2.750  39.042  -3.688  1.00  0.00     0.010 C 
HETATM    8  C9  UNL     1       1.697  37.994  -3.727  1.00  0.00     0.009 C 
HETATM    9  C10 UNL     1       2.268  36.578  -3.837  1.00  0.00     0.031 C 
HETATM   10  C11 UNL     1       1.103  35.661  -3.884  1.00  0.00    -0.014 C 
HETATM   11  C12 UNL     1      -0.202  36.319  -3.385  1.00  0.00     0.018 C 
HETATM   12  C13 UNL     1       0.716  35.314  -5.345  1.00  0.00     0.018 C 
HETATM   13  C14 UNL     1       1.174  34.357  -3.186  1.00  0.00     0.140 C 
HETATM   14  C17 UNL     1       2.596  33.940  -2.934  1.00  0.00     0.036 C 
HETATM   15  C18 UNL     1       3.117  35.084  -2.045  1.00  0.00     0.041 C 
HETATM   16  C19 UNL     1       3.402  36.271  -2.932  1.00  0.00     0.072 C 
HETATM   17  C20 UNL     1       3.939  37.423  -2.141  1.00  0.00     0.024 C 
HETATM   18  C21 UNL     1       2.857  37.923  -1.142  1.00  0.00     0.021 C 
ENDROOT
BRANCH   1  19
HETATM   19  C3  UNL     1       6.359  36.586  -1.560  1.00  0.00     0.013 C 
HETATM   20  C4  UNL     1       7.667  37.264  -1.932  1.00  0.00     0.012 C 
BRANCH  19  21
HETATM   21  C2  UNL     1       6.661  35.874  -0.255  1.00  0.00     0.002 C 
HETATM   22  C1  UNL     1       5.561  35.569   0.660  1.00  0.00     0.005 C 
ENDBRANCH  19  21
ENDBRANCH   1  19
BRANCH   5  23
HETATM   23  O1  UNL     1       5.351  40.487  -3.252  1.00  0.00    -0.369 OA
ATOM     24  H1  UNL     1       5.644  40.055  -4.046  1.00  0.00     0.212 HD
ENDBRANCH   5  23
BRANCH  16  25
HETATM   25  O4  UNL     1       4.490  35.869  -3.738  1.00  0.00    -0.389 OA
ATOM     26  H4  UNL     1       4.999  36.646  -3.938  1.00  0.00     0.210 HD
ENDBRANCH  16  25
BRANCH  13  27
HETATM   27  O2  UNL     1       0.377  33.401  -3.799  1.00  0.00    -0.316 OA
BRANCH  27  28
HETATM   28  C15 UNL     1      -0.544  32.588  -3.202  1.00  0.00     0.255 C 
HETATM   29  C16 UNL     1      -2.022  32.784  -3.335  1.00  0.00     0.126 C 
HETATM   30  O3  UNL     1      -0.141  31.646  -2.518  1.00  0.00    -0.266 OA
ENDBRANCH  27  28
ENDBRANCH  13  27
TORSDOF 6
ENDMDL
