MODEL 1
REMARK VINA RESULT: -8.061812920      0.000      0.000
REMARK  5 active torsions:
REMARK  status: ('A' for Active; 'I' for Inactive)
REMARK    1  A    between atoms: C1_4  and  C2_6 
REMARK    2  A    between atoms: N4_16  and  C9_17 
REMARK    3  A    between atoms: C16_27  and  C17_28 
REMARK    4  A    between atoms: C17_28  and  C18_29 
REMARK    5  A    between atoms: C18_29  and  O1_30 
ROOT
HETATM    1  C2  UNL     1       4.508  36.098  -2.328  1.00  0.00     0.047 A 
HETATM    2  C3  UNL     1       4.021  36.840  -3.365  1.00  0.00     0.033 A 
HETATM    3  C4  UNL     1       2.930  36.355  -4.014  1.00  0.00    -0.007 A 
HETATM    4  C5  UNL     1       2.418  35.169  -3.566  1.00  0.00     0.043 A 
HETATM    5  S1  UNL     1       3.451  34.767  -2.281  1.00  0.00    -0.084 SA
HETATM    6  C6  UNL     1       1.285  34.342  -3.990  1.00  0.00     0.078 A 
HETATM    7  C7  UNL     1       0.559  34.491  -5.183  1.00  0.00     0.064 A 
HETATM    8  N3  UNL     1      -0.356  33.558  -5.188  1.00  0.00    -0.352 N 
ATOM      9  H3  UNL     1      -1.047  33.398  -5.922  1.00  0.00     0.166 HD
HETATM   10  C8  UNL     1      -0.226  32.848  -4.059  1.00  0.00     0.184 A 
HETATM   11  N4  UNL     1       0.806  33.331  -3.293  1.00  0.00    -0.335 N 
HETATM   12  C15 UNL     1       0.824  35.547  -6.199  1.00  0.00     0.292 C 
HETATM   13  N5  UNL     1       0.994  36.780  -5.459  1.00  0.00    -0.061 N 
ATOM     14  H51 UNL     1       0.454  36.751  -4.594  1.00  0.00     0.278 HD
ATOM     15  H52 UNL     1       0.521  37.547  -5.936  1.00  0.00     0.278 HD
HETATM   16  C16 UNL     1       2.338  37.126  -5.186  1.00  0.00     0.222 C 
ENDROOT
BRANCH  11  17
HETATM   17  C9  UNL     1       1.231  32.834  -2.023  1.00  0.00     0.091 C 
HETATM   18  C10 UNL     1       2.251  31.750  -2.045  1.00  0.00     0.026 C 
HETATM   19  C11 UNL     1       1.677  30.348  -1.824  1.00  0.00     0.002 C 
HETATM   20  C12 UNL     1       1.043  30.192  -0.484  1.00  0.00     0.000 C 
HETATM   21  C13 UNL     1       0.447  31.545  -0.093  1.00  0.00     0.002 C 
HETATM   22  C14 UNL     1      -0.034  32.145  -1.428  1.00  0.00     0.026 C 
ENDBRANCH  11  17
BRANCH  16  23
HETATM   23  C17 UNL     1       3.253  37.069  -6.372  1.00  0.00     0.064 C 
BRANCH  23  24
HETATM   24  C18 UNL     1       4.030  38.336  -6.454  1.00  0.00     0.166 C 
BRANCH  24  25
HETATM   25  O1  UNL     1       5.401  38.148  -6.229  1.00  0.00    -0.401 OA
ATOM     26  H1  UNL     1       5.899  38.071  -7.034  1.00  0.00     0.209 HD
ENDBRANCH  24  25
ENDBRANCH  23  24
ENDBRANCH  16  23
BRANCH   1  27
HETATM   27  C1  UNL     1       5.668  36.400  -1.470  1.00  0.00     0.127 C 
HETATM   28  N1  UNL     1       5.539  36.284  -0.191  1.00  0.00    -0.387 N 
ATOM     29  H12 UNL     1       6.342  36.493   0.402  1.00  0.00     0.157 HD
ATOM     30  H11 UNL     1       4.674  35.993   0.266  1.00  0.00     0.157 HD
HETATM   31  N2  UNL     1       6.860  36.800  -2.098  1.00  0.00    -0.082 NA
ENDBRANCH   1  27
TORSDOF 5
ENDMDL
MODEL 2
REMARK VINA RESULT: -7.708763097      2.784      5.930
REMARK  5 active torsions:
REMARK  status: ('A' for Active; 'I' for Inactive)
REMARK    1  A    between atoms: C1_4  and  C2_6 
REMARK    2  A    between atoms: N4_16  and  C9_17 
REMARK    3  A    between atoms: C16_27  and  C17_28 
REMARK    4  A    between atoms: C17_28  and  C18_29 
REMARK    5  A    between atoms: C18_29  and  O1_30 
ROOT
HETATM    1  C2  UNL     1       4.796  35.505  -1.324  1.00  0.00     0.047 A 
HETATM    2  C3  UNL     1       4.230  34.277  -1.508  1.00  0.00     0.033 A 
HETATM    3  C4  UNL     1       3.008  34.242  -2.101  1.00  0.00    -0.007 A 
HETATM    4  C5  UNL     1       2.459  35.442  -2.462  1.00  0.00     0.043 A 
HETATM    5  S1  UNL     1       3.634  36.563  -1.972  1.00  0.00    -0.084 SA
HETATM    6  C6  UNL     1       1.195  35.814  -3.105  1.00  0.00     0.078 A 
HETATM    7  C7  UNL     1       0.093  34.967  -3.301  1.00  0.00     0.064 A 
HETATM    8  N3  UNL     1      -0.830  35.678  -3.894  1.00  0.00    -0.352 N 
ATOM      9  H3  UNL     1      -1.755  35.350  -4.174  1.00  0.00     0.166 HD
HETATM   10  C8  UNL     1      -0.345  36.915  -4.071  1.00  0.00     0.184 A 
HETATM   11  N4  UNL     1       0.932  37.016  -3.577  1.00  0.00    -0.335 N 
HETATM   12  C15 UNL     1       0.054  33.533  -2.900  1.00  0.00     0.292 C 
HETATM   13  N5  UNL     1       1.314  32.964  -3.332  1.00  0.00    -0.061 N 
ATOM     14  H51 UNL     1       1.663  33.460  -4.152  1.00  0.00     0.278 HD
ATOM     15  H52 UNL     1       1.165  32.039  -3.735  1.00  0.00     0.278 HD
HETATM   16  C16 UNL     1       2.311  32.908  -2.331  1.00  0.00     0.222 C 
ENDROOT
BRANCH  11  17
HETATM   17  C9  UNL     1       1.766  38.175  -3.598  1.00  0.00     0.091 C 
HETATM   18  C10 UNL     1       1.102  39.473  -3.298  1.00  0.00     0.026 C 
HETATM   19  C11 UNL     1       0.783  40.313  -4.537  1.00  0.00     0.002 C 
HETATM   20  C12 UNL     1       2.006  40.721  -5.284  1.00  0.00     0.000 C 
HETATM   21  C13 UNL     1       3.042  39.608  -5.121  1.00  0.00     0.002 C 
HETATM   22  C14 UNL     1       2.204  38.316  -5.087  1.00  0.00     0.026 C 
ENDBRANCH  11  17
BRANCH  16  23
HETATM   23  C17 UNL     1       1.861  32.316  -1.029  1.00  0.00     0.064 C 
BRANCH  23  24
HETATM   24  C18 UNL     1       1.898  30.831  -1.125  1.00  0.00     0.166 C 
BRANCH  24  25
HETATM   25  O1  UNL     1       0.733  30.293  -1.687  1.00  0.00    -0.401 OA
ATOM     26  H1  UNL     1       0.469  29.477  -1.278  1.00  0.00     0.209 HD
ENDBRANCH  24  25
ENDBRANCH  23  24
ENDBRANCH  16  23
BRANCH   1  27
HETATM   27  C1  UNL     1       6.101  35.813  -0.711  1.00  0.00     0.127 C 
HETATM   28  N1  UNL     1       7.024  36.334  -1.449  1.00  0.00    -0.387 N 
ATOM     29  H12 UNL     1       7.927  36.547  -1.024  1.00  0.00     0.157 HD
ATOM     30  H11 UNL     1       6.902  36.548  -2.439  1.00  0.00     0.157 HD
HETATM   31  N2  UNL     1       6.270  35.519   0.653  1.00  0.00    -0.082 NA
ENDBRANCH   1  27
TORSDOF 5
ENDMDL
MODEL 3
REMARK VINA RESULT: -7.508021632      1.603      1.644
REMARK  5 active torsions:
REMARK  status: ('A' for Active; 'I' for Inactive)
REMARK    1  A    between atoms: C1_4  and  C2_6 
REMARK    2  A    between atoms: N4_16  and  C9_17 
REMARK    3  A    between atoms: C16_27  and  C17_28 
REMARK    4  A    between atoms: C17_28  and  C18_29 
REMARK    5  A    between atoms: C18_29  and  O1_30 
ROOT
HETATM    1  C2  UNL     1       4.338  36.271  -2.065  1.00  0.00     0.047 A 
HETATM    2  C3  UNL     1       3.579  37.225  -2.679  1.00  0.00     0.033 A 
HETATM    3  C4  UNL     1       2.328  36.864  -3.068  1.00  0.00    -0.007 A 
HETATM    4  C5  UNL     1       1.945  35.577  -2.807  1.00  0.00     0.043 A 
HETATM    5  S1  UNL     1       3.309  34.918  -2.044  1.00  0.00    -0.084 SA
HETATM    6  C6  UNL     1       0.713  34.826  -3.065  1.00  0.00     0.078 A 
HETATM    7  C7  UNL     1      -0.339  35.234  -3.902  1.00  0.00     0.064 A 
HETATM    8  N3  UNL     1      -1.238  34.286  -3.869  1.00  0.00    -0.352 N 
ATOM      9  H3  UNL     1      -2.124  34.281  -4.374  1.00  0.00     0.166 HD
HETATM   10  C8  UNL     1      -0.789  33.321  -3.055  1.00  0.00     0.184 A 
HETATM   11  N4  UNL     1       0.441  33.648  -2.540  1.00  0.00    -0.335 N 
HETATM   12  C15 UNL     1      -0.368  36.525  -4.643  1.00  0.00     0.292 C 
HETATM   13  N5  UNL     1       0.056  37.538  -3.698  1.00  0.00    -0.061 N 
ATOM     14  H51 UNL     1      -0.194  37.262  -2.749  1.00  0.00     0.278 HD
ATOM     15  H52 UNL     1      -0.518  38.375  -3.796  1.00  0.00     0.278 HD
HETATM   16  C16 UNL     1       1.428  37.873  -3.767  1.00  0.00     0.222 C 
ENDROOT
BRANCH  11  17
HETATM   17  C9  UNL     1       1.221  32.869  -1.631  1.00  0.00     0.091 C 
HETATM   18  C10 UNL     1       2.111  31.841  -2.237  1.00  0.00     0.026 C 
HETATM   19  C11 UNL     1       1.555  30.417  -2.174  1.00  0.00     0.002 C 
HETATM   20  C12 UNL     1       1.376  29.931  -0.776  1.00  0.00     0.000 C 
HETATM   21  C13 UNL     1       1.021  31.139   0.092  1.00  0.00     0.002 C 
HETATM   22  C14 UNL     1       0.174  32.033  -0.835  1.00  0.00     0.026 C 
ENDBRANCH  11  17
BRANCH  16  23
HETATM   23  C17 UNL     1       1.934  38.167  -5.146  1.00  0.00     0.064 C 
BRANCH  23  24
HETATM   24  C18 UNL     1       1.924  39.638  -5.372  1.00  0.00     0.166 C 
BRANCH  24  25
HETATM   25  O1  UNL     1       0.741  40.248  -4.933  1.00  0.00    -0.401 OA
ATOM     26  H1  UNL     1       0.063  40.260  -5.600  1.00  0.00     0.209 HD
ENDBRANCH  24  25
ENDBRANCH  23  24
ENDBRANCH  16  23
BRANCH   1  27
HETATM   27  C1  UNL     1       5.714  36.406  -1.552  1.00  0.00     0.127 C 
HETATM   28  N1  UNL     1       5.917  36.280  -0.283  1.00  0.00    -0.387 N 
ATOM     29  H12 UNL     1       6.869  36.373   0.071  1.00  0.00     0.157 HD
ATOM     30  H11 UNL     1       5.175  36.089   0.391  1.00  0.00     0.157 HD
HETATM   31  N2  UNL     1       6.736  36.668  -2.480  1.00  0.00    -0.082 NA
ENDBRANCH   1  27
TORSDOF 5
ENDMDL
MODEL 4
REMARK VINA RESULT: -7.478284956      2.027      2.159
REMARK  5 active torsions:
REMARK  status: ('A' for Active; 'I' for Inactive)
REMARK    1  A    between atoms: C1_4  and  C2_6 
REMARK    2  A    between atoms: N4_16  and  C9_17 
REMARK    3  A    between atoms: C16_27  and  C17_28 
REMARK    4  A    between atoms: C17_28  and  C18_29 
REMARK    5  A    between atoms: C18_29  and  O1_30 
ROOT
HETATM    1  C2  UNL     1       2.713  37.294  -1.446  1.00  0.00     0.047 A 
HETATM    2  C3  UNL     1       2.042  37.978  -2.418  1.00  0.00     0.033 A 
HETATM    3  C4  UNL     1       1.295  37.246  -3.285  1.00  0.00    -0.007 A 
HETATM    4  C5  UNL     1       1.283  35.891  -3.103  1.00  0.00     0.043 A 
HETATM    5  S1  UNL     1       2.294  35.676  -1.758  1.00  0.00    -0.084 SA
HETATM    6  C6  UNL     1       0.621  34.790  -3.809  1.00  0.00     0.078 A 
HETATM    7  C7  UNL     1      -0.014  34.879  -5.059  1.00  0.00     0.064 A 
HETATM    8  N3  UNL     1      -0.464  33.684  -5.340  1.00  0.00    -0.352 N 
ATOM      9  H3  UNL     1      -0.974  33.417  -6.183  1.00  0.00     0.166 HD
HETATM   10  C8  UNL     1      -0.136  32.872  -4.326  1.00  0.00     0.184 A 
HETATM   11  N4  UNL     1       0.548  33.556  -3.352  1.00  0.00    -0.335 N 
HETATM   12  C15 UNL     1      -0.132  36.133  -5.852  1.00  0.00     0.292 C 
HETATM   13  N5  UNL     1      -0.535  37.162  -4.916  1.00  0.00    -0.061 N 
ATOM     14  H51 UNL     1      -1.077  36.753  -4.154  1.00  0.00     0.278 HD
ATOM     15  H52 UNL     1      -1.245  37.763  -5.335  1.00  0.00     0.278 HD
HETATM   16  C16 UNL     1       0.526  37.941  -4.401  1.00  0.00     0.222 C 
ENDROOT
BRANCH  11  17
HETATM   17  C9  UNL     1       1.047  33.023  -2.124  1.00  0.00     0.091 C 
HETATM   18  C10 UNL     1       2.212  32.102  -2.228  1.00  0.00     0.026 C 
HETATM   19  C11 UNL     1       1.847  30.618  -2.127  1.00  0.00     0.002 C 
HETATM   20  C12 UNL     1       1.248  30.263  -0.809  1.00  0.00     0.000 C 
HETATM   21  C13 UNL     1       0.466  31.480  -0.313  1.00  0.00     0.002 C 
HETATM   22  C14 UNL     1      -0.103  32.112  -1.597  1.00  0.00     0.026 C 
ENDBRANCH  11  17
BRANCH  16  23
HETATM   23  C17 UNL     1       1.467  38.482  -5.434  1.00  0.00     0.064 C 
BRANCH  23  24
HETATM   24  C18 UNL     1       1.420  39.969  -5.412  1.00  0.00     0.166 C 
BRANCH  24  25
HETATM   25  O1  UNL     1       0.208  40.469  -4.917  1.00  0.00    -0.401 OA
ATOM     26  H1  UNL     1      -0.227  41.053  -5.527  1.00  0.00     0.209 HD
ENDBRANCH  24  25
ENDBRANCH  23  24
ENDBRANCH  16  23
BRANCH   1  27
HETATM   27  C1  UNL     1       3.583  37.847  -0.392  1.00  0.00     0.127 C 
HETATM   28  N1  UNL     1       4.150  38.989  -0.593  1.00  0.00    -0.387 N 
ATOM     29  H12 UNL     1       4.752  39.371   0.137  1.00  0.00     0.157 HD
ATOM     30  H11 UNL     1       4.030  39.537  -1.445  1.00  0.00     0.157 HD
HETATM   31  N2  UNL     1       3.749  37.092   0.782  1.00  0.00    -0.082 NA
ENDBRANCH   1  27
TORSDOF 5
ENDMDL
MODEL 5
REMARK VINA RESULT: -7.457520920      1.756      2.014
REMARK  5 active torsions:
REMARK  status: ('A' for Active; 'I' for Inactive)
REMARK    1  A    between atoms: C1_4  and  C2_6 
REMARK    2  A    between atoms: N4_16  and  C9_17 
REMARK    3  A    between atoms: C16_27  and  C17_28 
REMARK    4  A    between atoms: C17_28  and  C18_29 
REMARK    5  A    between atoms: C18_29  and  O1_30 
ROOT
HETATM    1  C2  UNL     1       3.761  35.817  -3.496  1.00  0.00     0.047 A 
HETATM    2  C3  UNL     1       3.116  36.283  -4.604  1.00  0.00     0.033 A 
HETATM    3  C4  UNL     1       1.973  35.645  -4.969  1.00  0.00    -0.007 A 
HETATM    4  C5  UNL     1       1.573  34.595  -4.190  1.00  0.00     0.043 A 
HETATM    5  S1  UNL     1       2.776  34.524  -2.996  1.00  0.00    -0.084 SA
HETATM    6  C6  UNL     1       0.431  33.679  -4.251  1.00  0.00     0.078 A 
HETATM    7  C7  UNL     1      -0.446  33.530  -5.338  1.00  0.00     0.064 A 
HETATM    8  N3  UNL     1      -1.314  32.613  -5.001  1.00  0.00    -0.352 N 
ATOM      9  H3  UNL     1      -2.085  32.274  -5.577  1.00  0.00     0.166 HD
HETATM   10  C8  UNL     1      -1.012  32.195  -3.764  1.00  0.00     0.184 A 
HETATM   11  N4  UNL     1       0.087  32.860  -3.278  1.00  0.00    -0.335 N 
HETATM   12  C15 UNL     1      -0.357  34.314  -6.601  1.00  0.00     0.292 C 
HETATM   13  N5  UNL     1      -0.147  35.690  -6.202  1.00  0.00    -0.061 N 
ATOM     14  H51 UNL     1      -0.571  35.863  -5.291  1.00  0.00     0.278 HD
ATOM     15  H52 UNL     1      -0.708  36.316  -6.780  1.00  0.00     0.278 HD
HETATM   16  C16 UNL     1       1.205  36.106  -6.201  1.00  0.00     0.222 C 
ENDROOT
BRANCH  11  17
HETATM   17  C9  UNL     1       0.691  32.687  -1.995  1.00  0.00     0.091 C 
HETATM   18  C10 UNL     1       1.831  31.732  -1.924  1.00  0.00     0.026 C 
HETATM   19  C11 UNL     1       1.461  30.356  -1.364  1.00  0.00     0.002 C 
HETATM   20  C12 UNL     1       0.982  30.420   0.046  1.00  0.00     0.000 C 
HETATM   21  C13 UNL     1       0.262  31.757   0.231  1.00  0.00     0.002 C 
HETATM   22  C14 UNL     1      -0.416  32.011  -1.129  1.00  0.00     0.026 C 
ENDBRANCH  11  17
BRANCH  16  23
HETATM   23  C17 UNL     1       1.964  35.777  -7.450  1.00  0.00     0.064 C 
BRANCH  23  24
HETATM   24  C18 UNL     1       1.029  35.777  -8.609  1.00  0.00     0.166 C 
BRANCH  24  25
HETATM   25  O1  UNL     1       1.377  34.838  -9.589  1.00  0.00    -0.401 OA
ATOM     26  H1  UNL     1       1.087  35.088 -10.459  1.00  0.00     0.209 HD
ENDBRANCH  24  25
ENDBRANCH  23  24
ENDBRANCH  16  23
BRANCH   1  27
HETATM   27  C1  UNL     1       5.007  36.328  -2.896  1.00  0.00     0.127 C 
HETATM   28  N1  UNL     1       5.689  35.548  -2.125  1.00  0.00    -0.387 N 
ATOM     29  H12 UNL     1       6.551  35.901  -1.711  1.00  0.00     0.157 HD
ATOM     30  H11 UNL     1       5.413  34.590  -1.905  1.00  0.00     0.157 HD
HETATM   31  N2  UNL     1       5.387  37.647  -3.199  1.00  0.00    -0.082 NA
ENDBRANCH   1  27
TORSDOF 5
ENDMDL
