MODEL 1
REMARK VINA RESULT: -7.804822372      0.000      0.000
REMARK  7 active torsions:
REMARK  status: ('A' for Active; 'I' for Inactive)
REMARK    1  A    between atoms: O1_2  and  C2_3 
REMARK    2  A    between atoms: C2_3  and  C3_5 
REMARK    3  A    between atoms: C4_10  and  C5_11 
REMARK    4  A    between atoms: C5_11  and  O3_12 
REMARK    5  A    between atoms: C5_11  and  C6_14 
REMARK    6  A    between atoms: C6_14  and  N3_15 
REMARK    7  A    between atoms: C6_14  and  C7_19 
ROOT
HETATM    1  C6  UNL     1       0.245  36.706  -4.615  1.00  0.00     0.223 C 
ENDROOT
BRANCH   1   2
HETATM    2  C5  UNL     1       0.237  35.479  -5.464  1.00  0.00     0.217 C 
BRANCH   2   3
HETATM    3  C4  UNL     1      -0.316  34.311  -4.740  1.00  0.00     0.129 A 
HETATM    4  N2  UNL     1      -0.666  33.157  -5.334  1.00  0.00    -0.285 N 
HETATM    5  N1  UNL     1      -1.128  32.303  -4.427  1.00  0.00    -0.279 N 
ATOM      6  H2  UNL     1      -0.589  32.967  -6.333  1.00  0.00     0.188 HD
HETATM    7  C3  UNL     1      -1.075  32.910  -3.227  1.00  0.00     0.198 A 
ATOM      8  H1  UNL     1      -1.461  31.356  -4.609  1.00  0.00     0.189 HD
HETATM    9  N4  UNL     1      -0.579  34.129  -3.437  1.00  0.00    -0.323 N 
ATOM     10  H4  UNL     1      -0.422  34.826  -2.710  1.00  0.00     0.169 HD
BRANCH   7  11
HETATM   11  C2  UNL     1      -1.501  32.278  -1.985  1.00  0.00     0.328 C 
HETATM   12  O2  UNL     1      -2.629  32.546  -1.507  1.00  0.00    -0.256 OA
BRANCH  11  13
HETATM   13  O1  UNL     1      -0.700  31.382  -1.302  1.00  0.00    -0.320 OA
HETATM   14  C1  UNL     1       0.689  31.260  -1.508  1.00  0.00     0.213 C 
ENDBRANCH  11  13
ENDBRANCH   7  11
ENDBRANCH   2   3
BRANCH   2  15
HETATM   15  O3  UNL     1      -0.317  35.637  -6.718  1.00  0.00    -0.386 OA
ATOM     16  H3  UNL     1       0.338  35.669  -7.405  1.00  0.00     0.210 HD
ENDBRANCH   2  15
ENDBRANCH   1   2
BRANCH   1  17
HETATM   17  N3  UNL     1      -0.583  37.714  -5.254  1.00  0.00    -0.072 N 
ATOM     18  H33 UNL     1      -0.034  38.419  -5.744  1.00  0.00     0.274 HD
ATOM     19  H32 UNL     1      -1.093  37.349  -6.059  1.00  0.00     0.274 HD
ATOM     20  H31 UNL     1      -1.201  38.118  -4.550  1.00  0.00     0.274 HD
ENDBRANCH   1  17
BRANCH   1  21
HETATM   21  C7  UNL     1       1.605  37.249  -4.281  1.00  0.00     0.019 C 
HETATM   22  C8  UNL     1       2.083  37.029  -2.902  1.00  0.00     0.007 C 
HETATM   23  C9  UNL     1       2.279  35.609  -2.478  1.00  0.00     0.000 C 
HETATM   24  C10 UNL     1       3.433  35.613  -1.469  1.00  0.00     0.000 C 
HETATM   25  C11 UNL     1       4.737  35.268  -2.111  1.00  0.00     0.000 C 
HETATM   26  C12 UNL     1       5.842  36.028  -1.410  1.00  0.00     0.000 C 
HETATM   27  C13 UNL     1       6.733  36.776  -2.354  1.00  0.00     0.000 C 
HETATM   28  C14 UNL     1       6.352  38.244  -2.462  1.00  0.00     0.000 C 
HETATM   29  C15 UNL     1       6.574  38.773  -3.864  1.00  0.00     0.000 C 
HETATM   30  C16 UNL     1       5.296  39.155  -4.551  1.00  0.00     0.000 C 
HETATM   31  C17 UNL     1       4.860  38.035  -5.476  1.00  0.00     0.000 C 
HETATM   32  C18 UNL     1       3.404  38.118  -5.820  1.00  0.00     0.000 C 
HETATM   33  C19 UNL     1       2.621  36.911  -5.350  1.00  0.00     0.007 C 
ENDBRANCH   1  21
TORSDOF 7
ENDMDL
MODEL 2
REMARK VINA RESULT: -7.704892124      4.693      7.051
REMARK  7 active torsions:
REMARK  status: ('A' for Active; 'I' for Inactive)
REMARK    1  A    between atoms: O1_2  and  C2_3 
REMARK    2  A    between atoms: C2_3  and  C3_5 
REMARK    3  A    between atoms: C4_10  and  C5_11 
REMARK    4  A    between atoms: C5_11  and  O3_12 
REMARK    5  A    between atoms: C5_11  and  C6_14 
REMARK    6  A    between atoms: C6_14  and  N3_15 
REMARK    7  A    between atoms: C6_14  and  C7_19 
ROOT
HETATM    1  C6  UNL     1       4.739  36.232  -2.238  1.00  0.00     0.223 C 
ENDROOT
BRANCH   1   2
HETATM    2  C5  UNL     1       4.684  37.676  -1.864  1.00  0.00     0.217 C 
BRANCH   2   3
HETATM    3  C4  UNL     1       4.077  37.878  -0.528  1.00  0.00     0.129 A 
HETATM    4  N2  UNL     1       4.048  36.939   0.433  1.00  0.00    -0.285 N 
HETATM    5  N1  UNL     1       3.439  37.415   1.513  1.00  0.00    -0.279 N 
ATOM      6  H2  UNL     1       4.435  36.000   0.345  1.00  0.00     0.188 HD
HETATM    7  C3  UNL     1       3.068  38.683   1.250  1.00  0.00     0.198 A 
ATOM      8  H1  UNL     1       3.281  36.911   2.385  1.00  0.00     0.189 HD
HETATM    9  N4  UNL     1       3.465  38.946   0.006  1.00  0.00    -0.323 N 
ATOM     10  H4  UNL     1       3.323  39.834  -0.473  1.00  0.00     0.169 HD
BRANCH   7  11
HETATM   11  C2  UNL     1       2.369  39.532   2.206  1.00  0.00     0.328 C 
HETATM   12  O2  UNL     1       2.224  39.145   3.390  1.00  0.00    -0.256 OA
BRANCH  11  13
HETATM   13  O1  UNL     1       1.852  40.765   1.855  1.00  0.00    -0.320 OA
HETATM   14  C1  UNL     1       0.492  41.112   1.998  1.00  0.00     0.213 C 
ENDBRANCH  11  13
ENDBRANCH   7  11
ENDBRANCH   2   3
BRANCH   2  15
HETATM   15  O3  UNL     1       5.868  38.367  -2.019  1.00  0.00    -0.386 OA
ATOM     16  H3  UNL     1       5.865  38.931  -2.784  1.00  0.00     0.210 HD
ENDBRANCH   2  15
ENDBRANCH   1   2
BRANCH   1  17
HETATM   17  N3  UNL     1       6.083  35.927  -2.697  1.00  0.00    -0.072 N 
ATOM     18  H33 UNL     1       6.539  35.215  -2.126  1.00  0.00     0.274 HD
ATOM     19  H32 UNL     1       6.089  35.421  -3.582  1.00  0.00     0.274 HD
ATOM     20  H31 UNL     1       6.615  36.796  -2.739  1.00  0.00     0.274 HD
ENDBRANCH   1  17
BRANCH   1  21
HETATM   21  C7  UNL     1       3.708  35.785  -3.234  1.00  0.00     0.019 C 
HETATM   22  C8  UNL     1       3.332  34.358  -3.199  1.00  0.00     0.007 C 
HETATM   23  C9  UNL     1       2.688  33.864  -1.944  1.00  0.00     0.000 C 
HETATM   24  C10 UNL     1       1.726  32.745  -2.362  1.00  0.00     0.000 C 
HETATM   25  C11 UNL     1       0.324  33.240  -2.510  1.00  0.00     0.000 C 
HETATM   26  C12 UNL     1      -0.354  32.461  -3.615  1.00  0.00     0.000 C 
HETATM   27  C13 UNL     1      -1.013  33.339  -4.635  1.00  0.00     0.000 C 
HETATM   28  C14 UNL     1      -0.146  33.540  -5.868  1.00  0.00     0.000 C 
HETATM   29  C15 UNL     1      -0.312  34.931  -6.442  1.00  0.00     0.000 C 
HETATM   30  C16 UNL     1       0.937  35.756  -6.339  1.00  0.00     0.000 C 
HETATM   31  C17 UNL     1       0.842  36.677  -5.139  1.00  0.00     0.000 C 
HETATM   32  C18 UNL     1       2.186  37.169  -4.693  1.00  0.00     0.000 C 
HETATM   33  C19 UNL     1       2.530  36.734  -3.285  1.00  0.00     0.007 C 
ENDBRANCH   1  21
TORSDOF 7
ENDMDL
MODEL 3
REMARK VINA RESULT: -7.617310094      1.607      3.174
REMARK  7 active torsions:
REMARK  status: ('A' for Active; 'I' for Inactive)
REMARK    1  A    between atoms: O1_2  and  C2_3 
REMARK    2  A    between atoms: C2_3  and  C3_5 
REMARK    3  A    between atoms: C4_10  and  C5_11 
REMARK    4  A    between atoms: C5_11  and  O3_12 
REMARK    5  A    between atoms: C5_11  and  C6_14 
REMARK    6  A    between atoms: C6_14  and  N3_15 
REMARK    7  A    between atoms: C6_14  and  C7_19 
ROOT
HETATM    1  C6  UNL     1      -0.075  34.473  -5.256  1.00  0.00     0.223 C 
ENDROOT
BRANCH   1   2
HETATM    2  C5  UNL     1      -0.430  33.029  -5.126  1.00  0.00     0.217 C 
BRANCH   2   3
HETATM    3  C4  UNL     1      -1.132  32.746  -3.852  1.00  0.00     0.129 A 
HETATM    4  N2  UNL     1      -2.465  32.812  -3.699  1.00  0.00    -0.285 N 
HETATM    5  N1  UNL     1      -2.793  32.507  -2.448  1.00  0.00    -0.279 N 
ATOM      6  H2  UNL     1      -3.127  33.060  -4.434  1.00  0.00     0.188 HD
HETATM    7  C3  UNL     1      -1.656  32.238  -1.779  1.00  0.00     0.198 A 
ATOM      8  H1  UNL     1      -3.738  32.480  -2.064  1.00  0.00     0.189 HD
HETATM    9  N4  UNL     1      -0.657  32.388  -2.649  1.00  0.00    -0.323 N 
ATOM     10  H4  UNL     1       0.329  32.251  -2.431  1.00  0.00     0.169 HD
BRANCH   7  11
HETATM   11  C2  UNL     1      -1.618  31.861  -0.372  1.00  0.00     0.328 C 
HETATM   12  O2  UNL     1      -2.660  31.443   0.186  1.00  0.00    -0.256 OA
BRANCH  11  13
HETATM   13  O1  UNL     1      -0.464  31.947   0.383  1.00  0.00    -0.320 OA
HETATM   14  C1  UNL     1       0.730  31.264   0.069  1.00  0.00     0.213 C 
ENDBRANCH  11  13
ENDBRANCH   7  11
ENDBRANCH   2   3
BRANCH   2  15
HETATM   15  O3  UNL     1      -1.073  32.482  -6.218  1.00  0.00    -0.386 OA
ATOM     16  H3  UNL     1      -0.501  31.933  -6.740  1.00  0.00     0.210 HD
ENDBRANCH   2  15
ENDBRANCH   1   2
BRANCH   1  17
HETATM   17  N3  UNL     1      -0.248  34.865  -6.644  1.00  0.00    -0.072 N 
ATOM     18  H33 UNL     1       0.456  34.455  -7.258  1.00  0.00     0.274 HD
ATOM     19  H32 UNL     1      -1.071  34.440  -7.072  1.00  0.00     0.274 HD
ATOM     20  H31 UNL     1      -0.264  35.884  -6.691  1.00  0.00     0.274 HD
ENDBRANCH   1  17
BRANCH   1  21
HETATM   21  C7  UNL     1       1.288  34.848  -4.749  1.00  0.00     0.019 C 
HETATM   22  C8  UNL     1       2.039  35.837  -5.547  1.00  0.00     0.007 C 
HETATM   23  C9  UNL     1       1.439  37.202  -5.662  1.00  0.00     0.000 C 
HETATM   24  C10 UNL     1       2.612  38.183  -5.777  1.00  0.00     0.000 C 
HETATM   25  C11 UNL     1       2.960  38.794  -4.459  1.00  0.00     0.000 C 
HETATM   26  C12 UNL     1       4.452  39.040  -4.414  1.00  0.00     0.000 C 
HETATM   27  C13 UNL     1       5.103  38.486  -3.184  1.00  0.00     0.000 C 
HETATM   28  C14 UNL     1       5.748  37.132  -3.435  1.00  0.00     0.000 C 
HETATM   29  C15 UNL     1       5.635  36.230  -2.223  1.00  0.00     0.000 C 
HETATM   30  C16 UNL     1       4.765  35.033  -2.469  1.00  0.00     0.000 C 
HETATM   31  C17 UNL     1       3.379  35.286  -1.908  1.00  0.00     0.000 C 
HETATM   32  C18 UNL     1       2.349  34.379  -2.510  1.00  0.00     0.000 C 
HETATM   33  C19 UNL     1       1.275  35.133  -3.264  1.00  0.00     0.007 C 
ENDBRANCH   1  21
TORSDOF 7
ENDMDL
MODEL 4
REMARK VINA RESULT: -7.612398030      1.945      3.169
REMARK  7 active torsions:
REMARK  status: ('A' for Active; 'I' for Inactive)
REMARK    1  A    between atoms: O1_2  and  C2_3 
REMARK    2  A    between atoms: C2_3  and  C3_5 
REMARK    3  A    between atoms: C4_10  and  C5_11 
REMARK    4  A    between atoms: C5_11  and  O3_12 
REMARK    5  A    between atoms: C5_11  and  C6_14 
REMARK    6  A    between atoms: C6_14  and  N3_15 
REMARK    7  A    between atoms: C6_14  and  C7_19 
ROOT
HETATM    1  C6  UNL     1      -0.189  34.606  -4.921  1.00  0.00     0.223 C 
ENDROOT
BRANCH   1   2
HETATM    2  C5  UNL     1      -0.360  33.131  -4.775  1.00  0.00     0.217 C 
BRANCH   2   3
HETATM    3  C4  UNL     1      -1.179  32.785  -3.590  1.00  0.00     0.129 A 
HETATM    4  N2  UNL     1      -2.518  32.886  -3.547  1.00  0.00    -0.285 N 
HETATM    5  N1  UNL     1      -2.963  32.506  -2.354  1.00  0.00    -0.279 N 
ATOM      6  H2  UNL     1      -3.105  33.208  -4.316  1.00  0.00     0.188 HD
HETATM    7  C3  UNL     1      -1.897  32.151  -1.612  1.00  0.00     0.198 A 
ATOM      8  H1  UNL     1      -3.938  32.486  -2.055  1.00  0.00     0.189 HD
HETATM    9  N4  UNL     1      -0.822  32.327  -2.380  1.00  0.00    -0.323 N 
ATOM     10  H4  UNL     1       0.137  32.140  -2.088  1.00  0.00     0.169 HD
BRANCH   7  11
HETATM   11  C2  UNL     1      -1.994  31.676  -0.238  1.00  0.00     0.328 C 
HETATM   12  O2  UNL     1      -3.051  31.129   0.156  1.00  0.00    -0.256 OA
BRANCH  11  13
HETATM   13  O1  UNL     1      -0.953  31.807   0.662  1.00  0.00    -0.320 OA
HETATM   14  C1  UNL     1       0.364  31.374   0.403  1.00  0.00     0.213 C 
ENDBRANCH  11  13
ENDBRANCH   7  11
ENDBRANCH   2   3
BRANCH   2  15
HETATM   15  O3  UNL     1      -0.773  32.473  -5.915  1.00  0.00    -0.386 OA
ATOM     16  H3  UNL     1      -0.095  31.918  -6.282  1.00  0.00     0.210 HD
ENDBRANCH   2  15
ENDBRANCH   1   2
BRANCH   1  17
HETATM   17  N3  UNL     1      -0.315  34.947  -6.327  1.00  0.00    -0.072 N 
ATOM     18  H33 UNL     1       0.394  34.495  -6.905  1.00  0.00     0.274 HD
ATOM     19  H32 UNL     1      -1.136  34.525  -6.760  1.00  0.00     0.274 HD
ATOM     20  H31 UNL     1      -0.304  35.963  -6.415  1.00  0.00     0.274 HD
ENDBRANCH   1  17
BRANCH   1  21
HETATM   21  C7  UNL     1       1.075  35.168  -4.335  1.00  0.00     0.019 C 
HETATM   22  C8  UNL     1       1.241  36.633  -4.408  1.00  0.00     0.007 C 
HETATM   23  C9  UNL     1       0.241  37.460  -3.667  1.00  0.00     0.000 C 
HETATM   24  C10 UNL     1       0.977  38.726  -3.211  1.00  0.00     0.000 C 
HETATM   25  C11 UNL     1       1.458  38.615  -1.801  1.00  0.00     0.000 C 
HETATM   26  C12 UNL     1       2.756  39.381  -1.667  1.00  0.00     0.000 C 
HETATM   27  C13 UNL     1       3.851  38.578  -1.033  1.00  0.00     0.000 C 
HETATM   28  C14 UNL     1       4.790  37.973  -2.063  1.00  0.00     0.000 C 
HETATM   29  C15 UNL     1       5.290  36.612  -1.627  1.00  0.00     0.000 C 
HETATM   30  C16 UNL     1       4.801  35.502  -2.510  1.00  0.00     0.000 C 
HETATM   31  C17 UNL     1       3.607  34.825  -1.864  1.00  0.00     0.000 C 
HETATM   32  C18 UNL     1       2.787  34.056  -2.855  1.00  0.00     0.000 C 
HETATM   33  C19 UNL     1       1.372  34.579  -2.973  1.00  0.00     0.007 C 
ENDBRANCH   1  21
TORSDOF 7
ENDMDL
MODEL 5
REMARK VINA RESULT: -7.562684991      4.826      7.632
REMARK  7 active torsions:
REMARK  status: ('A' for Active; 'I' for Inactive)
REMARK    1  A    between atoms: O1_2  and  C2_3 
REMARK    2  A    between atoms: C2_3  and  C3_5 
REMARK    3  A    between atoms: C4_10  and  C5_11 
REMARK    4  A    between atoms: C5_11  and  O3_12 
REMARK    5  A    between atoms: C5_11  and  C6_14 
REMARK    6  A    between atoms: C6_14  and  N3_15 
REMARK    7  A    between atoms: C6_14  and  C7_19 
ROOT
HETATM    1  C6  UNL     1       4.470  36.015  -1.329  1.00  0.00     0.223 C 
ENDROOT
BRANCH   1   2
HETATM    2  C5  UNL     1       4.432  37.506  -1.379  1.00  0.00     0.217 C 
BRANCH   2   3
HETATM    3  C4  UNL     1       3.714  38.079  -0.217  1.00  0.00     0.129 A 
HETATM    4  N2  UNL     1       3.590  37.461   0.969  1.00  0.00    -0.285 N 
HETATM    5  N1  UNL     1       2.896  38.222   1.807  1.00  0.00    -0.279 N 
ATOM      6  H2  UNL     1       3.974  36.543   1.192  1.00  0.00     0.188 HD
HETATM    7  C3  UNL     1       2.563  39.353   1.155  1.00  0.00     0.198 A 
ATOM      8  H1  UNL     1       2.657  37.992   2.771  1.00  0.00     0.189 HD
HETATM    9  N4  UNL     1       3.069  39.248  -0.073  1.00  0.00    -0.323 N 
ATOM     10  H4  UNL     1       2.979  39.956  -0.801  1.00  0.00     0.169 HD
BRANCH   7  11
HETATM   11  C2  UNL     1       1.794  40.433   1.758  1.00  0.00     0.328 C 
HETATM   12  O2  UNL     1       1.952  41.609   1.352  1.00  0.00    -0.256 OA
BRANCH  11  13
HETATM   13  O1  UNL     1       0.883  40.211   2.774  1.00  0.00    -0.320 OA
HETATM   14  C1  UNL     1       0.247  41.244   3.494  1.00  0.00     0.213 C 
ENDBRANCH  11  13
ENDBRANCH   7  11
ENDBRANCH   2   3
BRANCH   2  15
HETATM   15  O3  UNL     1       5.648  38.117  -1.605  1.00  0.00    -0.386 OA
ATOM     16  H3  UNL     1       6.170  37.661  -2.256  1.00  0.00     0.210 HD
ENDBRANCH   2  15
ENDBRANCH   1   2
BRANCH   1  17
HETATM   17  N3  UNL     1       5.587  35.556  -2.136  1.00  0.00    -0.072 N 
ATOM     18  H33 UNL     1       6.040  36.315  -2.645  1.00  0.00     0.274 HD
ATOM     19  H32 UNL     1       6.387  35.270  -1.572  1.00  0.00     0.274 HD
ATOM     20  H31 UNL     1       5.257  34.813  -2.752  1.00  0.00     0.274 HD
ENDBRANCH   1  17
BRANCH   1  21
HETATM   21  C7  UNL     1       3.195  35.324  -1.719  1.00  0.00     0.019 C 
HETATM   22  C8  UNL     1       2.314  36.046  -2.658  1.00  0.00     0.007 C 
HETATM   23  C9  UNL     1       2.867  36.322  -4.019  1.00  0.00     0.000 C 
HETATM   24  C10 UNL     1       1.674  36.306  -4.983  1.00  0.00     0.000 C 
HETATM   25  C11 UNL     1       1.522  34.983  -5.660  1.00  0.00     0.000 C 
HETATM   26  C12 UNL     1       0.050  34.722  -5.895  1.00  0.00     0.000 C 
HETATM   27  C13 UNL     1      -0.396  33.379  -5.401  1.00  0.00     0.000 C 
HETATM   28  C14 UNL     1      -1.048  33.459  -4.031  1.00  0.00     0.000 C 
HETATM   29  C15 UNL     1      -0.737  32.234  -3.196  1.00  0.00     0.000 C 
HETATM   30  C16 UNL     1       0.105  32.549  -1.994  1.00  0.00     0.000 C 
HETATM   31  C17 UNL     1       1.556  32.221  -2.289  1.00  0.00     0.000 C 
HETATM   32  C18 UNL     1       2.497  32.927  -1.360  1.00  0.00     0.000 C 
HETATM   33  C19 UNL     1       3.431  33.875  -2.083  1.00  0.00     0.007 C 
ENDBRANCH   1  21
TORSDOF 7
ENDMDL
