MODEL 1
REMARK VINA RESULT: -6.669572778      0.000      0.000
REMARK  4 active torsions:
REMARK  status: ('A' for Active; 'I' for Inactive)
REMARK    1  A    between atoms: C1_4  and  C2_6 
REMARK    2  A    between atoms: C3_7  and  N3_8 
REMARK    3  A    between atoms: N3_8  and  C4_10 
REMARK    4  A    between atoms: C4_10  and  C5_11 
ROOT
HETATM    1  C2  UNL     1      36.263  33.726  -4.584  1.00  0.00     0.047 A 
HETATM    2  C3  UNL     1      37.076  33.921  -3.496  1.00  0.00     0.086 A 
HETATM    3  S1  UNL     1      38.128  35.185  -4.045  1.00  0.00    -0.054 SA
HETATM    4  C9  UNL     1      37.502  35.406  -5.598  1.00  0.00     0.079 A 
HETATM    5  C10 UNL     1      36.477  34.490  -5.678  1.00  0.00    -0.008 A 
HETATM    6  C11 UNL     1      35.788  34.516  -7.039  1.00  0.00     0.044 C 
HETATM    7  C12 UNL     1      36.901  34.616  -8.117  1.00  0.00     0.024 C 
HETATM    8  C13 UNL     1      37.490  35.995  -8.070  1.00  0.00     0.120 C 
HETATM    9  N4  UNL     1      37.824  36.301  -6.700  1.00  0.00    -0.384 N 
ATOM     10  H4  UNL     1      38.305  37.178  -6.496  1.00  0.00     0.160 HD
ENDROOT
BRANCH   2  11
HETATM   11  N3  UNL     1      37.120  33.315  -2.195  1.00  0.00    -0.383 N 
ATOM     12  H3  UNL     1      36.430  33.545  -1.481  1.00  0.00     0.160 HD
BRANCH  11  13
HETATM   13  C4  UNL     1      38.192  32.358  -1.934  1.00  0.00     0.125 C 
BRANCH  13  14
HETATM   14  C5  UNL     1      37.834  31.347  -0.897  1.00  0.00     0.003 C 
HETATM   15  C6  UNL     1      36.335  31.100  -0.900  1.00  0.00     0.006 C 
HETATM   16  C7  UNL     1      36.569  30.014  -1.930  1.00  0.00     0.001 C 
HETATM   17  C8  UNL     1      37.973  29.890  -1.375  1.00  0.00     0.006 C 
ENDBRANCH  13  14
ENDBRANCH  11  13
ENDBRANCH   2  11
BRANCH   1  18
HETATM   18  C1  UNL     1      35.168  32.708  -4.527  1.00  0.00     0.123 C 
HETATM   19  N1  UNL     1      35.043  31.806  -5.435  1.00  0.00    -0.387 N 
ATOM     20  H12 UNL     1      34.296  31.112  -5.397  1.00  0.00     0.157 HD
ATOM     21  H11 UNL     1      35.733  31.855  -6.185  1.00  0.00     0.157 HD
HETATM   22  N2  UNL     1      34.213  32.640  -3.490  1.00  0.00    -0.082 NA
ENDBRANCH   1  18
TORSDOF 4
ENDMDL
MODEL 2
REMARK VINA RESULT: -6.640002644      4.010      5.508
REMARK  4 active torsions:
REMARK  status: ('A' for Active; 'I' for Inactive)
REMARK    1  A    between atoms: C1_4  and  C2_6 
REMARK    2  A    between atoms: C3_7  and  N3_8 
REMARK    3  A    between atoms: N3_8  and  C4_10 
REMARK    4  A    between atoms: C4_10  and  C5_11 
ROOT
HETATM    1  C2  UNL     1      41.147  34.933  -1.622  1.00  0.00     0.047 A 
HETATM    2  C3  UNL     1      39.865  34.486  -1.816  1.00  0.00     0.086 A 
HETATM    3  S1  UNL     1      39.422  35.267  -3.298  1.00  0.00    -0.054 SA
HETATM    4  C9  UNL     1      40.854  36.109  -3.602  1.00  0.00     0.079 A 
HETATM    5  C10 UNL     1      41.667  35.776  -2.543  1.00  0.00    -0.008 A 
HETATM    6  C11 UNL     1      43.026  36.468  -2.620  1.00  0.00     0.044 C 
HETATM    7  C12 UNL     1      42.768  37.940  -3.042  1.00  0.00     0.024 C 
HETATM    8  C13 UNL     1      42.355  37.960  -4.484  1.00  0.00     0.120 C 
HETATM    9  N4  UNL     1      41.300  36.992  -4.670  1.00  0.00    -0.384 N 
ATOM     10  H4  UNL     1      40.851  36.926  -5.583  1.00  0.00     0.160 HD
ENDROOT
BRANCH   2  11
HETATM   11  N3  UNL     1      39.025  33.593  -1.068  1.00  0.00    -0.383 N 
ATOM     12  H3  UNL     1      38.885  33.713  -0.065  1.00  0.00     0.160 HD
BRANCH  11  13
HETATM   13  C4  UNL     1      38.379  32.506  -1.800  1.00  0.00     0.125 C 
BRANCH  13  14
HETATM   14  C5  UNL     1      38.024  31.345  -0.931  1.00  0.00     0.003 C 
HETATM   15  C6  UNL     1      36.518  31.265  -0.750  1.00  0.00     0.006 C 
HETATM   16  C7  UNL     1      36.468  30.398  -1.992  1.00  0.00     0.001 C 
HETATM   17  C8  UNL     1      37.902  30.013  -1.693  1.00  0.00     0.006 C 
ENDBRANCH  13  14
ENDBRANCH  11  13
ENDBRANCH   2  11
BRANCH   1  18
HETATM   18  C1  UNL     1      41.930  34.473  -0.434  1.00  0.00     0.123 C 
HETATM   19  N1  UNL     1      42.731  33.469  -0.506  1.00  0.00    -0.387 N 
ATOM     20  H12 UNL     1      43.265  33.154   0.304  1.00  0.00     0.157 HD
ATOM     21  H11 UNL     1      42.772  33.019  -1.420  1.00  0.00     0.157 HD
HETATM   22  N2  UNL     1      41.874  35.095   0.832  1.00  0.00    -0.082 NA
ENDBRANCH   1  18
TORSDOF 4
ENDMDL
MODEL 3
REMARK VINA RESULT: -6.586699786      3.778      5.237
REMARK  4 active torsions:
REMARK  status: ('A' for Active; 'I' for Inactive)
REMARK    1  A    between atoms: C1_4  and  C2_6 
REMARK    2  A    between atoms: C3_7  and  N3_8 
REMARK    3  A    between atoms: N3_8  and  C4_10 
REMARK    4  A    between atoms: C4_10  and  C5_11 
ROOT
HETATM    1  C2  UNL     1      39.330  35.978  -0.949  1.00  0.00     0.047 A 
HETATM    2  C3  UNL     1      38.997  34.842  -1.640  1.00  0.00     0.086 A 
HETATM    3  S1  UNL     1      38.117  35.476  -2.992  1.00  0.00    -0.054 SA
HETATM    4  C9  UNL     1      38.208  37.124  -2.629  1.00  0.00     0.079 A 
HETATM    5  C10 UNL     1      38.924  37.165  -1.453  1.00  0.00    -0.008 A 
HETATM    6  C11 UNL     1      39.098  38.591  -0.936  1.00  0.00     0.044 C 
HETATM    7  C12 UNL     1      37.733  39.312  -1.106  1.00  0.00     0.024 C 
HETATM    8  C13 UNL     1      37.505  39.564  -2.567  1.00  0.00     0.120 C 
HETATM    9  N4  UNL     1      37.730  38.332  -3.284  1.00  0.00    -0.384 N 
ATOM     10  H4  UNL     1      37.547  38.307  -4.287  1.00  0.00     0.160 HD
ENDROOT
BRANCH   2  11
HETATM   11  N3  UNL     1      39.269  33.450  -1.411  1.00  0.00    -0.383 N 
ATOM     12  H3  UNL     1      40.118  33.149  -0.932  1.00  0.00     0.160 HD
BRANCH  11  13
HETATM   13  C4  UNL     1      38.285  32.483  -1.891  1.00  0.00     0.125 C 
BRANCH  13  14
HETATM   14  C5  UNL     1      38.042  31.369  -0.928  1.00  0.00     0.003 C 
HETATM   15  C6  UNL     1      36.554  31.218  -0.665  1.00  0.00     0.006 C 
HETATM   16  C7  UNL     1      36.496  30.263  -1.841  1.00  0.00     0.001 C 
HETATM   17  C8  UNL     1      37.964  29.982  -1.590  1.00  0.00     0.006 C 
ENDBRANCH  13  14
ENDBRANCH  11  13
ENDBRANCH   2  11
BRANCH   1  18
HETATM   18  C1  UNL     1      40.134  35.882   0.309  1.00  0.00     0.123 C 
HETATM   19  N1  UNL     1      41.405  35.688   0.279  1.00  0.00    -0.387 N 
ATOM     20  H12 UNL     1      41.954  35.621   1.137  1.00  0.00     0.157 HD
ATOM     21  H11 UNL     1      41.802  35.594  -0.655  1.00  0.00     0.157 HD
HETATM   22  N2  UNL     1      39.584  36.011   1.603  1.00  0.00    -0.082 NA
ENDBRANCH   1  18
TORSDOF 4
ENDMDL
MODEL 4
REMARK VINA RESULT: -6.555075891      3.706      4.937
REMARK  4 active torsions:
REMARK  status: ('A' for Active; 'I' for Inactive)
REMARK    1  A    between atoms: C1_4  and  C2_6 
REMARK    2  A    between atoms: C3_7  and  N3_8 
REMARK    3  A    between atoms: N3_8  and  C4_10 
REMARK    4  A    between atoms: C4_10  and  C5_11 
ROOT
HETATM    1  C2  UNL     1      39.713  35.568  -3.054  1.00  0.00     0.047 A 
HETATM    2  C3  UNL     1      39.351  34.502  -2.271  1.00  0.00     0.086 A 
HETATM    3  S1  UNL     1      40.765  34.261  -1.298  1.00  0.00    -0.054 SA
HETATM    4  C9  UNL     1      41.734  35.500  -1.914  1.00  0.00     0.079 A 
HETATM    5  C10 UNL     1      40.946  36.091  -2.876  1.00  0.00    -0.008 A 
HETATM    6  C11 UNL     1      41.664  37.240  -3.581  1.00  0.00     0.044 C 
HETATM    7  C12 UNL     1      43.116  36.769  -3.866  1.00  0.00     0.024 C 
HETATM    8  C13 UNL     1      43.866  36.718  -2.568  1.00  0.00     0.120 C 
HETATM    9  N4  UNL     1      43.075  35.980  -1.613  1.00  0.00    -0.384 N 
ATOM     10  H4  UNL     1      43.470  35.787  -0.692  1.00  0.00     0.160 HD
ENDROOT
BRANCH   2  11
HETATM   11  N3  UNL     1      38.144  33.728  -2.181  1.00  0.00    -0.383 N 
ATOM     12  H3  UNL     1      37.251  34.165  -1.956  1.00  0.00     0.160 HD
BRANCH  11  13
HETATM   13  C4  UNL     1      38.246  32.291  -2.423  1.00  0.00     0.125 C 
BRANCH  13  14
HETATM   14  C5  UNL     1      38.038  31.474  -1.191  1.00  0.00     0.003 C 
HETATM   15  C6  UNL     1      36.554  31.263  -0.945  1.00  0.00     0.006 C 
HETATM   16  C7  UNL     1      36.642  30.016  -1.802  1.00  0.00     0.001 C 
HETATM   17  C8  UNL     1      38.110  29.956  -1.433  1.00  0.00     0.006 C 
ENDBRANCH  13  14
ENDBRANCH  11  13
ENDBRANCH   2  11
BRANCH   1  18
HETATM   18  C1  UNL     1      38.747  36.128  -4.050  1.00  0.00     0.123 C 
HETATM   19  N1  UNL     1      38.328  37.341  -3.969  1.00  0.00    -0.387 N 
ATOM     20  H12 UNL     1      37.669  37.724  -4.648  1.00  0.00     0.157 HD
ATOM     21  H11 UNL     1      38.693  37.869  -3.176  1.00  0.00     0.157 HD
HETATM   22  N2  UNL     1      38.241  35.399  -5.147  1.00  0.00    -0.082 NA
ENDBRANCH   1  18
TORSDOF 4
ENDMDL
MODEL 5
REMARK VINA RESULT: -6.551239848      2.135      6.013
REMARK  4 active torsions:
REMARK  status: ('A' for Active; 'I' for Inactive)
REMARK    1  A    between atoms: C1_4  and  C2_6 
REMARK    2  A    between atoms: C3_7  and  N3_8 
REMARK    3  A    between atoms: N3_8  and  C4_10 
REMARK    4  A    between atoms: C4_10  and  C5_11 
ROOT
HETATM    1  C2  UNL     1      36.967  34.032  -2.654  1.00  0.00     0.047 A 
HETATM    2  C3  UNL     1      35.794  34.429  -3.242  1.00  0.00     0.086 A 
HETATM    3  S1  UNL     1      34.777  33.046  -3.006  1.00  0.00    -0.054 SA
HETATM    4  C9  UNL     1      35.862  32.044  -2.186  1.00  0.00     0.079 A 
HETATM    5  C10 UNL     1      37.012  32.798  -2.105  1.00  0.00    -0.008 A 
HETATM    6  C11 UNL     1      38.143  32.046  -1.407  1.00  0.00     0.044 C 
HETATM    7  C12 UNL     1      38.136  30.593  -1.953  1.00  0.00     0.024 C 
HETATM    8  C13 UNL     1      36.937  29.880  -1.401  1.00  0.00     0.120 C 
HETATM    9  N4  UNL     1      35.774  30.707  -1.619  1.00  0.00    -0.384 N 
ATOM     10  H4  UNL     1      34.857  30.340  -1.367  1.00  0.00     0.160 HD
ENDROOT
BRANCH   2  11
HETATM   11  N3  UNL     1      35.395  35.647  -3.891  1.00  0.00    -0.383 N 
ATOM     12  H3  UNL     1      35.088  36.457  -3.352  1.00  0.00     0.160 HD
BRANCH  11  13
HETATM   13  C4  UNL     1      35.447  35.682  -5.350  1.00  0.00     0.125 C 
BRANCH  13  14
HETATM   14  C5  UNL     1      36.539  34.836  -5.917  1.00  0.00     0.003 C 
HETATM   15  C6  UNL     1      36.029  34.055  -7.115  1.00  0.00     0.006 C 
HETATM   16  C7  UNL     1      36.435  35.227  -7.986  1.00  0.00     0.001 C 
HETATM   17  C8  UNL     1      37.446  35.579  -6.914  1.00  0.00     0.006 C 
ENDBRANCH  13  14
ENDBRANCH  11  13
ENDBRANCH   2  11
BRANCH   1  18
HETATM   18  C1  UNL     1      38.138  34.962  -2.615  1.00  0.00     0.123 C 
HETATM   19  N1  UNL     1      38.210  35.916  -1.756  1.00  0.00    -0.387 N 
ATOM     20  H12 UNL     1      39.009  36.551  -1.730  1.00  0.00     0.157 HD
ATOM     21  H11 UNL     1      37.410  35.987  -1.128  1.00  0.00     0.157 HD
HETATM   22  N2  UNL     1      39.247  34.864  -3.485  1.00  0.00    -0.082 NA
ENDBRANCH   1  18
TORSDOF 4
ENDMDL
