MODEL 1
REMARK VINA RESULT: -6.462470111      0.000      0.000
REMARK  8 active torsions:
REMARK  status: ('A' for Active; 'I' for Inactive)
REMARK    1  A    between atoms: C2_2  and  N2_6 
REMARK    2  A    between atoms: N2_6  and  N3_8 
REMARK    3  A    between atoms: N3_8  and  C3_10 
REMARK    4  A    between atoms: C3_10  and  N4_12 
REMARK    5  A    between atoms: N4_12  and  C4_14 
REMARK    6  A    between atoms: C7_17  and  N5_18 
REMARK    7  A    between atoms: N5_18  and  C8_20 
REMARK    8  A    between atoms: C8_20  and  C9_21 
ROOT
HETATM    1  N4  UNL     1      35.315  34.300  -3.110  1.00  0.00    -0.326 N 
ATOM      2  H4  UNL     1      34.781  35.139  -2.881  1.00  0.00     0.169 HD
ENDROOT
BRANCH   1   3
HETATM    3  C3  UNL     1      34.655  33.176  -3.615  1.00  0.00     0.191 C 
HETATM    4  S1  UNL     1      35.217  32.414  -4.955  1.00  0.00    -0.039 SA
BRANCH   3   5
HETATM    5  N3  UNL     1      33.482  32.697  -2.952  1.00  0.00    -0.275 N 
ATOM      6  H3  UNL     1      32.638  33.269  -2.989  1.00  0.00     0.189 HD
BRANCH   5   7
HETATM    7  N2  UNL     1      33.431  31.503  -2.265  1.00  0.00    -0.288 N 
ATOM      8  H2  UNL     1      33.064  30.681  -2.743  1.00  0.00     0.188 HD
BRANCH   7   9
HETATM    9  C2  UNL     1      33.866  31.366  -0.920  1.00  0.00     0.085 C 
HETATM   10  C1  UNL     1      35.283  31.168  -0.551  1.00  0.00     0.090 C 
HETATM   11  N1  UNL     1      33.000  31.414   0.037  1.00  0.00    -0.388 N 
ATOM     12  H12 UNL     1      33.313  31.316   1.003  1.00  0.00     0.157 HD
ATOM     13  H11 UNL     1      32.023  31.551  -0.217  1.00  0.00     0.157 HD
ENDBRANCH   7   9
ENDBRANCH   5   7
ENDBRANCH   3   5
ENDBRANCH   1   3
BRANCH   1  14
HETATM   14  C4  UNL     1      36.736  34.285  -2.912  1.00  0.00     0.078 A 
HETATM   15  C5  UNL     1      37.481  33.346  -2.245  1.00  0.00     0.040 A 
HETATM   16  C6  UNL     1      38.809  33.544  -2.187  1.00  0.00     0.040 A 
HETATM   17  C7  UNL     1      39.302  34.665  -2.797  1.00  0.00     0.082 A 
HETATM   18  S2  UNL     1      37.912  35.407  -3.431  1.00  0.00    -0.054 SA
BRANCH  17  19
HETATM   19  N5  UNL     1      40.698  35.035  -2.834  1.00  0.00    -0.320 N 
ATOM     20  H5  UNL     1      41.186  35.272  -3.697  1.00  0.00     0.176 HD
BRANCH  19  21
HETATM   21  C8  UNL     1      41.276  35.041  -1.674  1.00  0.00    -0.066 C 
BRANCH  21  22
HETATM   22  C9  UNL     1      41.671  35.244  -0.456  1.00  0.00     0.066 C 
HETATM   23  C10 UNL     1      40.681  35.543   0.582  1.00  0.00     0.024 C 
HETATM   24  C11 UNL     1      43.101  35.180  -0.142  1.00  0.00     0.024 C 
ENDBRANCH  21  22
ENDBRANCH  19  21
ENDBRANCH  17  19
ENDBRANCH   1  14
TORSDOF 8
ENDMDL
MODEL 2
REMARK VINA RESULT: -6.321248933      1.363      1.686
REMARK  8 active torsions:
REMARK  status: ('A' for Active; 'I' for Inactive)
REMARK    1  A    between atoms: C2_2  and  N2_6 
REMARK    2  A    between atoms: N2_6  and  N3_8 
REMARK    3  A    between atoms: N3_8  and  C3_10 
REMARK    4  A    between atoms: C3_10  and  N4_12 
REMARK    5  A    between atoms: N4_12  and  C4_14 
REMARK    6  A    between atoms: C7_17  and  N5_18 
REMARK    7  A    between atoms: N5_18  and  C8_20 
REMARK    8  A    between atoms: C8_20  and  C9_21 
ROOT
HETATM    1  N4  UNL     1      35.911  31.267  -2.762  1.00  0.00    -0.326 N 
ATOM      2  H4  UNL     1      35.914  30.249  -2.704  1.00  0.00     0.169 HD
ENDROOT
BRANCH   1   3
HETATM    3  C3  UNL     1      34.748  31.934  -3.158  1.00  0.00     0.191 C 
HETATM    4  S1  UNL     1      34.555  32.418  -4.714  1.00  0.00    -0.039 SA
BRANCH   3   5
HETATM    5  N3  UNL     1      33.727  32.192  -2.191  1.00  0.00    -0.275 N 
ATOM      6  H3  UNL     1      33.406  33.153  -2.072  1.00  0.00     0.189 HD
BRANCH   5   7
HETATM    7  N2  UNL     1      33.153  31.212  -1.410  1.00  0.00    -0.288 N 
ATOM      8  H2  UNL     1      32.499  30.562  -1.847  1.00  0.00     0.188 HD
BRANCH   7   9
HETATM    9  C2  UNL     1      33.432  31.065  -0.025  1.00  0.00     0.085 C 
HETATM   10  C1  UNL     1      34.772  31.295   0.553  1.00  0.00     0.090 C 
HETATM   11  N1  UNL     1      32.485  30.714   0.780  1.00  0.00    -0.388 N 
ATOM     12  H12 UNL     1      32.685  30.608   1.775  1.00  0.00     0.157 HD
ATOM     13  H11 UNL     1      31.560  30.555   0.381  1.00  0.00     0.157 HD
ENDBRANCH   7   9
ENDBRANCH   5   7
ENDBRANCH   3   5
ENDBRANCH   1   3
BRANCH   1  14
HETATM   14  C4  UNL     1      37.100  32.002  -2.439  1.00  0.00     0.078 A 
HETATM   15  C5  UNL     1      37.907  31.853  -1.340  1.00  0.00     0.040 A 
HETATM   16  C6  UNL     1      38.977  32.661  -1.248  1.00  0.00     0.040 A 
HETATM   17  C7  UNL     1      39.167  33.564  -2.259  1.00  0.00     0.082 A 
HETATM   18  S2  UNL     1      37.861  33.262  -3.302  1.00  0.00    -0.054 SA
BRANCH  17  19
HETATM   19  N5  UNL     1      40.260  34.507  -2.326  1.00  0.00    -0.320 N 
ATOM     20  H5  UNL     1      40.756  34.721  -3.190  1.00  0.00     0.176 HD
BRANCH  19  21
HETATM   21  C8  UNL     1      40.554  35.058  -1.190  1.00  0.00    -0.066 C 
BRANCH  21  22
HETATM   22  C9  UNL     1      40.868  35.349   0.034  1.00  0.00     0.066 C 
HETATM   23  C10 UNL     1      42.164  34.920   0.567  1.00  0.00     0.024 C 
HETATM   24  C11 UNL     1      39.918  36.094   0.863  1.00  0.00     0.024 C 
ENDBRANCH  21  22
ENDBRANCH  19  21
ENDBRANCH  17  19
ENDBRANCH   1  14
TORSDOF 8
ENDMDL
MODEL 3
REMARK VINA RESULT: -6.316823464      0.771      1.158
REMARK  8 active torsions:
REMARK  status: ('A' for Active; 'I' for Inactive)
REMARK    1  A    between atoms: C2_2  and  N2_6 
REMARK    2  A    between atoms: N2_6  and  N3_8 
REMARK    3  A    between atoms: N3_8  and  C3_10 
REMARK    4  A    between atoms: C3_10  and  N4_12 
REMARK    5  A    between atoms: N4_12  and  C4_14 
REMARK    6  A    between atoms: C7_17  and  N5_18 
REMARK    7  A    between atoms: N5_18  and  C8_20 
REMARK    8  A    between atoms: C8_20  and  C9_21 
ROOT
HETATM    1  N4  UNL     1      34.974  33.964  -3.291  1.00  0.00    -0.326 N 
ATOM      2  H4  UNL     1      34.238  34.626  -3.042  1.00  0.00     0.169 HD
ENDROOT
BRANCH   1   3
HETATM    3  C3  UNL     1      34.642  32.776  -3.949  1.00  0.00     0.191 C 
HETATM    4  S1  UNL     1      35.184  32.489  -5.470  1.00  0.00    -0.039 SA
BRANCH   3   5
HETATM    5  N3  UNL     1      33.822  31.813  -3.281  1.00  0.00    -0.275 N 
ATOM      6  H3  UNL     1      33.646  30.923  -3.747  1.00  0.00     0.189 HD
BRANCH   5   7
HETATM    7  N2  UNL     1      33.257  32.023  -2.042  1.00  0.00    -0.288 N 
ATOM      8  H2  UNL     1      32.422  32.607  -1.980  1.00  0.00     0.188 HD
BRANCH   7   9
HETATM    9  C2  UNL     1      33.783  31.465  -0.847  1.00  0.00     0.085 C 
HETATM   10  C1  UNL     1      35.209  31.111  -0.687  1.00  0.00     0.090 C 
HETATM   11  N1  UNL     1      32.998  31.249   0.155  1.00  0.00    -0.388 N 
ATOM     12  H12 UNL     1      33.376  30.848   1.013  1.00  0.00     0.157 HD
ATOM     13  H11 UNL     1      32.014  31.493   0.045  1.00  0.00     0.157 HD
ENDBRANCH   7   9
ENDBRANCH   5   7
ENDBRANCH   3   5
ENDBRANCH   1   3
BRANCH   1  14
HETATM   14  C4  UNL     1      36.339  34.261  -2.963  1.00  0.00     0.078 A 
HETATM   15  C5  UNL     1      37.295  33.399  -2.489  1.00  0.00     0.040 A 
HETATM   16  C6  UNL     1      38.516  33.908  -2.251  1.00  0.00     0.040 A 
HETATM   17  C7  UNL     1      38.699  35.241  -2.501  1.00  0.00     0.082 A 
HETATM   18  S2  UNL     1      37.175  35.745  -3.058  1.00  0.00    -0.054 SA
BRANCH  17  19
HETATM   19  N5  UNL     1      39.940  35.953  -2.303  1.00  0.00    -0.320 N 
ATOM     20  H5  UNL     1      40.361  36.543  -3.020  1.00  0.00     0.176 HD
BRANCH  19  21
HETATM   21  C8  UNL     1      40.473  35.777  -1.135  1.00  0.00    -0.066 C 
BRANCH  21  22
HETATM   22  C9  UNL     1      40.747  35.636   0.125  1.00  0.00     0.066 C 
HETATM   23  C10 UNL     1      41.948  34.896   0.521  1.00  0.00     0.024 C 
HETATM   24  C11 UNL     1      39.847  36.211   1.126  1.00  0.00     0.024 C 
ENDBRANCH  21  22
ENDBRANCH  19  21
ENDBRANCH  17  19
ENDBRANCH   1  14
TORSDOF 8
ENDMDL
MODEL 4
REMARK VINA RESULT: -6.243602842      0.855      1.009
REMARK  8 active torsions:
REMARK  status: ('A' for Active; 'I' for Inactive)
REMARK    1  A    between atoms: C2_2  and  N2_6 
REMARK    2  A    between atoms: N2_6  and  N3_8 
REMARK    3  A    between atoms: N3_8  and  C3_10 
REMARK    4  A    between atoms: C3_10  and  N4_12 
REMARK    5  A    between atoms: N4_12  and  C4_14 
REMARK    6  A    between atoms: C7_17  and  N5_18 
REMARK    7  A    between atoms: N5_18  and  C8_20 
REMARK    8  A    between atoms: C8_20  and  C9_21 
ROOT
HETATM    1  N4  UNL     1      35.211  33.997  -3.284  1.00  0.00    -0.326 N 
ATOM      2  H4  UNL     1      34.505  34.665  -2.974  1.00  0.00     0.169 HD
ENDROOT
BRANCH   1   3
HETATM    3  C3  UNL     1      34.822  32.863  -4.003  1.00  0.00     0.191 C 
HETATM    4  S1  UNL     1      35.255  32.686  -5.575  1.00  0.00    -0.039 SA
BRANCH   3   5
HETATM    5  N3  UNL     1      34.040  31.857  -3.352  1.00  0.00    -0.275 N 
ATOM      6  H3  UNL     1      33.952  30.947  -3.803  1.00  0.00     0.189 HD
BRANCH   5   7
HETATM    7  N2  UNL     1      33.397  32.054  -2.149  1.00  0.00    -0.288 N 
ATOM      8  H2  UNL     1      32.534  32.596  -2.140  1.00  0.00     0.188 HD
BRANCH   7   9
HETATM    9  C2  UNL     1      33.884  31.535  -0.919  1.00  0.00     0.085 C 
HETATM   10  C1  UNL     1      35.310  31.228  -0.686  1.00  0.00     0.090 C 
HETATM   11  N1  UNL     1      33.059  31.315   0.050  1.00  0.00    -0.388 N 
ATOM     12  H12 UNL     1      33.408  30.942   0.932  1.00  0.00     0.157 HD
ATOM     13  H11 UNL     1      32.075  31.527  -0.111  1.00  0.00     0.157 HD
ENDBRANCH   7   9
ENDBRANCH   5   7
ENDBRANCH   3   5
ENDBRANCH   1   3
BRANCH   1  14
HETATM   14  C4  UNL     1      36.593  34.229  -2.979  1.00  0.00     0.078 A 
HETATM   15  C5  UNL     1      37.189  35.415  -2.633  1.00  0.00     0.040 A 
HETATM   16  C6  UNL     1      38.511  35.391  -2.390  1.00  0.00     0.040 A 
HETATM   17  C7  UNL     1      39.147  34.185  -2.509  1.00  0.00     0.082 A 
HETATM   18  S2  UNL     1      37.895  33.127  -2.953  1.00  0.00    -0.054 SA
BRANCH  17  19
HETATM   19  N5  UNL     1      40.559  33.973  -2.286  1.00  0.00    -0.320 N 
ATOM     20  H5  UNL     1      41.117  33.327  -2.843  1.00  0.00     0.176 HD
BRANCH  19  21
HETATM   21  C8  UNL     1      41.054  34.676  -1.316  1.00  0.00    -0.066 C 
BRANCH  21  22
HETATM   22  C9  UNL     1      41.473  35.165  -0.190  1.00  0.00     0.066 C 
HETATM   23  C10 UNL     1      40.499  35.655   0.788  1.00  0.00     0.024 C 
HETATM   24  C11 UNL     1      42.911  35.225   0.077  1.00  0.00     0.024 C 
ENDBRANCH  21  22
ENDBRANCH  19  21
ENDBRANCH  17  19
ENDBRANCH   1  14
TORSDOF 8
ENDMDL
MODEL 5
REMARK VINA RESULT: -6.179625981      2.288      6.816
REMARK  8 active torsions:
REMARK  status: ('A' for Active; 'I' for Inactive)
REMARK    1  A    between atoms: C2_2  and  N2_6 
REMARK    2  A    between atoms: N2_6  and  N3_8 
REMARK    3  A    between atoms: N3_8  and  C3_10 
REMARK    4  A    between atoms: C3_10  and  N4_12 
REMARK    5  A    between atoms: N4_12  and  C4_14 
REMARK    6  A    between atoms: C7_17  and  N5_18 
REMARK    7  A    between atoms: N5_18  and  C8_20 
REMARK    8  A    between atoms: C8_20  and  C9_21 
ROOT
HETATM    1  N4  UNL     1      40.476  36.699  -2.525  1.00  0.00    -0.326 N 
ATOM      2  H4  UNL     1      40.192  37.540  -2.021  1.00  0.00     0.169 HD
ENDROOT
BRANCH   1   3
HETATM    3  C3  UNL     1      41.735  36.648  -3.130  1.00  0.00     0.191 C 
HETATM    4  S1  UNL     1      42.016  37.449  -4.534  1.00  0.00    -0.039 SA
BRANCH   3   5
HETATM    5  N3  UNL     1      42.777  35.887  -2.513  1.00  0.00    -0.275 N 
ATOM      6  H3  UNL     1      43.398  35.343  -3.112  1.00  0.00     0.189 HD
BRANCH   5   7
HETATM    7  N2  UNL     1      42.988  35.851  -1.151  1.00  0.00    -0.288 N 
ATOM      8  H2  UNL     1      43.568  36.575  -0.728  1.00  0.00     0.188 HD
BRANCH   7   9
HETATM    9  C2  UNL     1      42.434  34.849  -0.310  1.00  0.00     0.085 C 
HETATM   10  C1  UNL     1      41.475  35.151   0.773  1.00  0.00     0.090 C 
HETATM   11  N1  UNL     1      42.771  33.615  -0.483  1.00  0.00    -0.388 N 
ATOM     12  H12 UNL     1      42.373  32.895   0.121  1.00  0.00     0.157 HD
ATOM     13  H11 UNL     1      43.432  33.406  -1.231  1.00  0.00     0.157 HD
ENDBRANCH   7   9
ENDBRANCH   5   7
ENDBRANCH   3   5
ENDBRANCH   1   3
BRANCH   1  14
HETATM   14  C4  UNL     1      39.581  35.581  -2.605  1.00  0.00     0.078 A 
HETATM   15  C5  UNL     1      39.895  34.269  -2.856  1.00  0.00     0.040 A 
HETATM   16  C6  UNL     1      38.880  33.389  -2.884  1.00  0.00     0.040 A 
HETATM   17  C7  UNL     1      37.621  33.877  -2.660  1.00  0.00     0.082 A 
HETATM   18  S2  UNL     1      37.885  35.538  -2.419  1.00  0.00    -0.054 SA
BRANCH  17  19
HETATM   19  N5  UNL     1      36.417  33.078  -2.654  1.00  0.00    -0.320 N 
ATOM     20  H5  UNL     1      35.566  33.356  -3.140  1.00  0.00     0.176 HD
BRANCH  19  21
HETATM   21  C8  UNL     1      36.514  31.978  -1.975  1.00  0.00    -0.066 C 
BRANCH  21  22
HETATM   22  C9  UNL     1      36.724  31.040  -1.105  1.00  0.00     0.066 C 
HETATM   23  C10 UNL     1      35.937  31.017   0.131  1.00  0.00     0.024 C 
HETATM   24  C11 UNL     1      37.748  30.028  -1.370  1.00  0.00     0.024 C 
ENDBRANCH  21  22
ENDBRANCH  19  21
ENDBRANCH  17  19
ENDBRANCH   1  14
TORSDOF 8
ENDMDL
