MODEL 1
REMARK VINA RESULT: -6.965288913      0.000      0.000
REMARK  7 active torsions:
REMARK  status: ('A' for Active; 'I' for Inactive)
REMARK    1  A    between atoms: N1_1  and  S1_4 
REMARK    2  A    between atoms: S1_4  and  C1_5 
REMARK    3  A    between atoms: C1_5  and  N2_6 
REMARK    4  A    between atoms: C1_5  and  N5_18 
REMARK    5  A    between atoms: N2_6  and  N3_8 
REMARK    6  A    between atoms: N4_10  and  C2_12 
REMARK    7  A    between atoms: N5_18  and  C8_20 
ROOT
HETATM    1  C1  UNL     1      35.524  33.690  -4.065  1.00  0.00     0.181 C 
ENDROOT
BRANCH   1   2
HETATM    2  S1  UNL     1      35.453  32.731  -5.411  1.00  0.00     0.017 SA
BRANCH   2   3
HETATM    3  N1  UNL     1      35.323  33.464  -7.044  1.00  0.00    -0.367 N 
ATOM      4  H12 UNL     1      34.501  34.027  -7.266  1.00  0.00     0.164 HD
ATOM      5  H11 UNL     1      36.059  33.319  -7.734  1.00  0.00     0.164 HD
ENDBRANCH   2   3
ENDBRANCH   1   2
BRANCH   1   6
HETATM    6  N2  UNL     1      34.532  33.525  -3.094  1.00  0.00    -0.264 N 
ATOM      7  H2  UNL     1      34.620  34.024  -2.209  1.00  0.00     0.190 HD
BRANCH   6   8
HETATM    8  N3  UNL     1      33.408  32.688  -3.301  1.00  0.00    -0.240 N 
HETATM    9  N4  UNL     1      33.304  31.679  -2.549  1.00  0.00    -0.286 N 
ATOM     10  H4  UNL     1      32.510  31.049  -2.664  1.00  0.00     0.188 HD
ATOM     11  H3  UNL     1      32.717  32.889  -4.024  1.00  0.00     0.208 HD
BRANCH   9  12
HETATM   12  C2  UNL     1      34.277  31.403  -1.538  1.00  0.00     0.049 A 
HETATM   13  C3  UNL     1      35.571  31.033  -1.860  1.00  0.00     0.031 A 
HETATM   14  C4  UNL     1      36.495  30.771  -0.871  1.00  0.00     0.002 A 
HETATM   15  C5  UNL     1      36.081  30.890   0.439  1.00  0.00     0.000 A 
HETATM   16  C6  UNL     1      34.806  31.254   0.788  1.00  0.00     0.002 A 
HETATM   17  C7  UNL     1      33.897  31.512  -0.216  1.00  0.00     0.031 A 
ENDBRANCH   9  12
ENDBRANCH   6   8
ENDBRANCH   1   6
BRANCH   1  18
HETATM   18  N5  UNL     1      36.567  34.607  -3.972  1.00  0.00    -0.334 N 
ATOM     19  H5  UNL     1      36.598  35.318  -4.703  1.00  0.00     0.168 HD
BRANCH  18  20
HETATM   20  C8  UNL     1      37.593  34.685  -2.997  1.00  0.00     0.034 A 
HETATM   21  C9  UNL     1      37.973  35.842  -2.373  1.00  0.00     0.029 A 
HETATM   22  C10 UNL     1      38.987  35.909  -1.449  1.00  0.00     0.002 A 
HETATM   23  C11 UNL     1      39.674  34.771  -1.115  1.00  0.00     0.000 A 
HETATM   24  C12 UNL     1      39.312  33.598  -1.726  1.00  0.00     0.002 A 
HETATM   25  C13 UNL     1      38.300  33.516  -2.651  1.00  0.00     0.029 A 
ENDBRANCH  18  20
ENDBRANCH   1  18
TORSDOF 7
ENDMDL
MODEL 2
REMARK VINA RESULT: -6.951165018      0.035      1.082
REMARK  7 active torsions:
REMARK  status: ('A' for Active; 'I' for Inactive)
REMARK    1  A    between atoms: N1_1  and  S1_4 
REMARK    2  A    between atoms: S1_4  and  C1_5 
REMARK    3  A    between atoms: C1_5  and  N2_6 
REMARK    4  A    between atoms: C1_5  and  N5_18 
REMARK    5  A    between atoms: N2_6  and  N3_8 
REMARK    6  A    between atoms: N4_10  and  C2_12 
REMARK    7  A    between atoms: N5_18  and  C8_20 
ROOT
HETATM    1  C1  UNL     1      35.522  33.675  -4.062  1.00  0.00     0.181 C 
ENDROOT
BRANCH   1   2
HETATM    2  S1  UNL     1      35.446  32.717  -5.408  1.00  0.00     0.017 SA
BRANCH   2   3
HETATM    3  N1  UNL     1      35.300  33.452  -7.039  1.00  0.00    -0.367 N 
ATOM      4  H12 UNL     1      36.140  33.813  -7.492  1.00  0.00     0.164 HD
ATOM      5  H11 UNL     1      34.393  33.505  -7.502  1.00  0.00     0.164 HD
ENDBRANCH   2   3
ENDBRANCH   1   2
BRANCH   1   6
HETATM    6  N2  UNL     1      34.530  33.516  -3.091  1.00  0.00    -0.264 N 
ATOM      7  H2  UNL     1      34.616  34.021  -2.210  1.00  0.00     0.190 HD
BRANCH   6   8
HETATM    8  N3  UNL     1      33.409  32.674  -3.293  1.00  0.00    -0.240 N 
HETATM    9  N4  UNL     1      33.310  31.666  -2.538  1.00  0.00    -0.286 N 
ATOM     10  H4  UNL     1      32.518  31.034  -2.650  1.00  0.00     0.188 HD
ATOM     11  H3  UNL     1      32.714  32.872  -4.014  1.00  0.00     0.208 HD
BRANCH   9  12
HETATM   12  C2  UNL     1      34.287  31.395  -1.530  1.00  0.00     0.049 A 
HETATM   13  C3  UNL     1      35.586  31.047  -1.855  1.00  0.00     0.031 A 
HETATM   14  C4  UNL     1      36.514  30.790  -0.868  1.00  0.00     0.002 A 
HETATM   15  C5  UNL     1      36.098  30.892   0.442  1.00  0.00     0.000 A 
HETATM   16  C6  UNL     1      34.818  31.235   0.794  1.00  0.00     0.002 A 
HETATM   17  C7  UNL     1      33.905  31.488  -0.207  1.00  0.00     0.031 A 
ENDBRANCH   9  12
ENDBRANCH   6   8
ENDBRANCH   1   6
BRANCH   1  18
HETATM   18  N5  UNL     1      36.571  34.586  -3.969  1.00  0.00    -0.334 N 
ATOM     19  H5  UNL     1      36.580  35.324  -4.673  1.00  0.00     0.168 HD
BRANCH  18  20
HETATM   20  C8  UNL     1      37.629  34.625  -3.026  1.00  0.00     0.034 A 
HETATM   21  C9  UNL     1      38.340  33.527  -2.625  1.00  0.00     0.029 A 
HETATM   22  C10 UNL     1      39.346  33.574  -1.690  1.00  0.00     0.002 A 
HETATM   23  C11 UNL     1      39.676  34.771  -1.110  1.00  0.00     0.000 A 
HETATM   24  C12 UNL     1      38.978  35.887  -1.496  1.00  0.00     0.002 A 
HETATM   25  C13 UNL     1      37.971  35.856  -2.429  1.00  0.00     0.029 A 
ENDBRANCH  18  20
ENDBRANCH   1  18
TORSDOF 7
ENDMDL
MODEL 3
REMARK VINA RESULT: -6.851863974      0.113      1.107
REMARK  7 active torsions:
REMARK  status: ('A' for Active; 'I' for Inactive)
REMARK    1  A    between atoms: N1_1  and  S1_4 
REMARK    2  A    between atoms: S1_4  and  C1_5 
REMARK    3  A    between atoms: C1_5  and  N2_6 
REMARK    4  A    between atoms: C1_5  and  N5_18 
REMARK    5  A    between atoms: N2_6  and  N3_8 
REMARK    6  A    between atoms: N4_10  and  C2_12 
REMARK    7  A    between atoms: N5_18  and  C8_20 
ROOT
HETATM    1  C1  UNL     1      35.456  33.626  -4.058  1.00  0.00     0.181 C 
ENDROOT
BRANCH   1   2
HETATM    2  S1  UNL     1      35.345  32.659  -5.396  1.00  0.00     0.017 SA
BRANCH   2   3
HETATM    3  N1  UNL     1      35.333  33.380  -7.039  1.00  0.00    -0.367 N 
ATOM      4  H12 UNL     1      34.997  34.336  -7.155  1.00  0.00     0.164 HD
ATOM      5  H11 UNL     1      35.658  32.840  -7.842  1.00  0.00     0.164 HD
ENDBRANCH   2   3
ENDBRANCH   1   2
BRANCH   1   6
HETATM    6  N2  UNL     1      34.488  33.474  -3.062  1.00  0.00    -0.264 N 
ATOM      7  H2  UNL     1      34.595  33.988  -2.187  1.00  0.00     0.190 HD
BRANCH   6   8
HETATM    8  N3  UNL     1      33.363  32.629  -3.229  1.00  0.00    -0.240 N 
HETATM    9  N4  UNL     1      33.286  31.626  -2.465  1.00  0.00    -0.286 N 
ATOM     10  H4  UNL     1      32.493  30.992  -2.551  1.00  0.00     0.188 HD
ATOM     11  H3  UNL     1      32.650  32.821  -3.932  1.00  0.00     0.208 HD
BRANCH   9  12
HETATM   12  C2  UNL     1      34.291  31.364  -1.481  1.00  0.00     0.049 A 
HETATM   13  C3  UNL     1      34.031  31.493  -0.128  1.00  0.00     0.031 A 
HETATM   14  C4  UNL     1      35.012  31.234   0.805  1.00  0.00     0.002 A 
HETATM   15  C5  UNL     1      36.251  30.848   0.340  1.00  0.00     0.000 A 
HETATM   16  C6  UNL     1      36.537  30.711  -0.995  1.00  0.00     0.002 A 
HETATM   17  C7  UNL     1      35.542  30.974  -1.912  1.00  0.00     0.031 A 
ENDBRANCH   9  12
ENDBRANCH   6   8
ENDBRANCH   1   6
BRANCH   1  18
HETATM   18  N5  UNL     1      36.508  34.536  -3.997  1.00  0.00    -0.334 N 
ATOM     19  H5  UNL     1      36.541  35.226  -4.749  1.00  0.00     0.168 HD
BRANCH  18  20
HETATM   20  C8  UNL     1      37.540  34.633  -3.030  1.00  0.00     0.034 A 
HETATM   21  C9  UNL     1      37.918  35.800  -2.425  1.00  0.00     0.029 A 
HETATM   22  C10 UNL     1      38.938  35.885  -1.509  1.00  0.00     0.002 A 
HETATM   23  C11 UNL     1      39.633  34.756  -1.164  1.00  0.00     0.000 A 
HETATM   24  C12 UNL     1      39.273  33.572  -1.755  1.00  0.00     0.002 A 
HETATM   25  C13 UNL     1      38.255  33.472  -2.673  1.00  0.00     0.029 A 
ENDBRANCH  18  20
ENDBRANCH   1  18
TORSDOF 7
ENDMDL
MODEL 4
REMARK VINA RESULT: -6.828584915      1.794      2.392
REMARK  7 active torsions:
REMARK  status: ('A' for Active; 'I' for Inactive)
REMARK    1  A    between atoms: N1_1  and  S1_4 
REMARK    2  A    between atoms: S1_4  and  C1_5 
REMARK    3  A    between atoms: C1_5  and  N2_6 
REMARK    4  A    between atoms: C1_5  and  N5_18 
REMARK    5  A    between atoms: N2_6  and  N3_8 
REMARK    6  A    between atoms: N4_10  and  C2_12 
REMARK    7  A    between atoms: N5_18  and  C8_20 
ROOT
HETATM    1  C1  UNL     1      36.382  35.086  -3.255  1.00  0.00     0.181 C 
ENDROOT
BRANCH   1   2
HETATM    2  S1  UNL     1      36.118  36.676  -2.881  1.00  0.00     0.017 SA
BRANCH   2   3
HETATM    3  N1  UNL     1      37.197  37.530  -1.728  1.00  0.00    -0.367 N 
ATOM      4  H12 UNL     1      38.180  37.257  -1.681  1.00  0.00     0.164 HD
ATOM      5  H11 UNL     1      36.832  38.272  -1.132  1.00  0.00     0.164 HD
ENDBRANCH   2   3
ENDBRANCH   1   2
BRANCH   1   6
HETATM    6  N2  UNL     1      35.306  34.203  -3.138  1.00  0.00    -0.264 N 
ATOM      7  H2  UNL     1      34.705  34.263  -2.316  1.00  0.00     0.190 HD
BRANCH   6   8
HETATM    8  N3  UNL     1      35.023  33.226  -4.124  1.00  0.00    -0.240 N 
HETATM    9  N4  UNL     1      34.843  32.044  -3.720  1.00  0.00    -0.286 N 
ATOM     10  H4  UNL     1      34.638  31.309  -4.396  1.00  0.00     0.188 HD
ATOM     11  H3  UNL     1      34.969  33.466  -5.114  1.00  0.00     0.208 HD
BRANCH   9  12
HETATM   12  C2  UNL     1      34.921  31.714  -2.330  1.00  0.00     0.049 A 
HETATM   13  C3  UNL     1      36.129  31.421  -1.722  1.00  0.00     0.031 A 
HETATM   14  C4  UNL     1      36.184  31.106  -0.381  1.00  0.00     0.002 A 
HETATM   15  C5  UNL     1      34.998  31.094   0.322  1.00  0.00     0.000 A 
HETATM   16  C6  UNL     1      33.786  31.381  -0.254  1.00  0.00     0.002 A 
HETATM   17  C7  UNL     1      33.753  31.694  -1.596  1.00  0.00     0.031 A 
ENDBRANCH   9  12
ENDBRANCH   6   8
ENDBRANCH   1   6
BRANCH   1  18
HETATM   18  N5  UNL     1      37.660  34.716  -3.667  1.00  0.00    -0.334 N 
ATOM     19  H5  UNL     1      37.750  34.458  -4.649  1.00  0.00     0.168 HD
BRANCH  18  20
HETATM   20  C8  UNL     1      38.851  34.651  -2.902  1.00  0.00     0.034 A 
HETATM   21  C9  UNL     1      39.992  35.345  -3.199  1.00  0.00     0.029 A 
HETATM   22  C10 UNL     1      41.150  35.252  -2.465  1.00  0.00     0.002 A 
HETATM   23  C11 UNL     1      41.194  34.427  -1.372  1.00  0.00     0.000 A 
HETATM   24  C12 UNL     1      40.063  33.721  -1.053  1.00  0.00     0.002 A 
HETATM   25  C13 UNL     1      38.898  33.803  -1.777  1.00  0.00     0.029 A 
ENDBRANCH  18  20
ENDBRANCH   1  18
TORSDOF 7
ENDMDL
MODEL 5
REMARK VINA RESULT: -6.816878977      6.009      8.333
REMARK  7 active torsions:
REMARK  status: ('A' for Active; 'I' for Inactive)
REMARK    1  A    between atoms: N1_1  and  S1_4 
REMARK    2  A    between atoms: S1_4  and  C1_5 
REMARK    3  A    between atoms: C1_5  and  N2_6 
REMARK    4  A    between atoms: C1_5  and  N5_18 
REMARK    5  A    between atoms: N2_6  and  N3_8 
REMARK    6  A    between atoms: N4_10  and  C2_12 
REMARK    7  A    between atoms: N5_18  and  C8_20 
ROOT
HETATM    1  C1  UNL     1      39.242  38.345  -0.502  1.00  0.00     0.181 C 
ENDROOT
BRANCH   1   2
HETATM    2  S1  UNL     1      38.417  39.411   0.458  1.00  0.00     0.017 SA
BRANCH   2   3
HETATM    3  N1  UNL     1      36.623  39.382   0.513  1.00  0.00    -0.367 N 
ATOM      4  H12 UNL     1      36.143  38.486   0.426  1.00  0.00     0.164 HD
ATOM      5  H11 UNL     1      36.097  40.248   0.630  1.00  0.00     0.164 HD
ENDBRANCH   2   3
ENDBRANCH   1   2
BRANCH   1   6
HETATM    6  N2  UNL     1      40.047  38.871  -1.516  1.00  0.00    -0.264 N 
ATOM      7  H2  UNL     1      40.013  38.447  -2.443  1.00  0.00     0.190 HD
BRANCH   6   8
HETATM    8  N3  UNL     1      40.910  39.973  -1.297  1.00  0.00    -0.240 N 
HETATM    9  N4  UNL     1      42.070  39.894  -1.789  1.00  0.00    -0.286 N 
ATOM     10  H4  UNL     1      42.723  40.665  -1.655  1.00  0.00     0.188 HD
ATOM     11  H3  UNL     1      40.608  40.791  -0.767  1.00  0.00     0.208 HD
BRANCH   9  12
HETATM   12  C2  UNL     1      42.486  38.745  -2.532  1.00  0.00     0.049 A 
HETATM   13  C3  UNL     1      43.348  37.806  -1.991  1.00  0.00     0.031 A 
HETATM   14  C4  UNL     1      43.736  36.704  -2.723  1.00  0.00     0.002 A 
HETATM   15  C5  UNL     1      43.237  36.577  -4.002  1.00  0.00     0.000 A 
HETATM   16  C6  UNL     1      42.382  37.491  -4.563  1.00  0.00     0.002 A 
HETATM   17  C7  UNL     1      42.005  38.586  -3.815  1.00  0.00     0.031 A 
ENDBRANCH   9  12
ENDBRANCH   6   8
ENDBRANCH   1   6
BRANCH   1  18
HETATM   18  N5  UNL     1      39.091  36.985  -0.245  1.00  0.00    -0.334 N 
ATOM     19  H5  UNL     1      38.147  36.682  -0.005  1.00  0.00     0.168 HD
BRANCH  18  20
HETATM   20  C8  UNL     1      40.074  35.964  -0.274  1.00  0.00     0.034 A 
HETATM   21  C9  UNL     1      40.900  35.664   0.774  1.00  0.00     0.029 A 
HETATM   22  C10 UNL     1      41.867  34.690   0.725  1.00  0.00     0.002 A 
HETATM   23  C11 UNL     1      42.036  33.963  -0.425  1.00  0.00     0.000 A 
HETATM   24  C12 UNL     1      41.220  34.243  -1.490  1.00  0.00     0.002 A 
HETATM   25  C13 UNL     1      40.249  35.215  -1.455  1.00  0.00     0.029 A 
ENDBRANCH  18  20
ENDBRANCH   1  18
TORSDOF 7
ENDMDL
