MODEL 1
REMARK VINA RESULT: -6.625759126      0.000      0.000
REMARK  4 active torsions:
REMARK  status: ('A' for Active; 'I' for Inactive)
REMARK    1  A    between atoms: C4_5  and  C5_6 
REMARK    2  A    between atoms: C5_6  and  O2_7 
REMARK    3  A    between atoms: C6_10  and  N1_11 
REMARK    4  A    between atoms: C10_17  and  O4_18 
ROOT
HETATM    1  C1  UNL     1      -4.860   7.000  12.791  1.00  0.00     0.015 C 
HETATM    2  C2  UNL     1      -4.672   5.847  13.078  1.00  0.00    -0.082 C 
HETATM    3  C3  UNL     1      -4.447   4.455  13.407  1.00  0.00     0.235 C 
HETATM    4  O1  UNL     1      -4.822   3.592  12.384  1.00  0.00    -0.339 OA
HETATM    5  C4  UNL     1      -4.412   2.323  12.738  1.00  0.00     0.287 C 
HETATM    6  O3  UNL     1      -5.171   1.894  13.798  1.00  0.00    -0.332 OA
HETATM    7  C6  UNL     1      -4.810   2.630  14.949  1.00  0.00     0.263 C 
HETATM    8  C10 UNL     1      -5.199   4.052  14.684  1.00  0.00     0.208 C 
ENDROOT
BRANCH   8   9
HETATM    9  O4  UNL     1      -4.730   4.927  15.674  1.00  0.00    -0.388 OA
ATOM     10  H4  UNL     1      -4.957   5.796  15.362  1.00  0.00     0.210 HD
ENDBRANCH   8   9
BRANCH   5  11
HETATM   11  C5  UNL     1      -4.463   1.354  11.578  1.00  0.00     0.224 C 
BRANCH  11  12
HETATM   12  O2  UNL     1      -5.578   1.718  10.789  1.00  0.00    -0.396 OA
ATOM     13  H2  UNL     1      -6.019   0.912  10.548  1.00  0.00     0.209 HD
ENDBRANCH  11  12
ENDBRANCH   5  11
BRANCH   7  14
HETATM   14  N1  UNL     1      -5.462   2.021  16.054  1.00  0.00    -0.322 N 
HETATM   15  C7  UNL     1      -6.658   2.396  16.537  1.00  0.00     0.111 A 
HETATM   16  C8  UNL     1      -6.961   1.587  17.591  1.00  0.00     0.106 A 
HETATM   17  N2  UNL     1      -5.950   0.713  17.758  1.00  0.00    -0.361 N 
HETATM   18  C9  UNL     1      -5.045   1.006  16.798  1.00  0.00     0.184 A 
ATOM     19  H2  UNL     1      -5.882  -0.019  18.465  1.00  0.00     0.166 HD
ENDBRANCH   7  14
TORSDOF 4
ENDMDL
MODEL 2
REMARK VINA RESULT: -6.489097580      2.409      4.404
REMARK  4 active torsions:
REMARK  status: ('A' for Active; 'I' for Inactive)
REMARK    1  A    between atoms: C4_5  and  C5_6 
REMARK    2  A    between atoms: C5_6  and  O2_7 
REMARK    3  A    between atoms: C6_10  and  N1_11 
REMARK    4  A    between atoms: C10_17  and  O4_18 
ROOT
HETATM    1  C1  UNL     1      -2.158   6.371  14.076  1.00  0.00     0.015 C 
HETATM    2  C2  UNL     1      -2.912   5.435  14.135  1.00  0.00    -0.082 C 
HETATM    3  C3  UNL     1      -3.816   4.307  14.223  1.00  0.00     0.235 C 
HETATM    4  O1  UNL     1      -3.651   3.575  15.393  1.00  0.00    -0.339 OA
HETATM    5  C4  UNL     1      -4.664   2.638  15.444  1.00  0.00     0.287 C 
HETATM    6  O3  UNL     1      -4.451   1.703  14.462  1.00  0.00    -0.332 OA
HETATM    7  C6  UNL     1      -4.690   2.298  13.202  1.00  0.00     0.263 C 
HETATM    8  C10 UNL     1      -3.647   3.358  13.027  1.00  0.00     0.208 C 
ENDROOT
BRANCH   8   9
HETATM    9  O4  UNL     1      -3.878   4.153  11.896  1.00  0.00    -0.388 OA
ATOM     10  H4  UNL     1      -3.509   5.002  12.112  1.00  0.00     0.210 HD
ENDBRANCH   8   9
BRANCH   5  11
HETATM   11  C5  UNL     1      -4.795   2.002  16.810  1.00  0.00     0.224 C 
BRANCH  11  12
HETATM   12  O2  UNL     1      -4.022   0.819  16.786  1.00  0.00    -0.396 OA
ATOM     13  H2  UNL     1      -4.218   0.346  17.586  1.00  0.00     0.209 HD
ENDBRANCH  11  12
ENDBRANCH   5  11
BRANCH   7  14
HETATM   14  N1  UNL     1      -4.661   1.256  12.237  1.00  0.00    -0.322 N 
HETATM   15  C7  UNL     1      -4.316  -0.016  12.497  1.00  0.00     0.111 A 
HETATM   16  C8  UNL     1      -4.407  -0.724  11.336  1.00  0.00     0.106 A 
HETATM   17  N2  UNL     1      -4.807   0.113  10.360  1.00  0.00    -0.361 N 
HETATM   18  C9  UNL     1      -4.955   1.321  10.946  1.00  0.00     0.184 A 
ATOM     19  H2  UNL     1      -4.966  -0.119   9.380  1.00  0.00     0.166 HD
ENDBRANCH   7  14
TORSDOF 4
ENDMDL
MODEL 3
REMARK VINA RESULT: -6.379606609      2.528      4.005
REMARK  4 active torsions:
REMARK  status: ('A' for Active; 'I' for Inactive)
REMARK    1  A    between atoms: C4_5  and  C5_6 
REMARK    2  A    between atoms: C5_6  and  O2_7 
REMARK    3  A    between atoms: C6_10  and  N1_11 
REMARK    4  A    between atoms: C10_17  and  O4_18 
ROOT
HETATM    1  C1  UNL     1      -6.232   4.937  16.582  1.00  0.00     0.015 C 
HETATM    2  C2  UNL     1      -5.629   4.620  15.591  1.00  0.00    -0.082 C 
HETATM    3  C3  UNL     1      -4.907   4.253  14.390  1.00  0.00     0.235 C 
HETATM    4  O1  UNL     1      -5.238   5.047  13.298  1.00  0.00    -0.339 OA
HETATM    5  C4  UNL     1      -4.379   4.720  12.269  1.00  0.00     0.287 C 
HETATM    6  O3  UNL     1      -4.676   3.453  11.832  1.00  0.00    -0.332 OA
HETATM    7  C6  UNL     1      -4.285   2.523  12.822  1.00  0.00     0.263 C 
HETATM    8  C10 UNL     1      -5.151   2.783  14.016  1.00  0.00     0.208 C 
ENDROOT
BRANCH   8   9
HETATM    9  O4  UNL     1      -4.745   2.050  15.139  1.00  0.00    -0.388 OA
ATOM     10  H4  UNL     1      -5.425   2.196  15.787  1.00  0.00     0.210 HD
ENDBRANCH   8   9
BRANCH   5  11
HETATM   11  C5  UNL     1      -4.415   5.729  11.143  1.00  0.00     0.224 C 
BRANCH  11  12
HETATM   12  O2  UNL     1      -5.172   5.150  10.099  1.00  0.00    -0.396 OA
ATOM     13  H2  UNL     1      -5.757   5.826   9.777  1.00  0.00     0.209 HD
ENDBRANCH  11  12
ENDBRANCH   5  11
BRANCH   7  14
HETATM   14  N1  UNL     1      -4.417   1.229  12.250  1.00  0.00    -0.322 N 
HETATM   15  C7  UNL     1      -4.806   0.987  10.988  1.00  0.00     0.111 A 
HETATM   16  C8  UNL     1      -4.814  -0.363  10.799  1.00  0.00     0.106 A 
HETATM   17  N2  UNL     1      -4.429  -0.953  11.947  1.00  0.00    -0.361 N 
HETATM   18  C9  UNL     1      -4.192   0.052  12.819  1.00  0.00     0.184 A 
ATOM     19  H2  UNL     1      -4.336  -1.954  12.122  1.00  0.00     0.166 HD
ENDBRANCH   7  14
TORSDOF 4
ENDMDL
MODEL 4
REMARK VINA RESULT: -6.369851606      2.284      4.602
REMARK  4 active torsions:
REMARK  status: ('A' for Active; 'I' for Inactive)
REMARK    1  A    between atoms: C4_5  and  C5_6 
REMARK    2  A    between atoms: C5_6  and  O2_7 
REMARK    3  A    between atoms: C6_10  and  N1_11 
REMARK    4  A    between atoms: C10_17  and  O4_18 
ROOT
HETATM    1  C1  UNL     1      -5.938   0.764  17.744  1.00  0.00     0.015 C 
HETATM    2  C2  UNL     1      -5.692   1.331  16.712  1.00  0.00    -0.082 C 
HETATM    3  C3  UNL     1      -5.394   1.999  15.462  1.00  0.00     0.235 C 
HETATM    4  O1  UNL     1      -4.740   1.175  14.554  1.00  0.00    -0.339 OA
HETATM    5  C4  UNL     1      -4.658   1.857  13.357  1.00  0.00     0.287 C 
HETATM    6  O3  UNL     1      -3.786   2.906  13.505  1.00  0.00    -0.332 OA
HETATM    7  C6  UNL     1      -4.380   3.883  14.337  1.00  0.00     0.263 C 
HETATM    8  C10 UNL     1      -4.536   3.253  15.687  1.00  0.00     0.208 C 
ENDROOT
BRANCH   8   9
HETATM    9  O4  UNL     1      -5.282   4.051  16.565  1.00  0.00    -0.388 OA
ATOM     10  H4  UNL     1      -6.190   3.875  16.348  1.00  0.00     0.210 HD
ENDBRANCH   8   9
BRANCH   5  11
HETATM   11  C5  UNL     1      -4.269   0.958  12.204  1.00  0.00     0.224 C 
BRANCH  11  12
HETATM   12  O2  UNL     1      -5.198   1.198  11.166  1.00  0.00    -0.396 OA
ATOM     13  H2  UNL     1      -5.512   0.349  10.877  1.00  0.00     0.209 HD
ENDBRANCH  11  12
ENDBRANCH   5  11
BRANCH   7  14
HETATM   14  N1  UNL     1      -3.541   5.029  14.298  1.00  0.00    -0.322 N 
HETATM   15  C7  UNL     1      -2.199   4.995  14.331  1.00  0.00     0.111 A 
HETATM   16  C8  UNL     1      -1.742   6.277  14.274  1.00  0.00     0.106 A 
HETATM   17  N2  UNL     1      -2.805   7.102  14.206  1.00  0.00    -0.361 N 
HETATM   18  C9  UNL     1      -3.895   6.304  14.222  1.00  0.00     0.184 A 
ATOM     19  H2  UNL     1      -2.789   8.121  14.153  1.00  0.00     0.166 HD
ENDBRANCH   7  14
TORSDOF 4
ENDMDL
MODEL 5
REMARK VINA RESULT: -6.312369440      2.234      4.727
REMARK  4 active torsions:
REMARK  status: ('A' for Active; 'I' for Inactive)
REMARK    1  A    between atoms: C4_5  and  C5_6 
REMARK    2  A    between atoms: C5_6  and  O2_7 
REMARK    3  A    between atoms: C6_10  and  N1_11 
REMARK    4  A    between atoms: C10_17  and  O4_18 
ROOT
HETATM    1  C1  UNL     1      -6.299   1.981  18.846  1.00  0.00     0.015 C 
HETATM    2  C2  UNL     1      -5.912   2.411  17.791  1.00  0.00    -0.082 C 
HETATM    3  C3  UNL     1      -5.457   2.943  16.523  1.00  0.00     0.235 C 
HETATM    4  O1  UNL     1      -6.295   3.931  16.021  1.00  0.00    -0.339 OA
HETATM    5  C4  UNL     1      -5.681   4.473  14.910  1.00  0.00     0.287 C 
HETATM    6  O3  UNL     1      -5.674   3.536  13.908  1.00  0.00    -0.332 OA
HETATM    7  C6  UNL     1      -4.767   2.506  14.248  1.00  0.00     0.263 C 
HETATM    8  C10 UNL     1      -5.322   1.836  15.467  1.00  0.00     0.208 C 
ENDROOT
BRANCH   8   9
HETATM    9  O4  UNL     1      -4.427   0.911  16.022  1.00  0.00    -0.388 OA
ATOM     10  H4  UNL     1      -4.976   0.227  16.388  1.00  0.00     0.210 HD
ENDBRANCH   8   9
BRANCH   5  11
HETATM   11  C5  UNL     1      -6.325   5.768  14.467  1.00  0.00     0.224 C 
BRANCH  11  12
HETATM   12  O2  UNL     1      -5.972   5.958  13.111  1.00  0.00    -0.396 OA
ATOM     13  H2  UNL     1      -5.921   5.095  12.718  1.00  0.00     0.209 HD
ENDBRANCH  11  12
ENDBRANCH   5  11
BRANCH   7  14
HETATM   14  N1  UNL     1      -4.636   1.672  13.106  1.00  0.00    -0.322 N 
HETATM   15  C7  UNL     1      -4.749   2.094  11.835  1.00  0.00     0.111 A 
HETATM   16  C8  UNL     1      -4.563   1.021  11.016  1.00  0.00     0.106 A 
HETATM   17  N2  UNL     1      -4.336  -0.063  11.783  1.00  0.00    -0.361 N 
HETATM   18  C9  UNL     1      -4.387   0.371  13.062  1.00  0.00     0.184 A 
ATOM     19  H2  UNL     1      -4.162  -1.016  11.463  1.00  0.00     0.166 HD
ENDBRANCH   7  14
TORSDOF 4
ENDMDL
