MODEL 1
REMARK VINA RESULT: -6.363358878      0.000      0.000
REMARK  4 active torsions:
REMARK  status: ('A' for Active; 'I' for Inactive)
REMARK    1  A    between atoms: C2_2  and  O1_3 
REMARK    2  A    between atoms: C3_5  and  O2_6 
REMARK    3  A    between atoms: C4_9  and  C5_10 
REMARK    4  A    between atoms: N1_11  and  N2_13 
ROOT
HETATM    1  C1  UNL     1      -6.272   1.941  18.806  1.00  0.00     0.054 C 
HETATM    2  C2  UNL     1      -6.546   2.145  17.342  1.00  0.00     0.134 C 
HETATM    3  C3  UNL     1      -6.563   3.604  16.997  1.00  0.00     0.294 C 
HETATM    4  O3  UNL     1      -5.168   3.569  16.990  1.00  0.00    -0.345 OA
HETATM    5  C4  UNL     1      -5.264   2.243  16.567  1.00  0.00     0.203 C 
ENDROOT
BRANCH   5   6
HETATM    6  C5  UNL     1      -5.427   2.225  15.077  1.00  0.00     0.115 C 
HETATM    7  N1  UNL     1      -4.433   1.746  14.408  1.00  0.00    -0.315 N 
ATOM      8  H1  UNL     1      -3.618   1.419  14.928  1.00  0.00     0.185 HD
BRANCH   7   9
HETATM    9  N2  UNL     1      -4.408   1.651  13.029  1.00  0.00    -0.324 N 
HETATM   10  C6  UNL     1      -4.106   0.385  12.377  1.00  0.00     0.168 C 
HETATM   11  C7  UNL     1      -4.790   0.293  11.043  1.00  0.00     0.189 C 
HETATM   12  O4  UNL     1      -4.542   1.350  10.205  1.00  0.00    -0.388 OA
HETATM   13  C8  UNL     1      -4.033   2.471  10.812  1.00  0.00     0.189 C 
HETATM   14  C9  UNL     1      -4.675   2.779  12.147  1.00  0.00     0.168 C 
ENDBRANCH   7   9
ENDBRANCH   5   6
BRANCH   2  15
HETATM   15  O1  UNL     1      -7.543   1.369  16.797  1.00  0.00    -0.382 OA
ATOM     16  H1  UNL     1      -7.648   1.423  15.854  1.00  0.00     0.210 HD
ENDBRANCH   2  15
BRANCH   3  17
HETATM   17  O2  UNL     1      -7.036   4.453  17.989  1.00  0.00    -0.368 OA
ATOM     18  H2  UNL     1      -7.247   5.337  17.710  1.00  0.00     0.212 HD
ENDBRANCH   3  17
TORSDOF 4
ENDMDL
MODEL 2
REMARK VINA RESULT: -5.940846627      1.655      6.210
REMARK  4 active torsions:
REMARK  status: ('A' for Active; 'I' for Inactive)
REMARK    1  A    between atoms: C2_2  and  O1_3 
REMARK    2  A    between atoms: C3_5  and  O2_6 
REMARK    3  A    between atoms: C4_9  and  C5_10 
REMARK    4  A    between atoms: N1_11  and  N2_13 
ROOT
HETATM    1  C1  UNL     1      -2.829   3.915  10.462  1.00  0.00     0.054 C 
HETATM    2  C2  UNL     1      -3.960   3.714  11.431  1.00  0.00     0.134 C 
HETATM    3  C3  UNL     1      -4.491   2.315  11.354  1.00  0.00     0.294 C 
HETATM    4  O3  UNL     1      -3.410   1.913  12.141  1.00  0.00    -0.345 OA
HETATM    5  C4  UNL     1      -3.455   3.174  12.737  1.00  0.00     0.203 C 
ENDROOT
BRANCH   5   6
HETATM    6  C5  UNL     1      -4.469   3.147  13.840  1.00  0.00     0.115 C 
HETATM    7  N1  UNL     1      -4.186   2.388  14.845  1.00  0.00    -0.315 N 
ATOM      8  H1  UNL     1      -3.309   1.866  14.821  1.00  0.00     0.185 HD
BRANCH   7   9
HETATM    9  N2  UNL     1      -5.002   2.239  15.952  1.00  0.00    -0.324 N 
HETATM   10  C6  UNL     1      -5.499   3.403  16.670  1.00  0.00     0.168 C 
HETATM   11  C7  UNL     1      -6.829   3.114  17.305  1.00  0.00     0.189 C 
HETATM   12  O4  UNL     1      -6.844   1.999  18.104  1.00  0.00    -0.388 OA
HETATM   13  C8  UNL     1      -5.795   1.134  17.921  1.00  0.00     0.189 C 
HETATM   14  C9  UNL     1      -5.417   0.942  16.468  1.00  0.00     0.168 C 
ENDBRANCH   7   9
ENDBRANCH   5   6
BRANCH   2  15
HETATM   15  O1  UNL     1      -4.891   4.726  11.496  1.00  0.00    -0.382 OA
ATOM     16  H1  UNL     1      -5.797   4.471  11.367  1.00  0.00     0.210 HD
ENDBRANCH   2  15
BRANCH   3  17
HETATM   17  O2  UNL     1      -4.443   1.719  10.100  1.00  0.00    -0.368 OA
ATOM     18  H2  UNL     1      -3.906   2.161   9.453  1.00  0.00     0.212 HD
ENDBRANCH   3  17
TORSDOF 4
ENDMDL
MODEL 3
REMARK VINA RESULT: -5.933844088      1.673      6.130
REMARK  4 active torsions:
REMARK  status: ('A' for Active; 'I' for Inactive)
REMARK    1  A    between atoms: C2_2  and  O1_3 
REMARK    2  A    between atoms: C3_5  and  O2_6 
REMARK    3  A    between atoms: C4_9  and  C5_10 
REMARK    4  A    between atoms: N1_11  and  N2_13 
ROOT
HETATM    1  C1  UNL     1      -2.804   3.861  10.489  1.00  0.00     0.054 C 
HETATM    2  C2  UNL     1      -3.958   3.682  11.434  1.00  0.00     0.134 C 
HETATM    3  C3  UNL     1      -4.493   2.283  11.369  1.00  0.00     0.294 C 
HETATM    4  O3  UNL     1      -3.434   1.891  12.188  1.00  0.00    -0.345 OA
HETATM    5  C4  UNL     1      -3.487   3.163  12.761  1.00  0.00     0.203 C 
ENDROOT
BRANCH   5   6
HETATM    6  C5  UNL     1      -4.527   3.159  13.840  1.00  0.00     0.115 C 
HETATM    7  N1  UNL     1      -4.253   2.448  14.882  1.00  0.00    -0.315 N 
ATOM      8  H1  UNL     1      -3.366   1.945  14.900  1.00  0.00     0.185 HD
BRANCH   7   9
HETATM    9  N2  UNL     1      -5.093   2.328  15.974  1.00  0.00    -0.324 N 
HETATM   10  C6  UNL     1      -5.513   1.018  16.448  1.00  0.00     0.168 C 
HETATM   11  C7  UNL     1      -5.773   1.041  17.927  1.00  0.00     0.189 C 
HETATM   12  O4  UNL     1      -6.650   2.014  18.332  1.00  0.00    -0.388 OA
HETATM   13  C8  UNL     1      -6.864   3.022  17.426  1.00  0.00     0.189 C 
HETATM   14  C9  UNL     1      -5.607   3.473  16.715  1.00  0.00     0.168 C 
ENDBRANCH   7   9
ENDBRANCH   5   6
BRANCH   2  15
HETATM   15  O1  UNL     1      -4.885   4.698  11.459  1.00  0.00    -0.382 OA
ATOM     16  H1  UNL     1      -5.705   4.507  11.900  1.00  0.00     0.210 HD
ENDBRANCH   2  15
BRANCH   3  17
HETATM   17  O2  UNL     1      -4.419   1.666  10.127  1.00  0.00    -0.368 OA
ATOM     18  H2  UNL     1      -4.070   0.781  10.126  1.00  0.00     0.212 HD
ENDBRANCH   3  17
TORSDOF 4
ENDMDL
MODEL 4
REMARK VINA RESULT: -5.842820497      1.370      1.766
REMARK  4 active torsions:
REMARK  status: ('A' for Active; 'I' for Inactive)
REMARK    1  A    between atoms: C2_2  and  O1_3 
REMARK    2  A    between atoms: C3_5  and  O2_6 
REMARK    3  A    between atoms: C4_9  and  C5_10 
REMARK    4  A    between atoms: N1_11  and  N2_13 
ROOT
HETATM    1  C1  UNL     1      -6.151   1.997  18.921  1.00  0.00     0.054 C 
HETATM    2  C2  UNL     1      -5.777   1.535  17.539  1.00  0.00     0.134 C 
HETATM    3  C3  UNL     1      -6.977   1.502  16.642  1.00  0.00     0.294 C 
HETATM    4  O3  UNL     1      -6.842   2.883  16.491  1.00  0.00    -0.345 OA
HETATM    5  C4  UNL     1      -5.467   2.705  16.651  1.00  0.00     0.203 C 
ENDROOT
BRANCH   5   6
HETATM    6  C5  UNL     1      -4.873   2.345  15.323  1.00  0.00     0.115 C 
HETATM    7  N1  UNL     1      -5.009   3.226  14.390  1.00  0.00    -0.315 N 
ATOM      8  H1  UNL     1      -5.504   4.090  14.613  1.00  0.00     0.185 HD
BRANCH   7   9
HETATM    9  N2  UNL     1      -4.525   3.066  13.104  1.00  0.00    -0.324 N 
HETATM   10  C6  UNL     1      -4.468   1.748  12.490  1.00  0.00     0.168 C 
HETATM   11  C7  UNL     1      -4.615   1.845  10.998  1.00  0.00     0.189 C 
HETATM   12  O4  UNL     1      -3.732   2.706  10.397  1.00  0.00    -0.388 OA
HETATM   13  C8  UNL     1      -3.120   3.599  11.241  1.00  0.00     0.189 C 
HETATM   14  C9  UNL     1      -4.049   4.175  12.288  1.00  0.00     0.168 C 
ENDBRANCH   7   9
ENDBRANCH   5   6
BRANCH   2  15
HETATM   15  O1  UNL     1      -4.922   0.460  17.469  1.00  0.00    -0.382 OA
ATOM     16  H1  UNL     1      -4.283   0.478  16.767  1.00  0.00     0.210 HD
ENDBRANCH   2  15
BRANCH   3  17
HETATM   17  O2  UNL     1      -8.182   1.183  17.255  1.00  0.00    -0.368 OA
ATOM     18  H2  UNL     1      -8.339   1.595  18.097  1.00  0.00     0.212 HD
ENDBRANCH   3  17
TORSDOF 4
ENDMDL
MODEL 5
REMARK VINA RESULT: -5.835271833      3.273      4.097
REMARK  4 active torsions:
REMARK  status: ('A' for Active; 'I' for Inactive)
REMARK    1  A    between atoms: C2_2  and  O1_3 
REMARK    2  A    between atoms: C3_5  and  O2_6 
REMARK    3  A    between atoms: C4_9  and  C5_10 
REMARK    4  A    between atoms: N1_11  and  N2_13 
ROOT
HETATM    1  C1  UNL     1      -7.439   1.369  17.116  1.00  0.00     0.054 C 
HETATM    2  C2  UNL     1      -6.201   2.223  17.094  1.00  0.00     0.134 C 
HETATM    3  C3  UNL     1      -5.003   1.420  16.685  1.00  0.00     0.294 C 
HETATM    4  O3  UNL     1      -5.425   1.554  15.362  1.00  0.00    -0.345 OA
HETATM    5  C4  UNL     1      -5.967   2.788  15.724  1.00  0.00     0.203 C 
ENDROOT
BRANCH   5   6
HETATM    6  C5  UNL     1      -4.888   3.826  15.648  1.00  0.00     0.115 C 
HETATM    7  N1  UNL     1      -4.516   4.164  14.459  1.00  0.00    -0.315 N 
ATOM      8  H1  UNL     1      -4.972   3.711  13.666  1.00  0.00     0.185 HD
BRANCH   7   9
HETATM    9  N2  UNL     1      -3.537   5.105  14.198  1.00  0.00    -0.324 N 
HETATM   10  C6  UNL     1      -2.128   4.774  14.356  1.00  0.00     0.168 C 
HETATM   11  C7  UNL     1      -1.280   5.575  13.409  1.00  0.00     0.189 C 
HETATM   12  O4  UNL     1      -1.478   6.930  13.480  1.00  0.00    -0.388 OA
HETATM   13  C8  UNL     1      -2.636   7.320  14.105  1.00  0.00     0.189 C 
HETATM   14  C9  UNL     1      -3.831   6.461  13.754  1.00  0.00     0.168 C 
ENDBRANCH   7   9
ENDBRANCH   5   6
BRANCH   2  15
HETATM   15  O1  UNL     1      -6.037   3.082  18.156  1.00  0.00    -0.382 OA
ATOM     16  H1  UNL     1      -6.502   3.909  18.101  1.00  0.00     0.210 HD
ENDBRANCH   2  15
BRANCH   3  17
HETATM   17  O2  UNL     1      -5.006   0.088  17.078  1.00  0.00    -0.368 OA
ATOM     18  H2  UNL     1      -5.748  -0.428  16.783  1.00  0.00     0.212 HD
ENDBRANCH   3  17
TORSDOF 4
ENDMDL
