MODEL 1
REMARK VINA RESULT: -7.019628015      0.000      0.000
REMARK  4 active torsions:
REMARK  status: ('A' for Active; 'I' for Inactive)
REMARK    1  A    between atoms: O1_1  and  C1_3 
REMARK    2  A    between atoms: C1_3  and  C2_4 
REMARK    3  A    between atoms: C4_7  and  O3_8 
REMARK    4  A    between atoms: C7_12  and  N1_13 
ROOT
HETATM    1  C2  UNL     1      -4.002   1.917  12.485  1.00  0.00     0.286 C 
HETATM    2  O2  UNL     1      -2.815   2.449  12.089  1.00  0.00    -0.351 OA
HETATM    3  C3  UNL     1      -2.698   3.801  12.122  1.00  0.00     0.162 C 
HETATM    4  C4  UNL     1      -1.296   4.193  12.589  1.00  0.00     0.148 C 
HETATM    5  C5  UNL     1      -1.855   4.662  13.916  1.00  0.00     0.046 C 
HETATM    6  C6  UNL     1      -3.232   4.458  13.366  1.00  0.00     0.070 C 
HETATM    7  C7  UNL     1      -4.098   3.461  14.085  1.00  0.00     0.253 C 
HETATM    8  O4  UNL     1      -4.872   2.825  13.085  1.00  0.00    -0.333 OA
ENDROOT
BRANCH   7   9
HETATM    9  N1  UNL     1      -4.957   4.075  15.065  1.00  0.00    -0.274 N 
HETATM   10  C8  UNL     1      -5.802   3.380  15.844  1.00  0.00     0.114 A 
HETATM   11  C9  UNL     1      -6.487   4.256  16.680  1.00  0.00     0.037 A 
HETATM   12  C10 UNL     1      -6.001   5.504  16.354  1.00  0.00     0.108 A 
HETATM   13  N2  UNL     1      -5.074   5.368  15.372  1.00  0.00    -0.308 N 
ATOM     14  H2  UNL     1      -4.553   6.131  14.938  1.00  0.00     0.186 HD
ENDBRANCH   7   9
BRANCH   1  15
HETATM   15  C1  UNL     1      -4.695   1.149  11.373  1.00  0.00     0.224 C 
BRANCH  15  16
HETATM   16  O1  UNL     1      -5.707   1.929  10.815  1.00  0.00    -0.396 OA
ATOM     17  H1  UNL     1      -6.371   1.371  10.428  1.00  0.00     0.209 HD
ENDBRANCH  15  16
ENDBRANCH   1  15
BRANCH   4  18
HETATM   18  O3  UNL     1      -0.425   3.112  12.717  1.00  0.00    -0.393 OA
ATOM     19  H3  UNL     1      -0.684   2.352  12.211  1.00  0.00     0.210 HD
ENDBRANCH   4  18
TORSDOF 4
ENDMDL
MODEL 2
REMARK VINA RESULT: -6.938923503      1.004      1.303
REMARK  4 active torsions:
REMARK  status: ('A' for Active; 'I' for Inactive)
REMARK    1  A    between atoms: O1_1  and  C1_3 
REMARK    2  A    between atoms: C1_3  and  C2_4 
REMARK    3  A    between atoms: C4_7  and  O3_8 
REMARK    4  A    between atoms: C7_12  and  N1_13 
ROOT
HETATM    1  C2  UNL     1      -4.131   1.772  12.843  1.00  0.00     0.286 C 
HETATM    2  O2  UNL     1      -3.105   2.589  12.483  1.00  0.00    -0.351 OA
HETATM    3  C3  UNL     1      -3.242   3.913  12.752  1.00  0.00     0.162 C 
HETATM    4  C4  UNL     1      -1.901   4.496  13.202  1.00  0.00     0.148 C 
HETATM    5  C5  UNL     1      -2.415   4.616  14.621  1.00  0.00     0.046 C 
HETATM    6  C6  UNL     1      -3.774   4.234  14.123  1.00  0.00     0.070 C 
HETATM    7  C7  UNL     1      -4.368   2.978  14.699  1.00  0.00     0.253 C 
HETATM    8  O4  UNL     1      -5.097   2.375  13.646  1.00  0.00    -0.333 OA
ENDROOT
BRANCH   7   9
HETATM    9  N1  UNL     1      -5.234   3.237  15.820  1.00  0.00    -0.274 N 
HETATM   10  C8  UNL     1      -5.866   4.407  16.008  1.00  0.00     0.114 A 
HETATM   11  C9  UNL     1      -6.622   4.342  17.175  1.00  0.00     0.037 A 
HETATM   12  C10 UNL     1      -6.403   3.071  17.664  1.00  0.00     0.108 A 
HETATM   13  N2  UNL     1      -5.557   2.421  16.825  1.00  0.00    -0.308 N 
ATOM     14  H2  UNL     1      -5.224   1.464  16.943  1.00  0.00     0.186 HD
ENDBRANCH   7   9
BRANCH   1  15
HETATM   15  C1  UNL     1      -4.765   1.075  11.653  1.00  0.00     0.224 C 
BRANCH  15  16
HETATM   16  O1  UNL     1      -5.566   1.973  10.948  1.00  0.00    -0.396 OA
ATOM     17  H1  UNL     1      -6.239   1.502  10.470  1.00  0.00     0.209 HD
ENDBRANCH  15  16
ENDBRANCH   1  15
BRANCH   4  18
HETATM   18  O3  UNL     1      -0.835   3.605  13.083  1.00  0.00    -0.393 OA
ATOM     19  H3  UNL     1      -0.515   3.510  12.194  1.00  0.00     0.210 HD
ENDBRANCH   4  18
TORSDOF 4
ENDMDL
MODEL 3
REMARK VINA RESULT: -6.581896881      2.298      3.326
REMARK  4 active torsions:
REMARK  status: ('A' for Active; 'I' for Inactive)
REMARK    1  A    between atoms: O1_1  and  C1_3 
REMARK    2  A    between atoms: C1_3  and  C2_4 
REMARK    3  A    between atoms: C4_7  and  O3_8 
REMARK    4  A    between atoms: C7_12  and  N1_13 
ROOT
HETATM    1  C2  UNL     1      -4.246   2.697  13.171  1.00  0.00     0.286 C 
HETATM    2  O2  UNL     1      -4.378   4.050  13.212  1.00  0.00    -0.351 OA
HETATM    3  C3  UNL     1      -5.499   4.548  13.793  1.00  0.00     0.162 C 
HETATM    4  C4  UNL     1      -5.159   5.805  14.594  1.00  0.00     0.148 C 
HETATM    5  C5  UNL     1      -5.367   5.051  15.890  1.00  0.00     0.046 C 
HETATM    6  C6  UNL     1      -5.888   3.896  15.093  1.00  0.00     0.070 C 
HETATM    7  C7  UNL     1      -5.127   2.604  15.213  1.00  0.00     0.253 C 
HETATM    8  O4  UNL     1      -5.182   2.001  13.934  1.00  0.00    -0.333 OA
ENDROOT
BRANCH   7   9
HETATM    9  N1  UNL     1      -5.685   1.721  16.204  1.00  0.00    -0.274 N 
HETATM   10  C8  UNL     1      -6.917   1.875  16.718  1.00  0.00     0.114 A 
HETATM   11  C9  UNL     1      -7.160   0.867  17.646  1.00  0.00     0.037 A 
HETATM   12  C10 UNL     1      -6.007   0.111  17.652  1.00  0.00     0.108 A 
HETATM   13  N2  UNL     1      -5.128   0.649  16.770  1.00  0.00    -0.308 N 
ATOM     14  H2  UNL     1      -4.193   0.293  16.571  1.00  0.00     0.186 HD
ENDBRANCH   7   9
BRANCH   1  15
HETATM   15  C1  UNL     1      -4.189   2.161  11.752  1.00  0.00     0.224 C 
BRANCH  15  16
HETATM   16  O1  UNL     1      -5.472   2.120  11.206  1.00  0.00    -0.396 OA
ATOM     17  H1  UNL     1      -5.687   1.231  10.950  1.00  0.00     0.209 HD
ENDBRANCH  15  16
ENDBRANCH   1  15
BRANCH   4  18
HETATM   18  O3  UNL     1      -3.845   6.240  14.423  1.00  0.00    -0.393 OA
ATOM     19  H3  UNL     1      -3.237   5.875  15.053  1.00  0.00     0.210 HD
ENDBRANCH   4  18
TORSDOF 4
ENDMDL
MODEL 4
REMARK VINA RESULT: -6.204791304      1.020      1.087
REMARK  4 active torsions:
REMARK  status: ('A' for Active; 'I' for Inactive)
REMARK    1  A    between atoms: O1_1  and  C1_3 
REMARK    2  A    between atoms: C1_3  and  C2_4 
REMARK    3  A    between atoms: C4_7  and  O3_8 
REMARK    4  A    between atoms: C7_12  and  N1_13 
ROOT
HETATM    1  C2  UNL     1      -4.082   2.178  12.774  1.00  0.00     0.286 C 
HETATM    2  O2  UNL     1      -3.218   3.128  12.329  1.00  0.00    -0.351 OA
HETATM    3  C3  UNL     1      -3.549   4.425  12.556  1.00  0.00     0.162 C 
HETATM    4  C4  UNL     1      -2.298   5.230  12.911  1.00  0.00     0.148 C 
HETATM    5  C5  UNL     1      -2.756   5.332  14.350  1.00  0.00     0.046 C 
HETATM    6  C6  UNL     1      -4.059   4.720  13.941  1.00  0.00     0.070 C 
HETATM    7  C7  UNL     1      -4.419   3.414  14.594  1.00  0.00     0.253 C 
HETATM    8  O4  UNL     1      -5.092   2.657  13.605  1.00  0.00    -0.333 OA
ENDROOT
BRANCH   7   9
HETATM    9  N1  UNL     1      -5.260   3.584  15.750  1.00  0.00    -0.274 N 
HETATM   10  C8  UNL     1      -5.485   2.610  16.647  1.00  0.00     0.114 A 
HETATM   11  C9  UNL     1      -6.335   3.084  17.642  1.00  0.00     0.037 A 
HETATM   12  C10 UNL     1      -6.598   4.390  17.285  1.00  0.00     0.108 A 
HETATM   13  N2  UNL     1      -5.935   4.669  16.134  1.00  0.00    -0.308 N 
ATOM     14  H2  UNL     1      -5.949   5.563  15.643  1.00  0.00     0.186 HD
ENDBRANCH   7   9
BRANCH   1  15
HETATM   15  C1  UNL     1      -4.655   1.338  11.646  1.00  0.00     0.224 C 
BRANCH  15  16
HETATM   16  O1  UNL     1      -5.565   2.092  10.905  1.00  0.00    -0.396 OA
ATOM     17  H1  UNL     1      -6.444   1.755  11.031  1.00  0.00     0.209 HD
ENDBRANCH  15  16
ENDBRANCH   1  15
BRANCH   4  18
HETATM   18  O3  UNL     1      -1.111   4.513  12.767  1.00  0.00    -0.393 OA
ATOM     19  H3  UNL     1      -0.390   5.031  12.429  1.00  0.00     0.210 HD
ENDBRANCH   4  18
TORSDOF 4
ENDMDL
MODEL 5
REMARK VINA RESULT: -6.139274852      2.309      4.043
REMARK  4 active torsions:
REMARK  status: ('A' for Active; 'I' for Inactive)
REMARK    1  A    between atoms: O1_1  and  C1_3 
REMARK    2  A    between atoms: C1_3  and  C2_4 
REMARK    3  A    between atoms: C4_7  and  O3_8 
REMARK    4  A    between atoms: C7_12  and  N1_13 
ROOT
HETATM    1  C2  UNL     1      -4.721   0.738  13.660  1.00  0.00     0.286 C 
HETATM    2  O2  UNL     1      -5.081   0.240  14.873  1.00  0.00    -0.351 OA
HETATM    3  C3  UNL     1      -4.541   0.827  15.971  1.00  0.00     0.162 C 
HETATM    4  C4  UNL     1      -5.583   0.908  17.088  1.00  0.00     0.148 C 
HETATM    5  C5  UNL     1      -5.689   2.406  16.896  1.00  0.00     0.046 C 
HETATM    6  C6  UNL     1      -4.531   2.332  15.952  1.00  0.00     0.070 C 
HETATM    7  C7  UNL     1      -4.789   2.781  14.540  1.00  0.00     0.253 C 
HETATM    8  O4  UNL     1      -4.011   1.935  13.713  1.00  0.00    -0.333 OA
ENDROOT
BRANCH   7   9
HETATM    9  N1  UNL     1      -4.431   4.159  14.321  1.00  0.00    -0.274 N 
HETATM   10  C8  UNL     1      -3.196   4.642  14.539  1.00  0.00     0.114 A 
HETATM   11  C9  UNL     1      -3.172   6.000  14.236  1.00  0.00     0.037 A 
HETATM   12  C10 UNL     1      -4.456   6.291  13.827  1.00  0.00     0.108 A 
HETATM   13  N2  UNL     1      -5.200   5.158  13.888  1.00  0.00    -0.308 N 
ATOM     14  H2  UNL     1      -6.188   5.083  13.642  1.00  0.00     0.186 HD
ENDBRANCH   7   9
BRANCH   1  15
HETATM   15  C1  UNL     1      -4.002  -0.287  12.801  1.00  0.00     0.224 C 
BRANCH  15  16
HETATM   16  O1  UNL     1      -4.606  -0.364  11.547  1.00  0.00    -0.396 OA
ATOM     17  H1  UNL     1      -5.102  -1.172  11.474  1.00  0.00     0.209 HD
ENDBRANCH  15  16
ENDBRANCH   1  15
BRANCH   4  18
HETATM   18  O3  UNL     1      -6.770   0.236  16.796  1.00  0.00    -0.393 OA
ATOM     19  H3  UNL     1      -7.265  -0.014  17.566  1.00  0.00     0.210 HD
ENDBRANCH   4  18
TORSDOF 4
ENDMDL
