MODEL 1
REMARK VINA RESULT: -7.348125794      0.000      0.000
REMARK  4 active torsions:
REMARK  status: ('A' for Active; 'I' for Inactive)
REMARK    1  A    between atoms: C2_2  and  C3_3 
REMARK    2  A    between atoms: C7_10  and  C8_11 
REMARK    3  A    between atoms: C8_11  and  O3_12 
REMARK    4  A    between atoms: C9_14  and  O4_15 
ROOT
HETATM    1  C3  UNL     1      -3.068   2.820  11.999  1.00  0.00     0.163 C 
HETATM    2  C4  UNL     1      -3.523   3.309  10.710  1.00  0.00     0.062 C 
HETATM    3  N1  UNL     1      -3.897   3.693   9.681  1.00  0.00    -0.197 NA
ENDROOT
BRANCH   1   4
HETATM    4  C2  UNL     1      -3.914   3.401  13.117  1.00  0.00     0.091 C 
HETATM    5  C1  UNL     1      -3.907   4.902  13.053  1.00  0.00     0.049 C 
HETATM    6  C5  UNL     1      -5.343   2.930  12.903  1.00  0.00     0.209 C 
HETATM    7  O1  UNL     1      -6.198   3.360  13.872  1.00  0.00    -0.356 OA
HETATM    8  C6  UNL     1      -5.676   3.500  15.128  1.00  0.00     0.291 C 
HETATM    9  O2  UNL     1      -6.561   2.870  16.015  1.00  0.00    -0.348 OA
HETATM   10  C10 UNL     1      -4.329   2.931  15.347  1.00  0.00     0.209 C 
HETATM   11  C7  UNL     1      -5.829   2.036  16.819  1.00  0.00     0.179 C 
HETATM   12  C9  UNL     1      -4.722   1.545  15.884  1.00  0.00     0.183 C 
HETATM   13  O5  UNL     1      -3.480   2.892  14.306  1.00  0.00    -0.364 OA
BRANCH  11  14
HETATM   14  C8  UNL     1      -6.623   0.887  17.371  1.00  0.00     0.198 C 
BRANCH  14  15
HETATM   15  O3  UNL     1      -6.008  -0.288  16.942  1.00  0.00    -0.398 OA
ATOM     16  H3  UNL     1      -6.342  -0.996  17.480  1.00  0.00     0.209 HD
ENDBRANCH  14  15
ENDBRANCH  11  14
BRANCH  12  17
HETATM   17  O4  UNL     1      -3.662   1.001  16.565  1.00  0.00    -0.390 OA
ATOM     18  H4  UNL     1      -3.301   1.597  17.210  1.00  0.00     0.210 HD
ENDBRANCH  12  17
ENDBRANCH   1   4
TORSDOF 4
ENDMDL
MODEL 2
REMARK VINA RESULT: -6.335742774      2.687      5.139
REMARK  4 active torsions:
REMARK  status: ('A' for Active; 'I' for Inactive)
REMARK    1  A    between atoms: C2_2  and  C3_3 
REMARK    2  A    between atoms: C7_10  and  C8_11 
REMARK    3  A    between atoms: C8_11  and  O3_12 
REMARK    4  A    between atoms: C9_14  and  O4_15 
ROOT
HETATM    1  C3  UNL     1      -5.779   2.307  15.675  1.00  0.00     0.163 C 
HETATM    2  C4  UNL     1      -4.670   1.417  15.970  1.00  0.00     0.062 C 
HETATM    3  N1  UNL     1      -3.784   0.702  16.194  1.00  0.00    -0.197 NA
ENDROOT
BRANCH   1   4
HETATM    4  C2  UNL     1      -5.332   3.428  14.755  1.00  0.00     0.091 C 
HETATM    5  C1  UNL     1      -6.302   4.574  14.818  1.00  0.00     0.049 C 
HETATM    6  C5  UNL     1      -3.986   3.925  15.256  1.00  0.00     0.209 C 
HETATM    7  O1  UNL     1      -3.461   4.914  14.483  1.00  0.00    -0.356 OA
HETATM    8  C6  UNL     1      -3.747   4.863  13.147  1.00  0.00     0.291 C 
HETATM    9  O2  UNL     1      -2.538   5.043  12.459  1.00  0.00    -0.348 OA
HETATM   10  C10 UNL     1      -4.369   3.615  12.656  1.00  0.00     0.209 C 
HETATM   11  C7  UNL     1      -2.436   4.049  11.521  1.00  0.00     0.179 C 
HETATM   12  C9  UNL     1      -3.107   2.859  12.209  1.00  0.00     0.183 C 
HETATM   13  O5  UNL     1      -5.150   2.921  13.501  1.00  0.00    -0.364 OA
BRANCH  11  14
HETATM   14  C8  UNL     1      -1.018   3.727  11.142  1.00  0.00     0.198 C 
BRANCH  14  15
HETATM   15  O3  UNL     1      -0.582   2.708  11.987  1.00  0.00    -0.398 OA
ATOM     16  H3  UNL     1      -0.204   2.029  11.441  1.00  0.00     0.209 HD
ENDBRANCH  14  15
ENDBRANCH  11  14
BRANCH  12  17
HETATM   17  O4  UNL     1      -3.456   1.870  11.325  1.00  0.00    -0.390 OA
ATOM     18  H4  UNL     1      -3.814   1.104  11.758  1.00  0.00     0.210 HD
ENDBRANCH  12  17
ENDBRANCH   1   4
TORSDOF 4
ENDMDL
MODEL 3
REMARK VINA RESULT: -6.334676995      2.898      5.391
REMARK  4 active torsions:
REMARK  status: ('A' for Active; 'I' for Inactive)
REMARK    1  A    between atoms: C2_2  and  C3_3 
REMARK    2  A    between atoms: C7_10  and  C8_11 
REMARK    3  A    between atoms: C8_11  and  O3_12 
REMARK    4  A    between atoms: C9_14  and  O4_15 
ROOT
HETATM    1  C3  UNL     1      -4.269   1.753  16.168  1.00  0.00     0.163 C 
HETATM    2  C4  UNL     1      -5.345   0.866  16.572  1.00  0.00     0.062 C 
HETATM    3  N1  UNL     1      -6.211   0.166  16.900  1.00  0.00    -0.197 NA
ENDROOT
BRANCH   1   4
HETATM    4  C2  UNL     1      -4.765   2.764  15.152  1.00  0.00     0.091 C 
HETATM    5  C1  UNL     1      -6.087   3.333  15.584  1.00  0.00     0.049 C 
HETATM    6  C5  UNL     1      -3.758   3.902  15.107  1.00  0.00     0.209 C 
HETATM    7  O1  UNL     1      -4.078   4.862  14.196  1.00  0.00    -0.356 OA
HETATM    8  C6  UNL     1      -4.729   4.443  13.069  1.00  0.00     0.291 C 
HETATM    9  O2  UNL     1      -4.073   5.024  11.974  1.00  0.00    -0.348 OA
HETATM   10  C10 UNL     1      -4.781   2.982  12.845  1.00  0.00     0.209 C 
HETATM   11  C7  UNL     1      -3.815   4.034  11.063  1.00  0.00     0.179 C 
HETATM   12  C9  UNL     1      -3.543   2.816  11.950  1.00  0.00     0.183 C 
HETATM   13  O5  UNL     1      -4.787   2.176  13.921  1.00  0.00    -0.364 OA
BRANCH  11  14
HETATM   14  C8  UNL     1      -2.642   4.329  10.172  1.00  0.00     0.198 C 
BRANCH  14  15
HETATM   15  O3  UNL     1      -2.772   3.534   9.035  1.00  0.00    -0.398 OA
ATOM     16  H3  UNL     1      -2.779   2.629   9.321  1.00  0.00     0.209 HD
ENDBRANCH  14  15
ENDBRANCH  11  14
BRANCH  12  17
HETATM   17  O4  UNL     1      -3.633   1.634  11.260  1.00  0.00    -0.390 OA
ATOM     18  H4  UNL     1      -4.298   1.056  11.614  1.00  0.00     0.210 HD
ENDBRANCH  12  17
ENDBRANCH   1   4
TORSDOF 4
ENDMDL
MODEL 4
REMARK VINA RESULT: -6.118036842      3.284      4.342
REMARK  4 active torsions:
REMARK  status: ('A' for Active; 'I' for Inactive)
REMARK    1  A    between atoms: C2_2  and  C3_3 
REMARK    2  A    between atoms: C7_10  and  C8_11 
REMARK    3  A    between atoms: C8_11  and  O3_12 
REMARK    4  A    between atoms: C9_14  and  O4_15 
ROOT
HETATM    1  C3  UNL     1      -4.877   6.529  12.683  1.00  0.00     0.163 C 
HETATM    2  C4  UNL     1      -5.891   5.958  13.550  1.00  0.00     0.062 C 
HETATM    3  N1  UNL     1      -6.706   5.495  14.234  1.00  0.00    -0.197 NA
ENDROOT
BRANCH   1   4
HETATM    4  C2  UNL     1      -3.891   5.463  12.243  1.00  0.00     0.091 C 
HETATM    5  C1  UNL     1      -2.719   6.091  11.542  1.00  0.00     0.049 C 
HETATM    6  C5  UNL     1      -3.372   4.773  13.494  1.00  0.00     0.209 C 
HETATM    7  O1  UNL     1      -2.500   3.763  13.225  1.00  0.00    -0.356 OA
HETATM    8  C6  UNL     1      -2.708   3.070  12.064  1.00  0.00     0.291 C 
HETATM    9  O2  UNL     1      -2.647   1.705  12.383  1.00  0.00    -0.348 OA
HETATM   10  C10 UNL     1      -3.989   3.319  11.370  1.00  0.00     0.209 C 
HETATM   11  C7  UNL     1      -3.751   1.098  11.845  1.00  0.00     0.179 C 
HETATM   12  C9  UNL     1      -4.829   2.177  11.967  1.00  0.00     0.183 C 
HETATM   13  O5  UNL     1      -4.553   4.532  11.496  1.00  0.00    -0.364 OA
BRANCH  11  14
HETATM   14  C8  UNL     1      -4.155  -0.157  12.565  1.00  0.00     0.198 C 
BRANCH  14  15
HETATM   15  O3  UNL     1      -4.248   0.153  13.921  1.00  0.00    -0.398 OA
ATOM     16  H3  UNL     1      -5.116   0.507  14.073  1.00  0.00     0.209 HD
ENDBRANCH  14  15
ENDBRANCH  11  14
BRANCH  12  17
HETATM   17  O4  UNL     1      -5.909   1.933  11.157  1.00  0.00    -0.390 OA
ATOM     18  H4  UNL     1      -5.694   1.994  10.234  1.00  0.00     0.210 HD
ENDBRANCH  12  17
ENDBRANCH   1   4
TORSDOF 4
ENDMDL
MODEL 5
REMARK VINA RESULT: -6.097048448      3.067      4.331
REMARK  4 active torsions:
REMARK  status: ('A' for Active; 'I' for Inactive)
REMARK    1  A    between atoms: C2_2  and  C3_3 
REMARK    2  A    between atoms: C7_10  and  C8_11 
REMARK    3  A    between atoms: C8_11  and  O3_12 
REMARK    4  A    between atoms: C9_14  and  O4_15 
ROOT
HETATM    1  C3  UNL     1      -5.226   6.510  11.079  1.00  0.00     0.163 C 
HETATM    2  C4  UNL     1      -6.054   6.477   9.886  1.00  0.00     0.062 C 
HETATM    3  N1  UNL     1      -6.705   6.454   8.926  1.00  0.00    -0.197 NA
ENDROOT
BRANCH   1   4
HETATM    4  C2  UNL     1      -4.165   5.427  11.021  1.00  0.00     0.091 C 
HETATM    5  C1  UNL     1      -2.990   5.890  10.206  1.00  0.00     0.049 C 
HETATM    6  C5  UNL     1      -3.681   5.182  12.441  1.00  0.00     0.209 C 
HETATM    7  O1  UNL     1      -2.745   4.197  12.523  1.00  0.00    -0.356 OA
HETATM    8  C6  UNL     1      -2.854   3.174  11.622  1.00  0.00     0.291 C 
HETATM    9  O2  UNL     1      -2.741   1.976  12.343  1.00  0.00    -0.348 OA
HETATM   10  C10 UNL     1      -4.107   3.118  10.839  1.00  0.00     0.209 C 
HETATM   11  C7  UNL     1      -3.782   1.164  11.975  1.00  0.00     0.179 C 
HETATM   12  C9  UNL     1      -4.919   2.158  11.723  1.00  0.00     0.183 C 
HETATM   13  O5  UNL     1      -4.737   4.274  10.569  1.00  0.00    -0.364 OA
BRANCH  11  14
HETATM   14  C8  UNL     1      -4.161   0.162  13.028  1.00  0.00     0.198 C 
BRANCH  14  15
HETATM   15  O3  UNL     1      -4.378   0.864  14.213  1.00  0.00    -0.398 OA
ATOM     16  H3  UNL     1      -5.111   1.449  14.066  1.00  0.00     0.209 HD
ENDBRANCH  14  15
ENDBRANCH  11  14
BRANCH  12  17
HETATM   17  O4  UNL     1      -5.940   1.612  10.987  1.00  0.00    -0.390 OA
ATOM     18  H4  UNL     1      -5.756   1.611  10.056  1.00  0.00     0.210 HD
ENDBRANCH  12  17
ENDBRANCH   1   4
TORSDOF 4
ENDMDL
