MODEL 1
REMARK VINA RESULT: -6.247928014      0.000      0.000
REMARK  4 active torsions:
REMARK  status: ('A' for Active; 'I' for Inactive)
REMARK    1  A    between atoms: C2_2  and  O1_3 
REMARK    2  A    between atoms: O1_3  and  C3_4 
REMARK    3  A    between atoms: C8_12  and  O5_13 
REMARK    4  A    between atoms: C9_15  and  O6_16 
ROOT
HETATM    1  C3  UNL     1      -5.041   2.141  15.085  1.00  0.00     0.294 C 
HETATM    2  O2  UNL     1      -4.401   3.364  15.226  1.00  0.00    -0.327 OA
HETATM    3  C4  UNL     1      -4.368   4.128  14.100  1.00  0.00     0.290 C 
HETATM    4  C5  UNL     1      -2.922   4.150  13.597  1.00  0.00     0.232 C 
HETATM    5  O3  UNL     1      -2.876   2.963  12.875  1.00  0.00    -0.348 OA
HETATM    6  C6  UNL     1      -4.140   2.709  12.395  1.00  0.00     0.192 C 
HETATM    7  C7  UNL     1      -4.106   2.854  10.892  1.00  0.00     0.082 C 
HETATM    8  O4  UNL     1      -5.021   3.582  13.006  1.00  0.00    -0.321 OA
HETATM    9  C8  UNL     1      -4.590   1.305  12.808  1.00  0.00     0.213 C 
HETATM   10  C9  UNL     1      -4.207   1.160  14.270  1.00  0.00     0.207 C 
ENDROOT
BRANCH   1  11
HETATM   11  O1  UNL     1      -5.153   1.590  16.362  1.00  0.00    -0.359 OA
BRANCH  11  12
HETATM   12  C2  UNL     1      -6.276   2.112  17.003  1.00  0.00     0.166 C 
HETATM   13  C1  UNL     1      -7.256   1.002  17.301  1.00  0.00     0.033 C 
ENDBRANCH  11  12
ENDBRANCH   1  11
BRANCH  10  14
HETATM   14  O6  UNL     1      -4.604  -0.121  14.657  1.00  0.00    -0.388 OA
ATOM     15  H6  UNL     1      -4.167  -0.731  14.074  1.00  0.00     0.210 HD
ENDBRANCH  10  14
BRANCH   9  16
HETATM   16  O5  UNL     1      -4.056   0.328  12.015  1.00  0.00    -0.387 OA
ATOM     17  H5  UNL     1      -4.372  -0.539  12.241  1.00  0.00     0.210 HD
ENDBRANCH   9  16
TORSDOF 4
ENDMDL
MODEL 2
REMARK VINA RESULT: -6.222834759      1.213      1.629
REMARK  4 active torsions:
REMARK  status: ('A' for Active; 'I' for Inactive)
REMARK    1  A    between atoms: C2_2  and  O1_3 
REMARK    2  A    between atoms: O1_3  and  C3_4 
REMARK    3  A    between atoms: C8_12  and  O5_13 
REMARK    4  A    between atoms: C9_15  and  O6_16 
ROOT
HETATM    1  C3  UNL     1      -4.569   1.956  13.835  1.00  0.00     0.294 C 
HETATM    2  O2  UNL     1      -3.726   2.915  14.377  1.00  0.00    -0.327 OA
HETATM    3  C4  UNL     1      -3.755   4.124  13.752  1.00  0.00     0.290 C 
HETATM    4  C5  UNL     1      -2.427   4.295  13.010  1.00  0.00     0.232 C 
HETATM    5  O3  UNL     1      -2.692   3.605  11.833  1.00  0.00    -0.348 OA
HETATM    6  C6  UNL     1      -4.041   3.695  11.583  1.00  0.00     0.192 C 
HETATM    7  C7  UNL     1      -4.232   4.546  10.350  1.00  0.00     0.082 C 
HETATM    8  O4  UNL     1      -4.658   4.217  12.705  1.00  0.00    -0.321 OA
HETATM    9  C8  UNL     1      -4.638   2.298  11.392  1.00  0.00     0.213 C 
HETATM   10  C9  UNL     1      -4.049   1.440  12.498  1.00  0.00     0.207 C 
ENDROOT
BRANCH   1  11
HETATM   11  O1  UNL     1      -4.557   0.865  14.704  1.00  0.00    -0.359 OA
BRANCH  11  12
HETATM   12  C2  UNL     1      -4.492   1.313  16.022  1.00  0.00     0.166 C 
HETATM   13  C1  UNL     1      -5.731   0.882  16.771  1.00  0.00     0.033 C 
ENDBRANCH  11  12
ENDBRANCH   1  11
BRANCH  10  14
HETATM   14  O6  UNL     1      -4.579   0.160  12.329  1.00  0.00    -0.388 OA
ATOM     15  H6  UNL     1      -4.096  -0.415  12.911  1.00  0.00     0.210 HD
ENDBRANCH  10  14
BRANCH   9  16
HETATM   16  O5  UNL     1      -4.405   1.794  10.142  1.00  0.00    -0.387 OA
ATOM     17  H5  UNL     1      -5.207   1.638   9.656  1.00  0.00     0.210 HD
ENDBRANCH   9  16
TORSDOF 4
ENDMDL
MODEL 3
REMARK VINA RESULT: -6.088261499      1.440      2.897
REMARK  4 active torsions:
REMARK  status: ('A' for Active; 'I' for Inactive)
REMARK    1  A    between atoms: C2_2  and  O1_3 
REMARK    2  A    between atoms: O1_3  and  C3_4 
REMARK    3  A    between atoms: C8_12  and  O5_13 
REMARK    4  A    between atoms: C9_15  and  O6_16 
ROOT
HETATM    1  C3  UNL     1      -4.595   2.257  14.266  1.00  0.00     0.294 C 
HETATM    2  O2  UNL     1      -4.745   1.061  13.579  1.00  0.00    -0.327 OA
HETATM    3  C4  UNL     1      -3.989   0.947  12.453  1.00  0.00     0.290 C 
HETATM    4  C5  UNL     1      -4.934   1.020  11.251  1.00  0.00     0.232 C 
HETATM    5  O3  UNL     1      -5.069   2.396  11.103  1.00  0.00    -0.348 OA
HETATM    6  C6  UNL     1      -3.910   2.985  11.551  1.00  0.00     0.192 C 
HETATM    7  C7  UNL     1      -3.204   3.591  10.361  1.00  0.00     0.082 C 
HETATM    8  O4  UNL     1      -3.155   2.025  12.200  1.00  0.00    -0.321 OA
HETATM    9  C8  UNL     1      -4.230   4.046  12.606  1.00  0.00     0.213 C 
HETATM   10  C9  UNL     1      -5.258   3.416  13.531  1.00  0.00     0.207 C 
ENDROOT
BRANCH   1  11
HETATM   11  O1  UNL     1      -5.280   2.121  15.474  1.00  0.00    -0.359 OA
BRANCH  11  12
HETATM   12  C2  UNL     1      -4.892   0.940  16.105  1.00  0.00     0.166 C 
HETATM   13  C1  UNL     1      -5.845   0.625  17.233  1.00  0.00     0.033 C 
ENDBRANCH  11  12
ENDBRANCH   1  11
BRANCH  10  14
HETATM   14  O6  UNL     1      -5.566   4.378  14.493  1.00  0.00    -0.388 OA
ATOM     15  H6  UNL     1      -6.455   4.203  14.780  1.00  0.00     0.210 HD
ENDBRANCH  10  14
BRANCH   9  16
HETATM   16  O5  UNL     1      -4.657   5.223  12.056  1.00  0.00    -0.387 OA
ATOM     17  H5  UNL     1      -4.599   5.225  11.108  1.00  0.00     0.210 HD
ENDBRANCH   9  16
TORSDOF 4
ENDMDL
MODEL 4
REMARK VINA RESULT: -5.961725955      2.064      5.476
REMARK  4 active torsions:
REMARK  status: ('A' for Active; 'I' for Inactive)
REMARK    1  A    between atoms: C2_2  and  O1_3 
REMARK    2  A    between atoms: O1_3  and  C3_4 
REMARK    3  A    between atoms: C8_12  and  O5_13 
REMARK    4  A    between atoms: C9_15  and  O6_16 
ROOT
HETATM    1  C3  UNL     1      -3.569   3.275  10.611  1.00  0.00     0.294 C 
HETATM    2  O2  UNL     1      -4.051   1.994  10.382  1.00  0.00    -0.327 OA
HETATM    3  C4  UNL     1      -4.969   1.556  11.287  1.00  0.00     0.290 C 
HETATM    4  C5  UNL     1      -4.304   0.467  12.133  1.00  0.00     0.232 C 
HETATM    5  O3  UNL     1      -3.640   1.238  13.080  1.00  0.00    -0.348 OA
HETATM    6  C6  UNL     1      -4.353   2.401  13.256  1.00  0.00     0.192 C 
HETATM    7  C7  UNL     1      -4.939   2.383  14.647  1.00  0.00     0.082 C 
HETATM    8  O4  UNL     1      -5.312   2.478  12.263  1.00  0.00    -0.321 OA
HETATM    9  C8  UNL     1      -3.442   3.615  13.052  1.00  0.00     0.213 C 
HETATM   10  C9  UNL     1      -2.625   3.317  11.807  1.00  0.00     0.207 C 
ENDROOT
BRANCH   1  11
HETATM   11  O1  UNL     1      -2.804   3.627   9.499  1.00  0.00    -0.359 OA
BRANCH  11  12
HETATM   12  C2  UNL     1      -3.367   4.737   8.872  1.00  0.00     0.166 C 
HETATM   13  C1  UNL     1      -2.661   4.998   7.563  1.00  0.00     0.033 C 
ENDBRANCH  11  12
ENDBRANCH   1  11
BRANCH  10  14
HETATM   14  O6  UNL     1      -1.783   4.413  11.615  1.00  0.00    -0.388 OA
ATOM     15  H6  UNL     1      -0.928   4.065  11.392  1.00  0.00     0.210 HD
ENDBRANCH  10  14
BRANCH   9  16
HETATM   16  O5  UNL     1      -2.669   3.882  14.147  1.00  0.00    -0.387 OA
ATOM     17  H5  UNL     1      -1.837   4.280  13.919  1.00  0.00     0.210 HD
ENDBRANCH   9  16
TORSDOF 4
ENDMDL
MODEL 5
REMARK VINA RESULT: -5.578731287      1.483      4.206
REMARK  4 active torsions:
REMARK  status: ('A' for Active; 'I' for Inactive)
REMARK    1  A    between atoms: C2_2  and  O1_3 
REMARK    2  A    between atoms: O1_3  and  C3_4 
REMARK    3  A    between atoms: C8_12  and  O5_13 
REMARK    4  A    between atoms: C9_15  and  O6_16 
ROOT
HETATM    1  C3  UNL     1      -4.313   3.250  12.354  1.00  0.00     0.294 C 
HETATM    2  O2  UNL     1      -4.961   4.298  12.991  1.00  0.00    -0.327 OA
HETATM    3  C4  UNL     1      -4.737   4.382  14.331  1.00  0.00     0.290 C 
HETATM    4  C5  UNL     1      -6.032   3.987  15.044  1.00  0.00     0.232 C 
HETATM    5  O3  UNL     1      -5.921   2.601  15.045  1.00  0.00    -0.348 OA
HETATM    6  C6  UNL     1      -4.583   2.284  15.068  1.00  0.00     0.192 C 
HETATM    7  C7  UNL     1      -4.276   1.649  16.403  1.00  0.00     0.082 C 
HETATM    8  O4  UNL     1      -3.857   3.437  14.835  1.00  0.00    -0.321 OA
HETATM    9  C8  UNL     1      -4.244   1.338  13.912  1.00  0.00     0.213 C 
HETATM   10  C9  UNL     1      -4.947   1.906  12.691  1.00  0.00     0.207 C 
ENDROOT
BRANCH   1  11
HETATM   11  O1  UNL     1      -4.494   3.433  10.982  1.00  0.00    -0.359 OA
BRANCH  11  12
HETATM   12  C2  UNL     1      -3.447   4.195  10.467  1.00  0.00     0.166 C 
HETATM   13  C1  UNL     1      -2.166   3.863  11.194  1.00  0.00     0.033 C 
ENDBRANCH  11  12
ENDBRANCH   1  11
BRANCH  10  14
HETATM   14  O6  UNL     1      -4.654   1.047  11.631  1.00  0.00    -0.388 OA
ATOM     15  H6  UNL     1      -4.766   0.162  11.958  1.00  0.00     0.210 HD
ENDBRANCH  10  14
BRANCH   9  16
HETATM   16  O5  UNL     1      -4.591   0.042  14.174  1.00  0.00    -0.387 OA
ATOM     17  H5  UNL     1      -5.485  -0.156  13.918  1.00  0.00     0.210 HD
ENDBRANCH   9  16
TORSDOF 4
ENDMDL
