MODEL 1
REMARK VINA RESULT: -5.705133797      0.000      0.000
REMARK  3 active torsions:
REMARK  status: ('A' for Active; 'I' for Inactive)
REMARK    1  A    between atoms: O1_2  and  C2_3 
REMARK    2  A    between atoms: C8_12  and  O4_13 
REMARK    3  A    between atoms: C9_15  and  O5_16 
ROOT
HETATM    1  C2  UNL     1      -3.634   4.021  14.948  1.00  0.00     0.293 C 
HETATM    2  O2  UNL     1      -4.105   2.756  15.167  1.00  0.00    -0.327 OA
HETATM    3  C3  UNL     1      -4.602   2.075  14.120  1.00  0.00     0.293 C 
HETATM    4  O3  UNL     1      -4.367   0.709  14.101  1.00  0.00    -0.270 OA
HETATM    5  N1  UNL     1      -4.511   0.293  12.846  1.00  0.00    -0.194 NA
HETATM    6  C4  UNL     1      -3.705  -0.861  12.522  1.00  0.00     0.144 C 
HETATM    7  C5  UNL     1      -4.171   1.365  11.951  1.00  0.00     0.093 C 
HETATM    8  C6  UNL     1      -5.371   1.673  11.099  1.00  0.00     0.029 C 
HETATM    9  C7  UNL     1      -3.790   2.473  12.876  1.00  0.00     0.094 C 
HETATM   10  C8  UNL     1      -4.257   3.823  12.508  1.00  0.00     0.162 C 
HETATM   11  C9  UNL     1      -4.089   4.705  13.719  1.00  0.00     0.202 C 
ENDROOT
BRANCH   1  12
HETATM   12  O1  UNL     1      -2.243   3.980  15.010  1.00  0.00    -0.363 OA
HETATM   13  C1  UNL     1      -1.660   5.116  14.455  1.00  0.00     0.204 C 
ENDBRANCH   1  12
BRANCH  11  14
HETATM   14  O5  UNL     1      -5.244   5.488  13.945  1.00  0.00    -0.388 OA
ATOM     15  H5  UNL     1      -5.541   5.920  13.153  1.00  0.00     0.210 HD
ENDBRANCH  11  14
BRANCH  10  16
HETATM   16  O4  UNL     1      -3.566   4.287  11.396  1.00  0.00    -0.392 OA
ATOM     17  H4  UNL     1      -3.351   5.207  11.500  1.00  0.00     0.210 HD
ENDBRANCH  10  16
TORSDOF 3
ENDMDL
MODEL 2
REMARK VINA RESULT: -5.672789455      2.606      4.286
REMARK  3 active torsions:
REMARK  status: ('A' for Active; 'I' for Inactive)
REMARK    1  A    between atoms: O1_2  and  C2_3 
REMARK    2  A    between atoms: C8_12  and  O4_13 
REMARK    3  A    between atoms: C9_15  and  O5_16 
ROOT
HETATM    1  C2  UNL     1      -4.365   2.001  12.360  1.00  0.00     0.293 C 
HETATM    2  O2  UNL     1      -3.071   2.193  12.760  1.00  0.00    -0.327 OA
HETATM    3  C3  UNL     1      -2.327   3.087  12.087  1.00  0.00     0.293 C 
HETATM    4  O3  UNL     1      -1.420   3.825  12.832  1.00  0.00    -0.270 OA
HETATM    5  N1  UNL     1      -1.120   4.918  12.134  1.00  0.00    -0.194 NA
HETATM    6  C4  UNL     1      -0.763   6.051  12.956  1.00  0.00     0.144 C 
HETATM    7  C5  UNL     1      -2.243   5.275  11.310  1.00  0.00     0.093 C 
HETATM    8  C6  UNL     1      -1.805   5.256   9.873  1.00  0.00     0.029 C 
HETATM    9  C7  UNL     1      -3.256   4.230  11.644  1.00  0.00     0.094 C 
HETATM   10  C8  UNL     1      -4.040   3.694  10.515  1.00  0.00     0.162 C 
HETATM   11  C9  UNL     1      -4.719   2.436  10.993  1.00  0.00     0.202 C 
ENDROOT
BRANCH   1  12
HETATM   12  O1  UNL     1      -5.201   2.594  13.304  1.00  0.00    -0.363 OA
HETATM   13  C1  UNL     1      -4.856   2.236  14.606  1.00  0.00     0.204 C 
ENDBRANCH   1  12
BRANCH  11  14
HETATM   14  O5  UNL     1      -4.579   1.391  10.052  1.00  0.00    -0.388 OA
ATOM     15  H5  UNL     1      -5.336   0.818  10.041  1.00  0.00     0.210 HD
ENDBRANCH  11  14
BRANCH  10  16
HETATM   16  O4  UNL     1      -4.932   4.650  10.048  1.00  0.00    -0.392 OA
ATOM     17  H4  UNL     1      -4.846   4.754   9.108  1.00  0.00     0.210 HD
ENDBRANCH  10  16
TORSDOF 3
ENDMDL
MODEL 3
REMARK VINA RESULT: -5.670866933      2.770      4.510
REMARK  3 active torsions:
REMARK  status: ('A' for Active; 'I' for Inactive)
REMARK    1  A    between atoms: O1_2  and  C2_3 
REMARK    2  A    between atoms: C8_12  and  O4_13 
REMARK    3  A    between atoms: C9_15  and  O5_16 
ROOT
HETATM    1  C2  UNL     1      -4.914   1.864  11.682  1.00  0.00     0.293 C 
HETATM    2  O2  UNL     1      -4.918   2.507  10.475  1.00  0.00    -0.327 OA
HETATM    3  C3  UNL     1      -4.199   3.636  10.357  1.00  0.00     0.293 C 
HETATM    4  O3  UNL     1      -3.582   3.853   9.135  1.00  0.00    -0.270 OA
HETATM    5  N1  UNL     1      -2.595   4.724   9.331  1.00  0.00    -0.194 NA
HETATM    6  C4  UNL     1      -1.493   4.569   8.410  1.00  0.00     0.144 C 
HETATM    7  C5  UNL     1      -2.102   4.585  10.675  1.00  0.00     0.093 C 
HETATM    8  C6  UNL     1      -2.274   5.899  11.384  1.00  0.00     0.029 C 
HETATM    9  C7  UNL     1      -2.944   3.486  11.233  1.00  0.00     0.094 C 
HETATM   10  C8  UNL     1      -3.404   3.656  12.624  1.00  0.00     0.162 C 
HETATM   11  C9  UNL     1      -4.503   2.653  12.864  1.00  0.00     0.202 C 
ENDROOT
BRANCH   1  12
HETATM   12  O1  UNL     1      -4.139   0.713  11.556  1.00  0.00    -0.363 OA
HETATM   13  C1  UNL     1      -4.019   0.029  12.763  1.00  0.00     0.204 C 
ENDBRANCH   1  12
BRANCH  11  14
HETATM   14  O5  UNL     1      -5.608   3.249  13.512  1.00  0.00    -0.388 OA
ATOM     15  H5  UNL     1      -5.601   4.196  13.427  1.00  0.00     0.210 HD
ENDBRANCH  11  14
BRANCH  10  16
HETATM   16  O4  UNL     1      -2.340   3.518  13.506  1.00  0.00    -0.392 OA
ATOM     17  H4  UNL     1      -2.633   3.646  14.401  1.00  0.00     0.210 HD
ENDBRANCH  10  16
TORSDOF 3
ENDMDL
MODEL 4
REMARK VINA RESULT: -5.592838957      1.745      2.226
REMARK  3 active torsions:
REMARK  status: ('A' for Active; 'I' for Inactive)
REMARK    1  A    between atoms: O1_2  and  C2_3 
REMARK    2  A    between atoms: C8_12  and  O4_13 
REMARK    3  A    between atoms: C9_15  and  O5_16 
ROOT
HETATM    1  C2  UNL     1      -4.255   3.491  15.127  1.00  0.00     0.293 C 
HETATM    2  O2  UNL     1      -5.274   2.992  14.365  1.00  0.00    -0.327 OA
HETATM    3  C3  UNL     1      -5.122   2.984  13.029  1.00  0.00     0.293 C 
HETATM    4  O3  UNL     1      -5.665   1.907  12.349  1.00  0.00    -0.270 OA
HETATM    5  N1  UNL     1      -5.056   1.827  11.169  1.00  0.00    -0.194 NA
HETATM    6  C4  UNL     1      -4.992   0.484  10.640  1.00  0.00     0.144 C 
HETATM    7  C5  UNL     1      -3.720   2.344  11.291  1.00  0.00     0.093 C 
HETATM    8  C6  UNL     1      -3.570   3.503  10.345  1.00  0.00     0.029 C 
HETATM    9  C7  UNL     1      -3.635   2.728  12.731  1.00  0.00     0.094 C 
HETATM   10  C8  UNL     1      -2.941   3.995  13.030  1.00  0.00     0.162 C 
HETATM   11  C9  UNL     1      -3.276   4.369  14.452  1.00  0.00     0.202 C 
ENDROOT
BRANCH   1  12
HETATM   12  O1  UNL     1      -3.619   2.421  15.751  1.00  0.00    -0.363 OA
HETATM   13  C1  UNL     1      -4.514   1.616  16.452  1.00  0.00     0.204 C 
ENDBRANCH   1  12
BRANCH  11  14
HETATM   14  O5  UNL     1      -3.631   5.733  14.551  1.00  0.00    -0.388 OA
ATOM     15  H5  UNL     1      -4.537   5.884  14.304  1.00  0.00     0.210 HD
ENDBRANCH  11  14
BRANCH  10  16
HETATM   16  O4  UNL     1      -1.576   3.863  12.810  1.00  0.00    -0.392 OA
ATOM     17  H4  UNL     1      -1.371   2.983  12.519  1.00  0.00     0.210 HD
ENDBRANCH  10  16
TORSDOF 3
ENDMDL
MODEL 5
REMARK VINA RESULT: -5.558682239      2.151      3.298
REMARK  3 active torsions:
REMARK  status: ('A' for Active; 'I' for Inactive)
REMARK    1  A    between atoms: O1_2  and  C2_3 
REMARK    2  A    between atoms: C8_12  and  O4_13 
REMARK    3  A    between atoms: C9_15  and  O5_16 
ROOT
HETATM    1  C2  UNL     1      -4.719   2.478  14.672  1.00  0.00     0.293 C 
HETATM    2  O2  UNL     1      -4.074   1.923  13.601  1.00  0.00    -0.327 OA
HETATM    3  C3  UNL     1      -3.547   2.749  12.682  1.00  0.00     0.293 C 
HETATM    4  O3  UNL     1      -2.353   2.351  12.102  1.00  0.00    -0.270 OA
HETATM    5  N1  UNL     1      -1.771   3.434  11.593  1.00  0.00    -0.194 NA
HETATM    6  C4  UNL     1      -0.329   3.356  11.560  1.00  0.00     0.144 C 
HETATM    7  C5  UNL     1      -2.158   4.584  12.364  1.00  0.00     0.093 C 
HETATM    8  C6  UNL     1      -2.851   5.557  11.452  1.00  0.00     0.029 C 
HETATM    9  C7  UNL     1      -3.048   4.006  13.414  1.00  0.00     0.094 C 
HETATM   10  C8  UNL     1      -4.256   4.783  13.748  1.00  0.00     0.162 C 
HETATM   11  C9  UNL     1      -5.172   3.878  14.533  1.00  0.00     0.202 C 
ENDROOT
BRANCH   1  12
HETATM   12  O1  UNL     1      -3.906   2.325  15.792  1.00  0.00    -0.363 OA
HETATM   13  C1  UNL     1      -4.390   1.349  16.661  1.00  0.00     0.204 C 
ENDBRANCH   1  12
BRANCH  11  14
HETATM   14  O5  UNL     1      -6.501   3.961  14.059  1.00  0.00    -0.388 OA
ATOM     15  H5  UNL     1      -7.056   4.464  14.642  1.00  0.00     0.210 HD
ENDBRANCH  11  14
BRANCH  10  16
HETATM   16  O4  UNL     1      -3.914   5.939  14.436  1.00  0.00    -0.392 OA
ATOM     17  H4  UNL     1      -3.485   5.723  15.255  1.00  0.00     0.210 HD
ENDBRANCH  10  16
TORSDOF 3
ENDMDL
