MODEL 1
REMARK VINA RESULT: -6.221180881      0.000      0.000
REMARK  3 active torsions:
REMARK  status: ('A' for Active; 'I' for Inactive)
REMARK    1  A    between atoms: O1_1  and  C1_3 
REMARK    2  A    between atoms: C2_4  and  N1_5 
REMARK    3  A    between atoms: N3_13  and  C8_14 
ROOT
HETATM    1  C1  UNL     1      -4.072   2.737  14.892  1.00  0.00     0.250 C 
HETATM    2  C2  UNL     1      -3.928   4.170  14.465  1.00  0.00     0.180 C 
HETATM    3  C6  UNL     1      -5.328   4.617  14.311  1.00  0.00     0.021 C 
HETATM    4  C7  UNL     1      -6.106   3.779  14.979  1.00  0.00     0.089 C 
HETATM    5  N3  UNL     1      -5.340   2.770  15.595  1.00  0.00    -0.334 N 
ENDROOT
BRANCH   2   6
HETATM    6  N1  UNL     1      -3.195   4.257  13.195  1.00  0.00    -0.291 N 
HETATM    7  C3  UNL     1      -3.601   4.986  12.141  1.00  0.00     0.112 A 
HETATM    8  C4  UNL     1      -2.663   4.823  11.142  1.00  0.00     0.037 A 
HETATM    9  C5  UNL     1      -1.683   3.976  11.621  1.00  0.00     0.108 A 
HETATM   10  N2  UNL     1      -2.059   3.664  12.875  1.00  0.00    -0.309 N 
ATOM     11  H2  UNL     1      -1.534   3.049  13.497  1.00  0.00     0.186 HD
ENDBRANCH   2   6
BRANCH   1  12
HETATM   12  O1  UNL     1      -4.202   1.876  13.802  1.00  0.00    -0.374 OA
ATOM     13  H1  UNL     1      -4.597   2.306  13.052  1.00  0.00     0.212 HD
ENDBRANCH   1  12
BRANCH   5  14
HETATM   14  C8  UNL     1      -5.696   1.932  16.684  1.00  0.00     0.251 C 
HETATM   15  C9  UNL     1      -7.176   1.924  16.989  1.00  0.00     0.224 C 
HETATM   16  O2  UNL     1      -7.380   0.641  17.523  1.00  0.00    -0.363 OA
HETATM   17  C10 UNL     1      -6.129   0.035  17.574  1.00  0.00     0.340 C 
HETATM   18  O3  UNL     1      -5.489   0.557  16.424  1.00  0.00    -0.340 OA
ENDBRANCH   5  14
TORSDOF 3
ENDMDL
MODEL 2
REMARK VINA RESULT: -6.145963712      1.927      5.735
REMARK  3 active torsions:
REMARK  status: ('A' for Active; 'I' for Inactive)
REMARK    1  A    between atoms: O1_1  and  C1_3 
REMARK    2  A    between atoms: C2_4  and  N1_5 
REMARK    3  A    between atoms: N3_13  and  C8_14 
ROOT
HETATM    1  C1  UNL     1      -4.669   2.816  14.235  1.00  0.00     0.250 C 
HETATM    2  C2  UNL     1      -6.051   2.945  14.809  1.00  0.00     0.180 C 
HETATM    3  C6  UNL     1      -6.221   4.405  14.953  1.00  0.00     0.021 C 
HETATM    4  C7  UNL     1      -5.333   5.003  14.173  1.00  0.00     0.089 C 
HETATM    5  N3  UNL     1      -4.549   4.055  13.489  1.00  0.00    -0.334 N 
ENDROOT
BRANCH   2   6
HETATM    6  N1  UNL     1      -6.133   2.266  16.110  1.00  0.00    -0.291 N 
HETATM    7  C3  UNL     1      -6.834   2.730  17.157  1.00  0.00     0.112 A 
HETATM    8  C4  UNL     1      -6.674   1.831  18.191  1.00  0.00     0.037 A 
HETATM    9  C5  UNL     1      -5.858   0.813  17.738  1.00  0.00     0.108 A 
HETATM   10  N2  UNL     1      -5.559   1.130  16.466  1.00  0.00    -0.309 N 
ATOM     11  H2  UNL     1      -4.967   0.567  15.856  1.00  0.00     0.186 HD
ENDBRANCH   2   6
BRANCH   1  12
HETATM   12  O1  UNL     1      -3.688   2.810  15.226  1.00  0.00    -0.374 OA
ATOM     13  H1  UNL     1      -2.824   2.993  14.875  1.00  0.00     0.212 HD
ENDBRANCH   1  12
BRANCH   5  14
HETATM   14  C8  UNL     1      -3.781   4.229  12.308  1.00  0.00     0.251 C 
HETATM   15  C9  UNL     1      -3.101   2.967  11.831  1.00  0.00     0.224 C 
HETATM   16  O2  UNL     1      -3.029   3.155  10.441  1.00  0.00    -0.363 OA
HETATM   17  C10 UNL     1      -3.548   4.421  10.190  1.00  0.00     0.340 C 
HETATM   18  O3  UNL     1      -4.563   4.535  11.170  1.00  0.00    -0.340 OA
ENDBRANCH   5  14
TORSDOF 3
ENDMDL
MODEL 3
REMARK VINA RESULT: -6.134070529      1.972      5.780
REMARK  3 active torsions:
REMARK  status: ('A' for Active; 'I' for Inactive)
REMARK    1  A    between atoms: O1_1  and  C1_3 
REMARK    2  A    between atoms: C2_4  and  N1_5 
REMARK    3  A    between atoms: N3_13  and  C8_14 
ROOT
HETATM    1  C1  UNL     1      -4.585   2.487  13.543  1.00  0.00     0.250 C 
HETATM    2  C2  UNL     1      -4.989   3.398  14.666  1.00  0.00     0.180 C 
HETATM    3  C6  UNL     1      -3.734   4.104  14.995  1.00  0.00     0.021 C 
HETATM    4  C7  UNL     1      -2.910   3.987  13.964  1.00  0.00     0.089 C 
HETATM    5  N3  UNL     1      -3.509   3.243  12.929  1.00  0.00    -0.334 N 
ENDROOT
BRANCH   2   6
HETATM    6  N1  UNL     1      -5.481   2.619  15.810  1.00  0.00    -0.291 N 
HETATM    7  C3  UNL     1      -6.733   2.699  16.292  1.00  0.00     0.112 A 
HETATM    8  C4  UNL     1      -6.820   1.827  17.358  1.00  0.00     0.037 A 
HETATM    9  C5  UNL     1      -5.588   1.220  17.504  1.00  0.00     0.108 A 
HETATM   10  N2  UNL     1      -4.813   1.740  16.536  1.00  0.00    -0.309 N 
ATOM     11  H2  UNL     1      -3.837   1.489  16.382  1.00  0.00     0.186 HD
ENDBRANCH   2   6
BRANCH   1  12
HETATM   12  O1  UNL     1      -4.057   1.283  14.010  1.00  0.00    -0.374 OA
ATOM     13  H1  UNL     1      -3.179   1.389  14.357  1.00  0.00     0.212 HD
ENDBRANCH   1  12
BRANCH   5  14
HETATM   14  C8  UNL     1      -3.164   3.208  11.553  1.00  0.00     0.251 C 
HETATM   15  C9  UNL     1      -4.321   2.862  10.643  1.00  0.00     0.224 C 
HETATM   16  O2  UNL     1      -3.993   3.530   9.451  1.00  0.00    -0.363 OA
HETATM   17  C10 UNL     1      -2.751   4.120   9.661  1.00  0.00     0.340 C 
HETATM   18  O3  UNL     1      -2.808   4.474  11.031  1.00  0.00    -0.340 OA
ENDBRANCH   5  14
TORSDOF 3
ENDMDL
MODEL 4
REMARK VINA RESULT: -6.114597389      1.852      5.732
REMARK  3 active torsions:
REMARK  status: ('A' for Active; 'I' for Inactive)
REMARK    1  A    between atoms: O1_1  and  C1_3 
REMARK    2  A    between atoms: C2_4  and  N1_5 
REMARK    3  A    between atoms: N3_13  and  C8_14 
ROOT
HETATM    1  C1  UNL     1      -4.263   2.766  14.455  1.00  0.00     0.250 C 
HETATM    2  C2  UNL     1      -5.729   2.848  14.772  1.00  0.00     0.180 C 
HETATM    3  C6  UNL     1      -5.971   4.302  14.865  1.00  0.00     0.021 C 
HETATM    4  C7  UNL     1      -4.979   4.928  14.250  1.00  0.00     0.089 C 
HETATM    5  N3  UNL     1      -4.053   4.004  13.729  1.00  0.00    -0.334 N 
ENDROOT
BRANCH   2   6
HETATM    6  N1  UNL     1      -6.019   2.174  16.044  1.00  0.00    -0.291 N 
HETATM    7  C3  UNL     1      -6.830   2.673  16.991  1.00  0.00     0.112 A 
HETATM    8  C4  UNL     1      -6.857   1.766  18.031  1.00  0.00     0.037 A 
HETATM    9  C5  UNL     1      -6.040   0.707  17.684  1.00  0.00     0.108 A 
HETATM   10  N2  UNL     1      -5.557   1.009  16.466  1.00  0.00    -0.309 N 
ATOM     11  H2  UNL     1      -4.918   0.417  15.936  1.00  0.00     0.186 HD
ENDBRANCH   2   6
BRANCH   1  12
HETATM   12  O1  UNL     1      -3.476   2.800  15.606  1.00  0.00    -0.374 OA
ATOM     13  H1  UNL     1      -2.930   3.577  15.643  1.00  0.00     0.212 HD
ENDBRANCH   1  12
BRANCH   5  14
HETATM   14  C8  UNL     1      -3.092   4.199  12.702  1.00  0.00     0.251 C 
HETATM   15  C9  UNL     1      -2.149   5.351  12.962  1.00  0.00     0.224 C 
HETATM   16  O2  UNL     1      -0.977   4.953  12.298  1.00  0.00    -0.363 OA
HETATM   17  C10 UNL     1      -1.270   3.744  11.677  1.00  0.00     0.340 C 
HETATM   18  O3  UNL     1      -2.163   3.138  12.593  1.00  0.00    -0.340 OA
ENDBRANCH   5  14
TORSDOF 3
ENDMDL
MODEL 5
REMARK VINA RESULT: -6.114036060      1.972      2.516
REMARK  3 active torsions:
REMARK  status: ('A' for Active; 'I' for Inactive)
REMARK    1  A    between atoms: O1_1  and  C1_3 
REMARK    2  A    between atoms: C2_4  and  N1_5 
REMARK    3  A    between atoms: N3_13  and  C8_14 
ROOT
HETATM    1  C1  UNL     1      -4.461   4.034  13.675  1.00  0.00     0.250 C 
HETATM    2  C2  UNL     1      -4.839   5.462  13.941  1.00  0.00     0.180 C 
HETATM    3  C6  UNL     1      -6.158   5.344  14.595  1.00  0.00     0.021 C 
HETATM    4  C7  UNL     1      -6.285   4.108  15.052  1.00  0.00     0.089 C 
HETATM    5  N3  UNL     1      -5.135   3.348  14.760  1.00  0.00    -0.334 N 
ENDROOT
BRANCH   2   6
HETATM    6  N1  UNL     1      -4.931   6.213  12.681  1.00  0.00    -0.291 N 
HETATM    7  C3  UNL     1      -5.956   7.021  12.361  1.00  0.00     0.112 A 
HETATM    8  C4  UNL     1      -5.691   7.547  11.113  1.00  0.00     0.037 A 
HETATM    9  C5  UNL     1      -4.479   7.035  10.691  1.00  0.00     0.108 A 
HETATM   10  N2  UNL     1      -4.063   6.230  11.685  1.00  0.00    -0.309 N 
ATOM     11  H2  UNL     1      -3.191   5.701  11.672  1.00  0.00     0.186 HD
ENDBRANCH   2   6
BRANCH   1  12
HETATM   12  O1  UNL     1      -4.990   3.566  12.472  1.00  0.00    -0.374 OA
ATOM     13  H1  UNL     1      -4.452   2.885  12.086  1.00  0.00     0.212 HD
ENDBRANCH   1  12
BRANCH   5  14
HETATM   14  C8  UNL     1      -4.689   2.150  15.377  1.00  0.00     0.251 C 
HETATM   15  C9  UNL     1      -5.682   1.560  16.352  1.00  0.00     0.224 C 
HETATM   16  O2  UNL     1      -5.408   0.183  16.285  1.00  0.00    -0.363 OA
HETATM   17  C10 UNL     1      -4.328   0.041  15.419  1.00  0.00     0.340 C 
HETATM   18  O3  UNL     1      -4.557   1.069  14.474  1.00  0.00    -0.340 OA
ENDBRANCH   5  14
TORSDOF 3
ENDMDL
