MODEL 1
REMARK VINA RESULT: -6.211957475      0.000      0.000
REMARK  3 active torsions:
REMARK  status: ('A' for Active; 'I' for Inactive)
REMARK    1  A    between atoms: O1_2  and  C2_3 
REMARK    2  A    between atoms: C3_4  and  C4_5 
REMARK    3  A    between atoms: C4_5  and  O2_6 
ROOT
HETATM    1  C2  UNL     1      -4.210   2.306  13.147  1.00  0.00     0.183 C 
HETATM    2  C3  UNL     1      -3.826   3.639  13.716  1.00  0.00     0.177 C 
HETATM    3  O3  UNL     1      -3.793   3.493  15.100  1.00  0.00    -0.372 OA
HETATM    4  C5  UNL     1      -4.749   2.570  15.439  1.00  0.00     0.166 C 
HETATM    5  C6  UNL     1      -4.354   1.666  16.577  1.00  0.00     0.097 C 
HETATM    6  C7  UNL     1      -5.366   1.746  17.640  1.00  0.00     0.009 C 
HETATM    7  C8  UNL     1      -6.294   0.853  17.366  1.00  0.00     0.134 C 
HETATM    8  O4  UNL     1      -5.982   0.166  16.183  1.00  0.00    -0.332 OA
HETATM    9  C9  UNL     1      -4.559   0.298  15.990  1.00  0.00     0.276 C 
HETATM   10  O5  UNL     1      -4.239   0.435  14.662  1.00  0.00    -0.350 OA
HETATM   11  C10 UNL     1      -4.903   1.612  14.297  1.00  0.00     0.186 C 
ENDROOT
BRANCH   2  12
HETATM   12  C4  UNL     1      -4.824   4.688  13.285  1.00  0.00     0.198 C 
BRANCH  12  13
HETATM   13  O2  UNL     1      -4.631   5.092  11.980  1.00  0.00    -0.398 OA
ATOM     14  H2  UNL     1      -4.439   4.363  11.401  1.00  0.00     0.209 HD
ENDBRANCH  12  13
ENDBRANCH   2  12
BRANCH   1  15
HETATM   15  O1  UNL     1      -5.108   2.436  12.118  1.00  0.00    -0.385 OA
HETATM   16  C1  UNL     1      -5.007   1.411  11.175  1.00  0.00     0.202 C 
ENDBRANCH   1  15
TORSDOF 3
ENDMDL
MODEL 2
REMARK VINA RESULT: -6.154522175      1.566      2.032
REMARK  3 active torsions:
REMARK  status: ('A' for Active; 'I' for Inactive)
REMARK    1  A    between atoms: O1_2  and  C2_3 
REMARK    2  A    between atoms: C3_4  and  C4_5 
REMARK    3  A    between atoms: C4_5  and  O2_6 
ROOT
HETATM    1  C2  UNL     1      -3.815   0.467  12.913  1.00  0.00     0.183 C 
HETATM    2  C3  UNL     1      -3.870   1.907  12.498  1.00  0.00     0.177 C 
HETATM    3  O3  UNL     1      -4.156   2.646  13.642  1.00  0.00    -0.372 OA
HETATM    4  C5  UNL     1      -4.953   1.870  14.445  1.00  0.00     0.166 C 
HETATM    5  C6  UNL     1      -4.677   2.024  15.917  1.00  0.00     0.097 C 
HETATM    6  C7  UNL     1      -5.917   2.400  16.611  1.00  0.00     0.009 C 
HETATM    7  C8  UNL     1      -6.540   1.285  16.931  1.00  0.00     0.134 C 
HETATM    8  O4  UNL     1      -5.806   0.169  16.502  1.00  0.00    -0.332 OA
HETATM    9  C9  UNL     1      -4.440   0.605  16.352  1.00  0.00     0.276 C 
HETATM   10  O5  UNL     1      -3.833   0.006  15.276  1.00  0.00    -0.350 OA
HETATM   11  C10 UNL     1      -4.613   0.432  14.195  1.00  0.00     0.186 C 
ENDROOT
BRANCH   2  12
HETATM   12  C4  UNL     1      -4.924   2.093  11.431  1.00  0.00     0.198 C 
BRANCH  12  13
HETATM   13  O2  UNL     1      -4.462   1.763  10.174  1.00  0.00    -0.398 OA
ATOM     14  H2  UNL     1      -4.765   2.368   9.506  1.00  0.00     0.209 HD
ENDBRANCH  12  13
ENDBRANCH   2  12
BRANCH   1  15
HETATM   15  O1  UNL     1      -4.433  -0.347  11.997  1.00  0.00    -0.385 OA
HETATM   16  C1  UNL     1      -3.898  -1.636  11.966  1.00  0.00     0.202 C 
ENDBRANCH   1  15
TORSDOF 3
ENDMDL
MODEL 3
REMARK VINA RESULT: -6.083167760      1.293      4.507
REMARK  3 active torsions:
REMARK  status: ('A' for Active; 'I' for Inactive)
REMARK    1  A    between atoms: O1_2  and  C2_3 
REMARK    2  A    between atoms: C3_4  and  C4_5 
REMARK    3  A    between atoms: C4_5  and  O2_6 
ROOT
HETATM    1  C2  UNL     1      -4.788   3.023  15.263  1.00  0.00     0.183 C 
HETATM    2  C3  UNL     1      -4.598   1.712  15.966  1.00  0.00     0.177 C 
HETATM    3  O3  UNL     1      -4.114   0.813  15.020  1.00  0.00    -0.372 OA
HETATM    4  C5  UNL     1      -4.658   1.157  13.809  1.00  0.00     0.166 C 
HETATM    5  C6  UNL     1      -3.724   0.975  12.642  1.00  0.00     0.097 C 
HETATM    6  C7  UNL     1      -4.353   0.102  11.642  1.00  0.00     0.009 C 
HETATM    7  C8  UNL     1      -5.064   0.870  10.843  1.00  0.00     0.134 C 
HETATM    8  O4  UNL     1      -4.960   2.214  11.231  1.00  0.00    -0.332 OA
HETATM    9  C9  UNL     1      -3.743   2.331  11.996  1.00  0.00     0.276 C 
HETATM   10  O5  UNL     1      -3.885   3.214  13.039  1.00  0.00    -0.350 OA
HETATM   11  C10 UNL     1      -4.902   2.635  13.807  1.00  0.00     0.186 C 
ENDROOT
BRANCH   2  12
HETATM   12  C4  UNL     1      -5.911   1.253  16.557  1.00  0.00     0.198 C 
BRANCH  12  13
HETATM   13  O2  UNL     1      -5.941  -0.108  16.777  1.00  0.00    -0.398 OA
ATOM     14  H2  UNL     1      -5.072  -0.476  16.887  1.00  0.00     0.209 HD
ENDBRANCH  12  13
ENDBRANCH   2  12
BRANCH   1  15
HETATM   15  O1  UNL     1      -5.957   3.634  15.639  1.00  0.00    -0.385 OA
HETATM   16  C1  UNL     1      -6.310   4.695  14.803  1.00  0.00     0.202 C 
ENDBRANCH   1  15
TORSDOF 3
ENDMDL
MODEL 4
REMARK VINA RESULT: -5.882780437      1.570      4.513
REMARK  3 active torsions:
REMARK  status: ('A' for Active; 'I' for Inactive)
REMARK    1  A    between atoms: O1_2  and  C2_3 
REMARK    2  A    between atoms: C3_4  and  C4_5 
REMARK    3  A    between atoms: C4_5  and  O2_6 
ROOT
HETATM    1  C2  UNL     1      -5.039   2.155  13.460  1.00  0.00     0.183 C 
HETATM    2  C3  UNL     1      -5.023   2.146  14.959  1.00  0.00     0.177 C 
HETATM    3  O3  UNL     1      -4.475   3.359  15.364  1.00  0.00    -0.372 OA
HETATM    4  C5  UNL     1      -3.553   3.732  14.419  1.00  0.00     0.166 C 
HETATM    5  C6  UNL     1      -3.504   5.213  14.158  1.00  0.00     0.097 C 
HETATM    6  C7  UNL     1      -2.134   5.701  14.361  1.00  0.00     0.009 C 
HETATM    7  C8  UNL     1      -1.495   5.566  13.217  1.00  0.00     0.134 C 
HETATM    8  O4  UNL     1      -2.342   5.016  12.243  1.00  0.00    -0.332 OA
HETATM    9  C9  UNL     1      -3.693   5.286  12.668  1.00  0.00     0.276 C 
HETATM   10  O5  UNL     1      -4.535   4.243  12.371  1.00  0.00    -0.350 OA
HETATM   11  C10 UNL     1      -3.988   3.178  13.096  1.00  0.00     0.186 C 
ENDROOT
BRANCH   2  12
HETATM   12  C4  UNL     1      -4.214   0.970  15.456  1.00  0.00     0.198 C 
BRANCH  12  13
HETATM   13  O2  UNL     1      -4.965  -0.183  15.547  1.00  0.00    -0.398 OA
ATOM     14  H2  UNL     1      -4.612  -0.796  16.181  1.00  0.00     0.209 HD
ENDBRANCH  12  13
ENDBRANCH   2  12
BRANCH   1  15
HETATM   15  O1  UNL     1      -4.657   0.943  12.943  1.00  0.00    -0.385 OA
HETATM   16  C1  UNL     1      -4.698   0.909  11.547  1.00  0.00     0.202 C 
ENDBRANCH   1  15
TORSDOF 3
ENDMDL
MODEL 5
REMARK VINA RESULT: -5.849098753      2.540      5.155
REMARK  3 active torsions:
REMARK  status: ('A' for Active; 'I' for Inactive)
REMARK    1  A    between atoms: O1_2  and  C2_3 
REMARK    2  A    between atoms: C3_4  and  C4_5 
REMARK    3  A    between atoms: C4_5  and  O2_6 
ROOT
HETATM    1  C2  UNL     1      -4.304   2.622  13.561  1.00  0.00     0.183 C 
HETATM    2  C3  UNL     1      -4.011   1.563  12.540  1.00  0.00     0.177 C 
HETATM    3  O3  UNL     1      -2.765   1.861  11.997  1.00  0.00    -0.372 OA
HETATM    4  C5  UNL     1      -2.631   3.226  11.996  1.00  0.00     0.166 C 
HETATM    5  C6  UNL     1      -1.236   3.707  12.295  1.00  0.00     0.097 C 
HETATM    6  C7  UNL     1      -0.775   4.580  11.207  1.00  0.00     0.009 C 
HETATM    7  C8  UNL     1      -1.166   5.804  11.494  1.00  0.00     0.134 C 
HETATM    8  O4  UNL     1      -1.865   5.825  12.710  1.00  0.00    -0.332 OA
HETATM    9  C9  UNL     1      -1.457   4.652  13.443  1.00  0.00     0.276 C 
HETATM   10  O5  UNL     1      -2.503   4.108  14.148  1.00  0.00    -0.350 OA
HETATM   11  C10 UNL     1      -3.421   3.775  13.145  1.00  0.00     0.186 C 
ENDROOT
BRANCH   2  12
HETATM   12  C4  UNL     1      -5.095   1.551  11.488  1.00  0.00     0.198 C 
BRANCH  12  13
HETATM   13  O2  UNL     1      -4.661   1.018  10.292  1.00  0.00    -0.398 OA
ATOM     14  H2  UNL     1      -5.377   0.837   9.695  1.00  0.00     0.209 HD
ENDBRANCH  12  13
ENDBRANCH   2  12
BRANCH   1  15
HETATM   15  O1  UNL     1      -5.611   3.035  13.500  1.00  0.00    -0.385 OA
HETATM   16  C1  UNL     1      -6.047   3.639  14.681  1.00  0.00     0.202 C 
ENDBRANCH   1  15
TORSDOF 3
ENDMDL
