MODEL 1
REMARK VINA RESULT: -6.035051764      0.000      0.000
REMARK  6 active torsions:
REMARK  status: ('A' for Active; 'I' for Inactive)
REMARK    1  A    between atoms: C4_5  and  N2_6 
REMARK    2  A    between atoms: N2_6  and  N3_8 
REMARK    3  A    between atoms: N3_8  and  N4_9 
REMARK    4  A    between atoms: C6_13  and  O1_14 
REMARK    5  A    between atoms: C7_16  and  C8_17 
REMARK    6  A    between atoms: C8_17  and  O2_18 
ROOT
HETATM    1  N1  UNL     1      -6.131   5.524  14.214  1.00  0.00    -0.195 NA
HETATM    2  C1  UNL     1      -5.723   4.458  14.029  1.00  0.00     0.091 C 
HETATM    3  C2  UNL     1      -5.191   3.096  13.770  1.00  0.00     0.230 C 
HETATM    4  C3  UNL     1      -4.883   2.521  15.147  1.00  0.00     0.074 C 
HETATM    5  C4  UNL     1      -4.312   1.148  15.094  1.00  0.00     0.120 C 
HETATM    6  C5  UNL     1      -4.466   0.476  13.753  1.00  0.00     0.062 C 
HETATM    7  C6  UNL     1      -3.468   0.959  12.745  1.00  0.00     0.151 C 
HETATM    8  C7  UNL     1      -3.840   2.241  12.079  1.00  0.00     0.175 C 
HETATM    9  O3  UNL     1      -4.098   3.237  12.977  1.00  0.00    -0.362 OA
ENDROOT
BRANCH   5  10
HETATM   10  N2  UNL     1      -4.981   0.315  16.075  1.00  0.00    -0.248 N 
ATOM     11  H2  UNL     1      -4.513  -0.505  16.461  1.00  0.00     0.197 HD
BRANCH  10  12
HETATM   12  N3  UNL     1      -6.126   0.610  16.439  1.00  0.00    -0.248 NA
BRANCH  12  13
HETATM   13  N4  UNL     1      -7.131   0.798  17.156  1.00  0.00    -0.261 N 
ATOM     14  H42 UNL     1      -7.619  -0.051  16.870  1.00  0.00     0.193 HD
ATOM     15  H41 UNL     1      -7.783   1.216  17.820  1.00  0.00     0.193 HD
ENDBRANCH  12  13
ENDBRANCH  10  12
ENDBRANCH   5  10
BRANCH   8  16
HETATM   16  C8  UNL     1      -4.919   2.067  11.032  1.00  0.00     0.198 C 
BRANCH  16  17
HETATM   17  O2  UNL     1      -4.843   3.093  10.091  1.00  0.00    -0.398 OA
ATOM     18  H2  UNL     1      -5.271   3.873  10.423  1.00  0.00     0.209 HD
ENDBRANCH  16  17
ENDBRANCH   8  16
BRANCH   7  19
HETATM   19  O1  UNL     1      -3.247  -0.028  11.815  1.00  0.00    -0.393 OA
ATOM     20  H1  UNL     1      -2.830  -0.770  12.238  1.00  0.00     0.210 HD
ENDBRANCH   7  19
TORSDOF 6
ENDMDL
MODEL 2
REMARK VINA RESULT: -5.943605709      1.434      3.685
REMARK  6 active torsions:
REMARK  status: ('A' for Active; 'I' for Inactive)
REMARK    1  A    between atoms: C4_5  and  N2_6 
REMARK    2  A    between atoms: N2_6  and  N3_8 
REMARK    3  A    between atoms: N3_8  and  N4_9 
REMARK    4  A    between atoms: C6_13  and  O1_14 
REMARK    5  A    between atoms: C7_16  and  C8_17 
REMARK    6  A    between atoms: C8_17  and  O2_18 
ROOT
HETATM    1  N1  UNL     1      -4.204   0.299  16.343  1.00  0.00    -0.195 NA
HETATM    2  C1  UNL     1      -4.296   0.943  15.386  1.00  0.00     0.091 C 
HETATM    3  C2  UNL     1      -4.409   1.750  14.145  1.00  0.00     0.230 C 
HETATM    4  C3  UNL     1      -5.406   2.853  14.478  1.00  0.00     0.074 C 
HETATM    5  C4  UNL     1      -5.670   3.767  13.334  1.00  0.00     0.120 C 
HETATM    6  C5  UNL     1      -4.673   3.640  12.209  1.00  0.00     0.062 C 
HETATM    7  C6  UNL     1      -4.925   2.442  11.345  1.00  0.00     0.151 C 
HETATM    8  C7  UNL     1      -4.382   1.165  11.893  1.00  0.00     0.175 C 
HETATM    9  O3  UNL     1      -4.825   0.913  13.160  1.00  0.00    -0.362 OA
ENDROOT
BRANCH   5  10
HETATM   10  N2  UNL     1      -5.624   5.140  13.800  1.00  0.00    -0.248 N 
ATOM     11  H2  UNL     1      -5.285   5.882  13.187  1.00  0.00     0.197 HD
BRANCH  10  12
HETATM   12  N3  UNL     1      -5.999   5.402  14.949  1.00  0.00    -0.248 NA
BRANCH  12  13
HETATM   13  N4  UNL     1      -6.007   5.802  16.132  1.00  0.00    -0.261 N 
ATOM     14  H42 UNL     1      -6.341   4.925  16.532  1.00  0.00     0.193 HD
ATOM     15  H41 UNL     1      -5.908   6.397  16.955  1.00  0.00     0.193 HD
ENDBRANCH  12  13
ENDBRANCH  10  12
ENDBRANCH   5  10
BRANCH   8  16
HETATM   16  C8  UNL     1      -2.881   1.051  11.736  1.00  0.00     0.198 C 
BRANCH  16  17
HETATM   17  O2  UNL     1      -2.568   0.563  10.468  1.00  0.00    -0.398 OA
ATOM     18  H2  UNL     1      -2.008   1.179  10.010  1.00  0.00     0.209 HD
ENDBRANCH  16  17
ENDBRANCH   8  16
BRANCH   7  19
HETATM   19  O1  UNL     1      -4.436   2.680  10.084  1.00  0.00    -0.393 OA
ATOM     20  H1  UNL     1      -3.663   2.146   9.941  1.00  0.00     0.210 HD
ENDBRANCH   7  19
TORSDOF 6
ENDMDL
MODEL 3
REMARK VINA RESULT: -5.930506003      1.439      4.037
REMARK  6 active torsions:
REMARK  status: ('A' for Active; 'I' for Inactive)
REMARK    1  A    between atoms: C4_5  and  N2_6 
REMARK    2  A    between atoms: N2_6  and  N3_8 
REMARK    3  A    between atoms: N3_8  and  N4_9 
REMARK    4  A    between atoms: C6_13  and  O1_14 
REMARK    5  A    between atoms: C7_16  and  C8_17 
REMARK    6  A    between atoms: C8_17  and  O2_18 
ROOT
HETATM    1  N1  UNL     1      -4.186   0.382  16.461  1.00  0.00    -0.195 NA
HETATM    2  C1  UNL     1      -4.293   0.989  15.482  1.00  0.00     0.091 C 
HETATM    3  C2  UNL     1      -4.425   1.748  14.213  1.00  0.00     0.230 C 
HETATM    4  C3  UNL     1      -5.431   2.852  14.513  1.00  0.00     0.074 C 
HETATM    5  C4  UNL     1      -5.715   3.720  13.338  1.00  0.00     0.120 C 
HETATM    6  C5  UNL     1      -4.727   3.562  12.211  1.00  0.00     0.062 C 
HETATM    7  C6  UNL     1      -4.973   2.330  11.394  1.00  0.00     0.151 C 
HETATM    8  C7  UNL     1      -4.410   1.081  11.984  1.00  0.00     0.175 C 
HETATM    9  O3  UNL     1      -4.840   0.871  13.263  1.00  0.00    -0.362 OA
ENDROOT
BRANCH   5  10
HETATM   10  N2  UNL     1      -5.680   5.110  13.753  1.00  0.00    -0.248 N 
ATOM     11  H2  UNL     1      -5.119   5.395  14.556  1.00  0.00     0.197 HD
BRANCH  10  12
HETATM   12  N3  UNL     1      -6.339   5.946  13.123  1.00  0.00    -0.248 NA
BRANCH  12  13
HETATM   13  N4  UNL     1      -7.188   6.816  12.837  1.00  0.00    -0.261 N 
ATOM     14  H42 UNL     1      -7.907   6.466  13.470  1.00  0.00     0.193 HD
ATOM     15  H41 UNL     1      -7.642   7.623  12.409  1.00  0.00     0.193 HD
ENDBRANCH  12  13
ENDBRANCH  10  12
ENDBRANCH   5  10
BRANCH   8  16
HETATM   16  C8  UNL     1      -2.910   0.977  11.818  1.00  0.00     0.198 C 
BRANCH  16  17
HETATM   17  O2  UNL     1      -2.601   0.502  10.544  1.00  0.00    -0.398 OA
ATOM     18  H2  UNL     1      -2.419   1.229   9.960  1.00  0.00     0.209 HD
ENDBRANCH  16  17
ENDBRANCH   8  16
BRANCH   7  19
HETATM   19  O1  UNL     1      -4.496   2.527  10.121  1.00  0.00    -0.393 OA
ATOM     20  H1  UNL     1      -4.392   1.685   9.691  1.00  0.00     0.210 HD
ENDBRANCH   7  19
TORSDOF 6
ENDMDL
MODEL 4
REMARK VINA RESULT: -5.924735904      1.893      3.554
REMARK  6 active torsions:
REMARK  status: ('A' for Active; 'I' for Inactive)
REMARK    1  A    between atoms: C4_5  and  N2_6 
REMARK    2  A    between atoms: N2_6  and  N3_8 
REMARK    3  A    between atoms: N3_8  and  N4_9 
REMARK    4  A    between atoms: C6_13  and  O1_14 
REMARK    5  A    between atoms: C7_16  and  C8_17 
REMARK    6  A    between atoms: C8_17  and  O2_18 
ROOT
HETATM    1  N1  UNL     1      -3.057  -2.058  11.188  1.00  0.00    -0.195 NA
HETATM    2  C1  UNL     1      -3.376  -1.081  11.719  1.00  0.00     0.091 C 
HETATM    3  C2  UNL     1      -3.790   0.183  12.379  1.00  0.00     0.230 C 
HETATM    4  C3  UNL     1      -4.247  -0.228  13.773  1.00  0.00     0.074 C 
HETATM    5  C4  UNL     1      -4.727   0.918  14.593  1.00  0.00     0.120 C 
HETATM    6  C5  UNL     1      -4.358   2.267  14.030  1.00  0.00     0.062 C 
HETATM    7  C6  UNL     1      -5.238   2.679  12.890  1.00  0.00     0.151 C 
HETATM    8  C7  UNL     1      -4.853   2.091  11.574  1.00  0.00     0.175 C 
HETATM    9  O3  UNL     1      -4.774   0.728  11.618  1.00  0.00    -0.362 OA
ENDROOT
BRANCH   5  10
HETATM   10  N2  UNL     1      -4.149   0.829  15.921  1.00  0.00    -0.248 N 
ATOM     11  H2  UNL     1      -3.170   1.070  16.074  1.00  0.00     0.197 HD
BRANCH  10  12
HETATM   12  N3  UNL     1      -4.857   0.458  16.865  1.00  0.00    -0.248 NA
BRANCH  12  13
HETATM   13  N4  UNL     1      -5.856   0.172  17.558  1.00  0.00    -0.261 N 
ATOM     14  H42 UNL     1      -6.454  -0.079  16.771  1.00  0.00     0.193 HD
ATOM     15  H41 UNL     1      -6.468   0.021  18.360  1.00  0.00     0.193 HD
ENDBRANCH  12  13
ENDBRANCH  10  12
ENDBRANCH   5  10
BRANCH   8  16
HETATM   16  C8  UNL     1      -3.636   2.754  10.968  1.00  0.00     0.198 C 
BRANCH  16  17
HETATM   17  O2  UNL     1      -4.027   3.675   9.996  1.00  0.00    -0.398 OA
ATOM     18  H2  UNL     1      -3.472   4.444  10.034  1.00  0.00     0.209 HD
ENDBRANCH  16  17
ENDBRANCH   8  16
BRANCH   7  19
HETATM   19  O1  UNL     1      -5.277   4.051  12.819  1.00  0.00    -0.393 OA
ATOM     20  H1  UNL     1      -5.370   4.315  11.911  1.00  0.00     0.210 HD
ENDBRANCH   7  19
TORSDOF 6
ENDMDL
MODEL 5
REMARK VINA RESULT: -5.901738570      2.726      4.137
REMARK  6 active torsions:
REMARK  status: ('A' for Active; 'I' for Inactive)
REMARK    1  A    between atoms: C4_5  and  N2_6 
REMARK    2  A    between atoms: N2_6  and  N3_8 
REMARK    3  A    between atoms: N3_8  and  N4_9 
REMARK    4  A    between atoms: C6_13  and  O1_14 
REMARK    5  A    between atoms: C7_16  and  C8_17 
REMARK    6  A    between atoms: C8_17  and  O2_18 
ROOT
HETATM    1  N1  UNL     1      -4.490   0.537  16.686  1.00  0.00    -0.195 NA
HETATM    2  C1  UNL     1      -4.520   0.716  15.544  1.00  0.00     0.091 C 
HETATM    3  C2  UNL     1      -4.558   0.969  14.081  1.00  0.00     0.230 C 
HETATM    4  C3  UNL     1      -3.924  -0.263  13.448  1.00  0.00     0.074 C 
HETATM    5  C4  UNL     1      -3.851  -0.187  11.963  1.00  0.00     0.120 C 
HETATM    6  C5  UNL     1      -4.705   0.904  11.367  1.00  0.00     0.062 C 
HETATM    7  C6  UNL     1      -4.082   2.261  11.495  1.00  0.00     0.151 C 
HETATM    8  C7  UNL     1      -4.286   2.908  12.823  1.00  0.00     0.175 C 
HETATM    9  O3  UNL     1      -3.869   2.117  13.855  1.00  0.00    -0.362 OA
ENDROOT
BRANCH   5  10
HETATM   10  N2  UNL     1      -4.301  -1.446  11.399  1.00  0.00    -0.248 N 
ATOM     11  H2  UNL     1      -5.170  -1.491  10.867  1.00  0.00     0.197 HD
BRANCH  10  12
HETATM   12  N3  UNL     1      -3.619  -2.463  11.569  1.00  0.00    -0.248 NA
BRANCH  12  13
HETATM   13  N4  UNL     1      -2.752  -3.349  11.417  1.00  0.00    -0.261 N 
ATOM     14  H42 UNL     1      -2.937  -3.501  10.425  1.00  0.00     0.193 HD
ATOM     15  H41 UNL     1      -1.999  -4.011  11.606  1.00  0.00     0.193 HD
ENDBRANCH  12  13
ENDBRANCH  10  12
ENDBRANCH   5  10
BRANCH   8  16
HETATM   16  C8  UNL     1      -5.686   3.456  12.999  1.00  0.00     0.198 C 
BRANCH  16  17
HETATM   17  O2  UNL     1      -5.709   4.816  12.695  1.00  0.00    -0.398 OA
ATOM     18  H2  UNL     1      -5.044   5.274  13.195  1.00  0.00     0.209 HD
ENDBRANCH  16  17
ENDBRANCH   8  16
BRANCH   7  19
HETATM   19  O1  UNL     1      -4.541   3.069  10.482  1.00  0.00    -0.393 OA
ATOM     20  H1  UNL     1      -3.904   3.079   9.777  1.00  0.00     0.210 HD
ENDBRANCH   7  19
TORSDOF 6
ENDMDL
