MODEL 1
REMARK VINA RESULT: -6.907937710      0.000      0.000
REMARK  4 active torsions:
REMARK  status: ('A' for Active; 'I' for Inactive)
REMARK    1  A    between atoms: O1_2  and  C2_3 
REMARK    2  A    between atoms: C3_4  and  C4_5 
REMARK    3  A    between atoms: C8_12  and  O5_13 
REMARK    4  A    between atoms: C9_15  and  O6_16 
ROOT
HETATM    1  C4  UNL     1      -4.570   3.197  14.087  1.00  0.00     0.183 C 
HETATM    2  O2  UNL     1      -3.647   2.174  13.927  1.00  0.00    -0.319 OA
HETATM    3  C5  UNL     1      -3.890   1.554  12.731  1.00  0.00     0.313 C 
HETATM    4  O3  UNL     1      -4.596   0.398  12.945  1.00  0.00    -0.329 OA
HETATM    5  C6  UNL     1      -3.921  -0.644  12.307  1.00  0.00     0.200 C 
HETATM    6  C7  UNL     1      -3.156   0.150  11.267  1.00  0.00     0.200 C 
HETATM    7  O4  UNL     1      -2.696   1.202  12.077  1.00  0.00    -0.329 OA
HETATM    8  C8  UNL     1      -4.601   2.534  11.829  1.00  0.00     0.242 C 
HETATM    9  C9  UNL     1      -4.938   3.693  12.720  1.00  0.00     0.187 C 
ENDROOT
BRANCH   1  10
HETATM   10  C3  UNL     1      -5.781   2.760  14.802  1.00  0.00     0.032 C 
HETATM   11  C2  UNL     1      -5.838   2.803  16.113  1.00  0.00     0.132 C 
BRANCH  11  12
HETATM   12  O1  UNL     1      -6.952   2.404  16.839  1.00  0.00    -0.368 OA
HETATM   13  C1  UNL     1      -7.248   1.053  17.124  1.00  0.00     0.208 C 
ENDBRANCH  11  12
ENDBRANCH   1  10
BRANCH   9  14
HETATM   14  O6  UNL     1      -4.177   4.816  12.389  1.00  0.00    -0.390 OA
ATOM     15  H6  UNL     1      -4.060   4.870  11.449  1.00  0.00     0.210 HD
ENDBRANCH   9  14
BRANCH   8  16
HETATM   16  O5  UNL     1      -5.725   2.007  11.227  1.00  0.00    -0.385 OA
ATOM     17  H5  UNL     1      -5.927   2.409  10.390  1.00  0.00     0.210 HD
ENDBRANCH   8  16
TORSDOF 4
ENDMDL
MODEL 2
REMARK VINA RESULT: -6.267080421      1.082      1.087
REMARK  4 active torsions:
REMARK  status: ('A' for Active; 'I' for Inactive)
REMARK    1  A    between atoms: O1_2  and  C2_3 
REMARK    2  A    between atoms: C3_4  and  C4_5 
REMARK    3  A    between atoms: C8_12  and  O5_13 
REMARK    4  A    between atoms: C9_15  and  O6_16 
ROOT
HETATM    1  C4  UNL     1      -3.995   3.091  13.493  1.00  0.00     0.183 C 
HETATM    2  O2  UNL     1      -3.213   1.975  13.236  1.00  0.00    -0.319 OA
HETATM    3  C5  UNL     1      -3.749   1.306  12.167  1.00  0.00     0.313 C 
HETATM    4  O3  UNL     1      -4.487   0.241  12.613  1.00  0.00    -0.329 OA
HETATM    5  C6  UNL     1      -4.047  -0.901  11.940  1.00  0.00     0.200 C 
HETATM    6  C7  UNL     1      -3.451  -0.253  10.706  1.00  0.00     0.200 C 
HETATM    7  O4  UNL     1      -2.749   0.799  11.319  1.00  0.00    -0.329 OA
HETATM    8  C8  UNL     1      -4.547   2.292  11.349  1.00  0.00     0.242 C 
HETATM    9  C9  UNL     1      -4.596   3.532  12.191  1.00  0.00     0.187 C 
ENDROOT
BRANCH   1  10
HETATM   10  C3  UNL     1      -5.064   2.820  14.469  1.00  0.00     0.032 C 
HETATM   11  C2  UNL     1      -5.698   3.806  15.060  1.00  0.00     0.132 C 
BRANCH  11  12
HETATM   12  O1  UNL     1      -6.712   3.610  15.987  1.00  0.00    -0.368 OA
HETATM   13  C1  UNL     1      -6.518   3.714  17.382  1.00  0.00     0.208 C 
ENDBRANCH  11  12
ENDBRANCH   1  10
BRANCH   9  14
HETATM   14  O6  UNL     1      -3.830   4.552  11.624  1.00  0.00    -0.390 OA
ATOM     15  H6  UNL     1      -3.230   4.911  12.266  1.00  0.00     0.210 HD
ENDBRANCH   9  14
BRANCH   8  16
HETATM   16  O5  UNL     1      -5.811   1.839  11.029  1.00  0.00    -0.385 OA
ATOM     17  H5  UNL     1      -6.504   2.419  11.322  1.00  0.00     0.210 HD
ENDBRANCH   8  16
TORSDOF 4
ENDMDL
MODEL 3
REMARK VINA RESULT: -6.187687574      1.751      3.340
REMARK  4 active torsions:
REMARK  status: ('A' for Active; 'I' for Inactive)
REMARK    1  A    between atoms: O1_2  and  C2_3 
REMARK    2  A    between atoms: C3_4  and  C4_5 
REMARK    3  A    between atoms: C8_12  and  O5_13 
REMARK    4  A    between atoms: C9_15  and  O6_16 
ROOT
HETATM    1  C4  UNL     1      -5.220   2.256  13.574  1.00  0.00     0.183 C 
HETATM    2  O2  UNL     1      -5.566   3.166  12.587  1.00  0.00    -0.319 OA
HETATM    3  C5  UNL     1      -4.443   3.468  11.862  1.00  0.00     0.313 C 
HETATM    4  O3  UNL     1      -3.930   4.667  12.285  1.00  0.00    -0.329 OA
HETATM    5  C6  UNL     1      -3.761   5.483  11.165  1.00  0.00     0.200 C 
HETATM    6  C7  UNL     1      -3.666   4.420  10.089  1.00  0.00     0.200 C 
HETATM    7  O4  UNL     1      -4.729   3.593  10.492  1.00  0.00    -0.329 OA
HETATM    8  C8  UNL     1      -3.475   2.318  11.996  1.00  0.00     0.242 C 
HETATM    9  C9  UNL     1      -4.072   1.441  13.056  1.00  0.00     0.187 C 
ENDROOT
BRANCH   1  10
HETATM   10  C3  UNL     1      -4.838   2.909  14.837  1.00  0.00     0.032 C 
HETATM   11  C2  UNL     1      -5.609   3.822  15.381  1.00  0.00     0.132 C 
BRANCH  11  12
HETATM   12  O1  UNL     1      -5.299   4.470  16.568  1.00  0.00    -0.368 OA
HETATM   13  C1  UNL     1      -6.001   4.254  17.774  1.00  0.00     0.208 C 
ENDBRANCH  11  12
ENDBRANCH   1  10
BRANCH   9  14
HETATM   14  O6  UNL     1      -4.535   0.242  12.511  1.00  0.00    -0.390 OA
ATOM     15  H6  UNL     1      -3.889  -0.123  11.918  1.00  0.00     0.210 HD
ENDBRANCH   9  14
BRANCH   8  16
HETATM   16  O5  UNL     1      -2.194   2.716  12.322  1.00  0.00    -0.385 OA
ATOM     17  H5  UNL     1      -1.645   2.876  11.563  1.00  0.00     0.210 HD
ENDBRANCH   8  16
TORSDOF 4
ENDMDL
MODEL 4
REMARK VINA RESULT: -5.927735393      2.055      2.941
REMARK  4 active torsions:
REMARK  status: ('A' for Active; 'I' for Inactive)
REMARK    1  A    between atoms: O1_2  and  C2_3 
REMARK    2  A    between atoms: C3_4  and  C4_5 
REMARK    3  A    between atoms: C8_12  and  O5_13 
REMARK    4  A    between atoms: C9_15  and  O6_16 
ROOT
HETATM    1  C4  UNL     1      -4.598   2.830  12.723  1.00  0.00     0.183 C 
HETATM    2  O2  UNL     1      -3.610   3.623  12.158  1.00  0.00    -0.319 OA
HETATM    3  C5  UNL     1      -2.709   2.809  11.525  1.00  0.00     0.313 C 
HETATM    4  O3  UNL     1      -1.608   2.632  12.323  1.00  0.00    -0.329 OA
HETATM    5  C6  UNL     1      -0.474   2.941  11.569  1.00  0.00     0.200 C 
HETATM    6  C7  UNL     1      -1.028   2.716  10.176  1.00  0.00     0.200 C 
HETATM    7  O4  UNL     1      -2.265   3.369  10.315  1.00  0.00    -0.329 OA
HETATM    8  C8  UNL     1      -3.409   1.519  11.171  1.00  0.00     0.242 C 
HETATM    9  C9  UNL     1      -4.731   1.601  11.874  1.00  0.00     0.187 C 
ENDROOT
BRANCH   1  10
HETATM   10  C3  UNL     1      -4.291   2.447  14.111  1.00  0.00     0.032 C 
HETATM   11  C2  UNL     1      -4.534   1.230  14.540  1.00  0.00     0.132 C 
BRANCH  11  12
HETATM   12  O1  UNL     1      -4.266   0.813  15.836  1.00  0.00    -0.368 OA
HETATM   13  C1  UNL     1      -5.234   0.807  16.864  1.00  0.00     0.208 C 
ENDBRANCH  11  12
ENDBRANCH   1  10
BRANCH   9  14
HETATM   14  O6  UNL     1      -5.775   1.753  10.959  1.00  0.00    -0.390 OA
ATOM     15  H6  UNL     1      -5.945   2.674  10.802  1.00  0.00     0.210 HD
ENDBRANCH   9  14
BRANCH   8  16
HETATM   16  O5  UNL     1      -2.701   0.394  11.540  1.00  0.00    -0.385 OA
ATOM     17  H5  UNL     1      -3.068  -0.412  11.195  1.00  0.00     0.210 HD
ENDBRANCH   8  16
TORSDOF 4
ENDMDL
MODEL 5
REMARK VINA RESULT: -5.916118985      1.841      3.505
REMARK  4 active torsions:
REMARK  status: ('A' for Active; 'I' for Inactive)
REMARK    1  A    between atoms: O1_2  and  C2_3 
REMARK    2  A    between atoms: C3_4  and  C4_5 
REMARK    3  A    between atoms: C8_12  and  O5_13 
REMARK    4  A    between atoms: C9_15  and  O6_16 
ROOT
HETATM    1  C4  UNL     1      -4.525   1.024  12.592  1.00  0.00     0.183 C 
HETATM    2  O2  UNL     1      -5.125   2.062  11.895  1.00  0.00    -0.319 OA
HETATM    3  C5  UNL     1      -4.147   2.923  11.472  1.00  0.00     0.313 C 
HETATM    4  O3  UNL     1      -4.086   4.003  12.316  1.00  0.00    -0.329 OA
HETATM    5  C6  UNL     1      -4.166   5.161  11.541  1.00  0.00     0.200 C 
HETATM    6  C7  UNL     1      -3.679   4.612  10.215  1.00  0.00     0.200 C 
HETATM    7  O4  UNL     1      -4.411   3.414  10.181  1.00  0.00    -0.329 OA
HETATM    8  C8  UNL     1      -2.851   2.155  11.383  1.00  0.00     0.242 C 
HETATM    9  C9  UNL     1      -3.151   0.831  12.020  1.00  0.00     0.187 C 
ENDROOT
BRANCH   1  10
HETATM   10  C3  UNL     1      -4.431   1.291  14.036  1.00  0.00     0.032 C 
HETATM   11  C2  UNL     1      -4.533   0.314  14.907  1.00  0.00     0.132 C 
BRANCH  11  12
HETATM   12  O1  UNL     1      -4.452   0.507  16.280  1.00  0.00    -0.368 OA
HETATM   13  C1  UNL     1      -5.544   0.933  17.067  1.00  0.00     0.208 C 
ENDBRANCH  11  12
ENDBRANCH   1  10
BRANCH   9  14
HETATM   14  O6  UNL     1      -3.160  -0.191  11.069  1.00  0.00    -0.390 OA
ATOM     15  H6  UNL     1      -2.288  -0.550  10.960  1.00  0.00     0.210 HD
ENDBRANCH   9  14
BRANCH   8  16
HETATM   16  O5  UNL     1      -1.794   2.793  12.000  1.00  0.00    -0.385 OA
ATOM     17  H5  UNL     1      -1.992   3.080  12.884  1.00  0.00     0.210 HD
ENDBRANCH   8  16
TORSDOF 4
ENDMDL
