MODEL 1
REMARK VINA RESULT: -5.997428438      0.000      0.000
REMARK  4 active torsions:
REMARK  status: ('A' for Active; 'I' for Inactive)
REMARK    1  A    between atoms: O1_2  and  C2_3 
REMARK    2  A    between atoms: C6_9  and  O4_10 
REMARK    3  A    between atoms: C7_12  and  O5_13 
REMARK    4  A    between atoms: C8_15  and  O6_16 
ROOT
HETATM    1  C2  UNL     1      -4.600   0.989  11.772  1.00  0.00     0.294 C 
HETATM    2  O2  UNL     1      -5.307   1.488  12.861  1.00  0.00    -0.320 OA
HETATM    3  C3  UNL     1      -4.622   2.483  13.538  1.00  0.00     0.192 C 
HETATM    4  C4  UNL     1      -4.639   2.202  15.007  1.00  0.00     0.082 C 
HETATM    5  O3  UNL     1      -3.289   2.590  13.142  1.00  0.00    -0.342 OA
HETATM    6  C5  UNL     1      -3.413   3.180  11.862  1.00  0.00     0.190 C 
HETATM    7  C6  UNL     1      -3.983   2.135  10.959  1.00  0.00     0.205 C 
HETATM    8  C7  UNL     1      -4.316   4.334  12.128  1.00  0.00     0.184 C 
HETATM    9  C8  UNL     1      -5.262   3.802  13.179  1.00  0.00     0.214 C 
ENDROOT
BRANCH   1  10
HETATM   10  O1  UNL     1      -3.567   0.202  12.292  1.00  0.00    -0.363 OA
HETATM   11  C1  UNL     1      -3.088  -0.586  11.260  1.00  0.00     0.204 C 
ENDBRANCH   1  10
BRANCH   7  12
HETATM   12  O4  UNL     1      -4.839   2.610   9.997  1.00  0.00    -0.388 OA
ATOM     13  H4  UNL     1      -4.382   2.873   9.207  1.00  0.00     0.210 HD
ENDBRANCH   7  12
BRANCH   9  14
HETATM   14  O6  UNL     1      -5.411   4.645  14.251  1.00  0.00    -0.383 OA
HETATM   15  C9  UNL     1      -6.421   5.582  14.099  1.00  0.00     0.202 C 
ENDBRANCH   9  14
BRANCH   8  16
HETATM   16  O5  UNL     1      -4.948   4.769  10.991  1.00  0.00    -0.390 OA
ATOM     17  H5  UNL     1      -5.265   5.660  11.077  1.00  0.00     0.210 HD
ENDBRANCH   8  16
TORSDOF 4
ENDMDL
MODEL 2
REMARK VINA RESULT: -5.789376395      2.034      4.117
REMARK  4 active torsions:
REMARK  status: ('A' for Active; 'I' for Inactive)
REMARK    1  A    between atoms: O1_2  and  C2_3 
REMARK    2  A    between atoms: C6_9  and  O4_10 
REMARK    3  A    between atoms: C7_12  and  O5_13 
REMARK    4  A    between atoms: C8_15  and  O6_16 
ROOT
HETATM    1  C2  UNL     1      -2.598   3.932  10.441  1.00  0.00     0.294 C 
HETATM    2  O2  UNL     1      -2.242   2.619  10.148  1.00  0.00    -0.320 OA
HETATM    3  C3  UNL     1      -2.430   1.759  11.216  1.00  0.00     0.192 C 
HETATM    4  C4  UNL     1      -1.205   0.925  11.419  1.00  0.00     0.082 C 
HETATM    5  O3  UNL     1      -2.690   2.427  12.412  1.00  0.00    -0.342 OA
HETATM    6  C5  UNL     1      -4.013   2.885  12.207  1.00  0.00     0.190 C 
HETATM    7  C6  UNL     1      -3.940   3.972  11.185  1.00  0.00     0.205 C 
HETATM    8  C7  UNL     1      -4.711   1.651  11.753  1.00  0.00     0.184 C 
HETATM    9  C8  UNL     1      -3.664   0.939  10.929  1.00  0.00     0.214 C 
ENDROOT
BRANCH   1  10
HETATM   10  O1  UNL     1      -1.603   4.439  11.283  1.00  0.00    -0.363 OA
HETATM   11  C1  UNL     1      -0.566   4.880  10.481  1.00  0.00     0.204 C 
ENDBRANCH   1  10
BRANCH   7  12
HETATM   12  O4  UNL     1      -5.009   4.030  10.327  1.00  0.00    -0.388 OA
ATOM     13  H4  UNL     1      -4.745   4.242   9.439  1.00  0.00     0.210 HD
ENDBRANCH   7  12
BRANCH   9  14
HETATM   14  O6  UNL     1      -3.526  -0.386  11.255  1.00  0.00    -0.383 OA
HETATM   15  C9  UNL     1      -4.192  -0.757  12.413  1.00  0.00     0.202 C 
ENDBRANCH   9  14
BRANCH   8  16
HETATM   16  O5  UNL     1      -5.859   1.932  11.058  1.00  0.00    -0.390 OA
ATOM     17  H5  UNL     1      -6.508   1.242  11.144  1.00  0.00     0.210 HD
ENDBRANCH   8  16
TORSDOF 4
ENDMDL
MODEL 3
REMARK VINA RESULT: -5.706028914      1.816      4.545
REMARK  4 active torsions:
REMARK  status: ('A' for Active; 'I' for Inactive)
REMARK    1  A    between atoms: O1_2  and  C2_3 
REMARK    2  A    between atoms: C6_9  and  O4_10 
REMARK    3  A    between atoms: C7_12  and  O5_13 
REMARK    4  A    between atoms: C8_15  and  O6_16 
ROOT
HETATM    1  C2  UNL     1      -4.088   3.565  10.900  1.00  0.00     0.294 C 
HETATM    2  O2  UNL     1      -2.974   2.876  10.432  1.00  0.00    -0.320 OA
HETATM    3  C3  UNL     1      -2.336   2.147  11.420  1.00  0.00     0.192 C 
HETATM    4  C4  UNL     1      -0.864   2.417  11.381  1.00  0.00     0.082 C 
HETATM    5  O3  UNL     1      -2.789   2.458  12.702  1.00  0.00    -0.342 OA
HETATM    6  C5  UNL     1      -4.068   1.852  12.712  1.00  0.00     0.190 C 
HETATM    7  C6  UNL     1      -4.936   2.663  11.807  1.00  0.00     0.205 C 
HETATM    8  C7  UNL     1      -3.773   0.476  12.225  1.00  0.00     0.184 C 
HETATM    9  C8  UNL     1      -2.678   0.693  11.207  1.00  0.00     0.214 C 
ENDROOT
BRANCH   1  10
HETATM   10  O1  UNL     1      -3.607   4.637  11.659  1.00  0.00    -0.363 OA
HETATM   11  C1  UNL     1      -4.572   5.627  11.635  1.00  0.00     0.204 C 
ENDBRANCH   1  10
BRANCH   7  12
HETATM   12  O4  UNL     1      -5.864   1.940  11.100  1.00  0.00    -0.388 OA
ATOM     13  H4  UNL     1      -6.716   2.361  11.091  1.00  0.00     0.210 HD
ENDBRANCH   7  12
BRANCH   9  14
HETATM   14  O6  UNL     1      -1.607  -0.148  11.375  1.00  0.00    -0.383 OA
HETATM   15  C9  UNL     1      -1.949  -1.489  11.467  1.00  0.00     0.202 C 
ENDBRANCH   9  14
BRANCH   8  16
HETATM   16  O5  UNL     1      -4.885  -0.140  11.712  1.00  0.00    -0.390 OA
ATOM     17  H5  UNL     1      -5.689   0.223  12.063  1.00  0.00     0.210 HD
ENDBRANCH   8  16
TORSDOF 4
ENDMDL
MODEL 4
REMARK VINA RESULT: -5.646198123      1.475      3.555
REMARK  4 active torsions:
REMARK  status: ('A' for Active; 'I' for Inactive)
REMARK    1  A    between atoms: O1_2  and  C2_3 
REMARK    2  A    between atoms: C6_9  and  O4_10 
REMARK    3  A    between atoms: C7_12  and  O5_13 
REMARK    4  A    between atoms: C8_15  and  O6_16 
ROOT
HETATM    1  C2  UNL     1      -3.931   4.102  11.195  1.00  0.00     0.294 C 
HETATM    2  O2  UNL     1      -4.034   4.256  12.574  1.00  0.00    -0.320 OA
HETATM    3  C3  UNL     1      -4.984   3.424  13.140  1.00  0.00     0.192 C 
HETATM    4  C4  UNL     1      -5.870   4.212  14.053  1.00  0.00     0.082 C 
HETATM    5  O3  UNL     1      -5.798   2.805  12.191  1.00  0.00    -0.342 OA
HETATM    6  C5  UNL     1      -4.915   1.853  11.629  1.00  0.00     0.190 C 
HETATM    7  C6  UNL     1      -3.917   2.614  10.820  1.00  0.00     0.205 C 
HETATM    8  C7  UNL     1      -4.357   1.184  12.837  1.00  0.00     0.184 C 
HETATM    9  C8  UNL     1      -4.252   2.307  13.842  1.00  0.00     0.214 C 
ENDROOT
BRANCH   1  10
HETATM   10  O1  UNL     1      -5.070   4.694  10.639  1.00  0.00    -0.363 OA
HETATM   11  C1  UNL     1      -4.649   5.766   9.874  1.00  0.00     0.204 C 
ENDBRANCH   1  10
BRANCH   7  12
HETATM   12  O4  UNL     1      -2.650   2.089  10.824  1.00  0.00    -0.388 OA
ATOM     13  H4  UNL     1      -2.567   1.356  11.423  1.00  0.00     0.210 HD
ENDBRANCH   7  12
BRANCH   9  14
HETATM   14  O6  UNL     1      -4.786   1.991  15.066  1.00  0.00    -0.383 OA
HETATM   15  C9  UNL     1      -4.546   0.686  15.468  1.00  0.00     0.202 C 
ENDBRANCH   9  14
BRANCH   8  16
HETATM   16  O5  UNL     1      -3.160   0.565  12.579  1.00  0.00    -0.390 OA
ATOM     17  H5  UNL     1      -2.447   1.187  12.494  1.00  0.00     0.210 HD
ENDBRANCH   8  16
TORSDOF 4
ENDMDL
MODEL 5
REMARK VINA RESULT: -5.623076369      1.737      3.360
REMARK  4 active torsions:
REMARK  status: ('A' for Active; 'I' for Inactive)
REMARK    1  A    between atoms: O1_2  and  C2_3 
REMARK    2  A    between atoms: C6_9  and  O4_10 
REMARK    3  A    between atoms: C7_12  and  O5_13 
REMARK    4  A    between atoms: C8_15  and  O6_16 
ROOT
HETATM    1  C2  UNL     1      -1.739   2.378  11.040  1.00  0.00     0.294 C 
HETATM    2  O2  UNL     1      -2.395   3.321  11.823  1.00  0.00    -0.320 OA
HETATM    3  C3  UNL     1      -3.746   3.413  11.537  1.00  0.00     0.192 C 
HETATM    4  C4  UNL     1      -4.132   4.849  11.364  1.00  0.00     0.082 C 
HETATM    5  O3  UNL     1      -4.101   2.736  10.370  1.00  0.00    -0.342 OA
HETATM    6  C5  UNL     1      -4.011   1.385  10.781  1.00  0.00     0.190 C 
HETATM    7  C6  UNL     1      -2.559   1.083  10.955  1.00  0.00     0.205 C 
HETATM    8  C7  UNL     1      -4.804   1.381  12.041  1.00  0.00     0.184 C 
HETATM    9  C8  UNL     1      -4.497   2.728  12.652  1.00  0.00     0.214 C 
ENDROOT
BRANCH   1  10
HETATM   10  O1  UNL     1      -1.633   2.925   9.757  1.00  0.00    -0.363 OA
HETATM   11  C1  UNL     1      -0.517   3.741   9.745  1.00  0.00     0.204 C 
ENDBRANCH   1  10
BRANCH   7  12
HETATM   12  O4  UNL     1      -2.269   0.217  11.979  1.00  0.00    -0.388 OA
ATOM     13  H4  UNL     1      -2.152   0.666  12.808  1.00  0.00     0.210 HD
ENDBRANCH   7  12
BRANCH   9  14
HETATM   14  O6  UNL     1      -5.618   3.410  13.053  1.00  0.00    -0.383 OA
HETATM   15  C9  UNL     1      -5.695   3.617  14.422  1.00  0.00     0.202 C 
ENDBRANCH   9  14
BRANCH   8  16
HETATM   16  O5  UNL     1      -4.480   0.324  12.853  1.00  0.00    -0.390 OA
ATOM     17  H5  UNL     1      -5.249  -0.151  13.146  1.00  0.00     0.210 HD
ENDBRANCH   8  16
TORSDOF 4
ENDMDL
