MODEL 1
REMARK VINA RESULT: -5.780179751      0.000      0.000
REMARK  6 active torsions:
REMARK  status: ('A' for Active; 'I' for Inactive)
REMARK    1  A    between atoms: O1_2  and  C2_3 
REMARK    2  A    between atoms: C5_8  and  O4_9 
REMARK    3  A    between atoms: C6_11  and  O5_12 
REMARK    4  A    between atoms: C7_14  and  N1_15 
REMARK    5  A    between atoms: N1_15  and  N2_17 
REMARK    6  A    between atoms: N2_17  and  N3_18 
ROOT
HETATM    1  C2  UNL     1      -5.215   3.873  13.553  1.00  0.00     0.289 C 
HETATM    2  O2  UNL     1      -5.360   4.354  12.257  1.00  0.00    -0.335 OA
HETATM    3  C3  UNL     1      -4.202   5.072  11.950  1.00  0.00     0.341 C 
HETATM    4  O3  UNL     1      -3.388   4.201  11.224  1.00  0.00    -0.364 OA
HETATM    5  C4  UNL     1      -4.229   3.404  10.461  1.00  0.00     0.204 C 
HETATM    6  C5  UNL     1      -4.677   2.157  11.141  1.00  0.00     0.173 C 
HETATM    7  C6  UNL     1      -4.061   1.914  12.479  1.00  0.00     0.179 C 
HETATM    8  C7  UNL     1      -4.900   2.423  13.628  1.00  0.00     0.200 C 
ENDROOT
BRANCH   8   9
HETATM    9  N1  UNL     1      -4.158   2.181  14.851  1.00  0.00    -0.240 N 
ATOM     10  H1  UNL     1      -3.599   2.910  15.292  1.00  0.00     0.197 HD
BRANCH   9  11
HETATM   11  N2  UNL     1      -4.238   1.050  15.328  1.00  0.00    -0.248 NA
BRANCH  11  12
HETATM   12  N3  UNL     1      -4.503   0.006  15.957  1.00  0.00    -0.261 N 
ATOM     13  H32 UNL     1      -4.888   0.558  16.725  1.00  0.00     0.193 HD
ATOM     14  H31 UNL     1      -4.637  -0.943  16.306  1.00  0.00     0.193 HD
ENDBRANCH  11  12
ENDBRANCH   9  11
ENDBRANCH   8   9
BRANCH   1  15
HETATM   15  O1  UNL     1      -6.396   4.103  14.254  1.00  0.00    -0.364 OA
HETATM   16  C1  UNL     1      -6.212   5.002  15.299  1.00  0.00     0.204 C 
ENDBRANCH   1  15
BRANCH   7  17
HETATM   17  O5  UNL     1      -2.736   2.348  12.567  1.00  0.00    -0.391 OA
ATOM     18  H5  UNL     1      -2.492   2.646  13.436  1.00  0.00     0.210 HD
ENDBRANCH   7  17
BRANCH   6  19
HETATM   19  O4  UNL     1      -4.382   1.077  10.280  1.00  0.00    -0.391 OA
ATOM     20  H4  UNL     1      -3.503   0.780  10.488  1.00  0.00     0.210 HD
ENDBRANCH   6  19
TORSDOF 6
ENDMDL
MODEL 2
REMARK VINA RESULT: -5.762432117      2.829      4.184
REMARK  6 active torsions:
REMARK  status: ('A' for Active; 'I' for Inactive)
REMARK    1  A    between atoms: O1_2  and  C2_3 
REMARK    2  A    between atoms: C5_8  and  O4_9 
REMARK    3  A    between atoms: C6_11  and  O5_12 
REMARK    4  A    between atoms: C7_14  and  N1_15 
REMARK    5  A    between atoms: N1_15  and  N2_17 
REMARK    6  A    between atoms: N2_17  and  N3_18 
ROOT
HETATM    1  C2  UNL     1      -2.452   2.073  11.244  1.00  0.00     0.289 C 
HETATM    2  O2  UNL     1      -2.934   3.187  11.921  1.00  0.00    -0.335 OA
HETATM    3  C3  UNL     1      -4.028   3.670  11.198  1.00  0.00     0.341 C 
HETATM    4  O3  UNL     1      -5.164   3.158  11.827  1.00  0.00    -0.364 OA
HETATM    5  C4  UNL     1      -4.886   3.106  13.185  1.00  0.00     0.204 C 
HETATM    6  C5  UNL     1      -4.262   1.831  13.635  1.00  0.00     0.173 C 
HETATM    7  C6  UNL     1      -4.144   0.781  12.580  1.00  0.00     0.179 C 
HETATM    8  C7  UNL     1      -2.805   0.779  11.882  1.00  0.00     0.200 C 
ENDROOT
BRANCH   8   9
HETATM    9  N1  UNL     1      -2.854  -0.238  10.848  1.00  0.00    -0.240 N 
ATOM     10  H1  UNL     1      -2.823   0.002   9.858  1.00  0.00     0.197 HD
BRANCH   9  11
HETATM   11  N2  UNL     1      -2.934  -1.405  11.229  1.00  0.00    -0.248 NA
BRANCH  11  12
HETATM   12  N3  UNL     1      -2.760  -2.571  11.638  1.00  0.00    -0.261 N 
ATOM     13  H32 UNL     1      -1.764  -2.505  11.424  1.00  0.00     0.193 HD
ATOM     14  H31 UNL     1      -2.824  -3.519  12.009  1.00  0.00     0.193 HD
ENDBRANCH  11  12
ENDBRANCH   9  11
ENDBRANCH   8   9
BRANCH   1  15
HETATM   15  O1  UNL     1      -1.064   2.160  11.166  1.00  0.00    -0.364 OA
HETATM   16  C1  UNL     1      -0.656   3.228  10.373  1.00  0.00     0.204 C 
ENDBRANCH   1  15
BRANCH   7  17
HETATM   17  O5  UNL     1      -5.208   0.783  11.673  1.00  0.00    -0.391 OA
ATOM     18  H5  UNL     1      -5.046   1.314  10.903  1.00  0.00     0.210 HD
ENDBRANCH   7  17
BRANCH   6  19
HETATM   19  O4  UNL     1      -5.036   1.339  14.710  1.00  0.00    -0.391 OA
ATOM     20  H4  UNL     1      -4.505   1.404  15.495  1.00  0.00     0.210 HD
ENDBRANCH   6  19
TORSDOF 6
ENDMDL
MODEL 3
REMARK VINA RESULT: -5.752858490      2.591      3.817
REMARK  6 active torsions:
REMARK  status: ('A' for Active; 'I' for Inactive)
REMARK    1  A    between atoms: O1_2  and  C2_3 
REMARK    2  A    between atoms: C5_8  and  O4_9 
REMARK    3  A    between atoms: C6_11  and  O5_12 
REMARK    4  A    between atoms: C7_14  and  N1_15 
REMARK    5  A    between atoms: N1_15  and  N2_17 
REMARK    6  A    between atoms: N2_17  and  N3_18 
ROOT
HETATM    1  C2  UNL     1      -4.269   1.696  13.352  1.00  0.00     0.289 C 
HETATM    2  O2  UNL     1      -3.457   0.700  12.820  1.00  0.00    -0.335 OA
HETATM    3  C3  UNL     1      -4.250  -0.068  11.965  1.00  0.00     0.341 C 
HETATM    4  O3  UNL     1      -4.008   0.413  10.676  1.00  0.00    -0.364 OA
HETATM    5  C4  UNL     1      -2.674   0.793  10.632  1.00  0.00     0.204 C 
HETATM    6  C5  UNL     1      -2.426   2.207  11.030  1.00  0.00     0.173 C 
HETATM    7  C6  UNL     1      -3.655   3.010  11.299  1.00  0.00     0.179 C 
HETATM    8  C7  UNL     1      -4.047   3.039  12.757  1.00  0.00     0.200 C 
ENDROOT
BRANCH   8   9
HETATM    9  N1  UNL     1      -5.282   3.793  12.863  1.00  0.00    -0.240 N 
ATOM     10  H1  UNL     1      -6.160   3.349  13.133  1.00  0.00     0.197 HD
BRANCH   9  11
HETATM   11  N2  UNL     1      -5.216   4.994  12.611  1.00  0.00    -0.248 NA
BRANCH  11  12
HETATM   12  N3  UNL     1      -5.266   6.147  12.137  1.00  0.00    -0.261 N 
ATOM     13  H32 UNL     1      -4.304   6.318  12.432  1.00  0.00     0.193 HD
ATOM     14  H31 UNL     1      -5.502   7.037  11.697  1.00  0.00     0.193 HD
ENDBRANCH  11  12
ENDBRANCH   9  11
ENDBRANCH   8   9
BRANCH   1  15
HETATM   15  O1  UNL     1      -4.040   1.779  14.724  1.00  0.00    -0.364 OA
HETATM   16  C1  UNL     1      -4.663   0.746  15.416  1.00  0.00     0.204 C 
ENDBRANCH   1  15
BRANCH   7  17
HETATM   17  O5  UNL     1      -4.732   2.670  10.475  1.00  0.00    -0.391 OA
ATOM     18  H5  UNL     1      -5.569   2.982  10.798  1.00  0.00     0.210 HD
ENDBRANCH   7  17
BRANCH   6  19
HETATM   19  O4  UNL     1      -1.682   2.813   9.993  1.00  0.00    -0.391 OA
ATOM     20  H4  UNL     1      -1.512   3.711  10.253  1.00  0.00     0.210 HD
ENDBRANCH   6  19
TORSDOF 6
ENDMDL
MODEL 4
REMARK VINA RESULT: -5.564446764      2.302      3.169
REMARK  6 active torsions:
REMARK  status: ('A' for Active; 'I' for Inactive)
REMARK    1  A    between atoms: O1_2  and  C2_3 
REMARK    2  A    between atoms: C5_8  and  O4_9 
REMARK    3  A    between atoms: C6_11  and  O5_12 
REMARK    4  A    between atoms: C7_14  and  N1_15 
REMARK    5  A    between atoms: N1_15  and  N2_17 
REMARK    6  A    between atoms: N2_17  and  N3_18 
ROOT
HETATM    1  C2  UNL     1      -4.117   3.716  11.188  1.00  0.00     0.289 C 
HETATM    2  O2  UNL     1      -3.394   2.708  10.562  1.00  0.00    -0.335 OA
HETATM    3  C3  UNL     1      -2.080   2.789  11.030  1.00  0.00     0.341 C 
HETATM    4  O3  UNL     1      -1.972   1.836  12.045  1.00  0.00    -0.364 OA
HETATM    5  C4  UNL     1      -2.774   0.765  11.681  1.00  0.00     0.204 C 
HETATM    6  C5  UNL     1      -4.184   0.867  12.152  1.00  0.00     0.173 C 
HETATM    7  C6  UNL     1      -4.471   2.041  13.028  1.00  0.00     0.179 C 
HETATM    8  C7  UNL     1      -5.008   3.236  12.276  1.00  0.00     0.200 C 
ENDROOT
BRANCH   8   9
HETATM    9  N1  UNL     1      -5.179   4.313  13.232  1.00  0.00    -0.240 N 
ATOM     10  H1  UNL     1      -4.928   5.275  13.006  1.00  0.00     0.197 HD
BRANCH   9  11
HETATM   11  N2  UNL     1      -5.642   4.006  14.329  1.00  0.00    -0.248 NA
BRANCH  11  12
HETATM   12  N3  UNL     1      -5.910   3.821  15.533  1.00  0.00    -0.261 N 
ATOM     13  H32 UNL     1      -6.419   4.705  15.563  1.00  0.00     0.193 HD
ATOM     14  H31 UNL     1      -6.021   3.493  16.493  1.00  0.00     0.193 HD
ENDBRANCH  11  12
ENDBRANCH   9  11
ENDBRANCH   8   9
BRANCH   1  15
HETATM   15  O1  UNL     1      -4.899   4.368  10.236  1.00  0.00    -0.364 OA
HETATM   16  C1  UNL     1      -4.353   5.593   9.869  1.00  0.00     0.204 C 
ENDBRANCH   1  15
BRANCH   7  17
HETATM   17  O5  UNL     1      -3.405   2.384  13.864  1.00  0.00    -0.391 OA
ATOM     18  H5  UNL     1      -3.189   1.711  14.498  1.00  0.00     0.210 HD
ENDBRANCH   7  17
BRANCH   6  19
HETATM   19  O4  UNL     1      -4.485  -0.327  12.844  1.00  0.00    -0.391 OA
ATOM     20  H4  UNL     1      -4.967  -0.087  13.627  1.00  0.00     0.210 HD
ENDBRANCH   6  19
TORSDOF 6
ENDMDL
MODEL 5
REMARK VINA RESULT: -5.554878828      2.783      3.907
REMARK  6 active torsions:
REMARK  status: ('A' for Active; 'I' for Inactive)
REMARK    1  A    between atoms: O1_2  and  C2_3 
REMARK    2  A    between atoms: C5_8  and  O4_9 
REMARK    3  A    between atoms: C6_11  and  O5_12 
REMARK    4  A    between atoms: C7_14  and  N1_15 
REMARK    5  A    between atoms: N1_15  and  N2_17 
REMARK    6  A    between atoms: N2_17  and  N3_18 
ROOT
HETATM    1  C2  UNL     1      -2.935   3.802  10.458  1.00  0.00     0.289 C 
HETATM    2  O2  UNL     1      -2.165   2.705  10.091  1.00  0.00    -0.335 OA
HETATM    3  C3  UNL     1      -1.069   2.658  10.956  1.00  0.00     0.341 C 
HETATM    4  O3  UNL     1      -1.397   1.730  11.946  1.00  0.00    -0.364 OA
HETATM    5  C4  UNL     1      -2.154   0.740  11.336  1.00  0.00     0.204 C 
HETATM    6  C5  UNL     1      -3.620   1.006  11.330  1.00  0.00     0.173 C 
HETATM    7  C6  UNL     1      -4.041   2.228  12.076  1.00  0.00     0.179 C 
HETATM    8  C7  UNL     1      -4.174   3.451  11.199  1.00  0.00     0.200 C 
ENDROOT
BRANCH   8   9
HETATM    9  N1  UNL     1      -4.522   4.567  12.058  1.00  0.00    -0.240 N 
ATOM     10  H1  UNL     1      -4.086   5.483  11.950  1.00  0.00     0.197 HD
BRANCH   9  11
HETATM   11  N2  UNL     1      -5.370   4.352  12.922  1.00  0.00    -0.248 NA
BRANCH  11  12
HETATM   12  N3  UNL     1      -6.048   4.216  13.960  1.00  0.00    -0.261 N 
ATOM     13  H32 UNL     1      -6.154   3.219  13.769  1.00  0.00     0.193 HD
ATOM     14  H31 UNL     1      -6.570   4.310  14.831  1.00  0.00     0.193 HD
ENDBRANCH  11  12
ENDBRANCH   9  11
ENDBRANCH   8   9
BRANCH   1  15
HETATM   15  O1  UNL     1      -3.294   4.506   9.311  1.00  0.00    -0.364 OA
HETATM   16  C1  UNL     1      -2.500   5.632   9.124  1.00  0.00     0.204 C 
ENDBRANCH   1  15
BRANCH   7  17
HETATM   17  O5  UNL     1      -3.267   2.479  13.212  1.00  0.00    -0.391 OA
ATOM     18  H5  UNL     1      -3.567   2.015  13.984  1.00  0.00     0.210 HD
ENDBRANCH   7  17
BRANCH   6  19
HETATM   19  O4  UNL     1      -4.257  -0.130  11.880  1.00  0.00    -0.391 OA
ATOM     20  H4  UNL     1      -4.857   0.179  12.550  1.00  0.00     0.210 HD
ENDBRANCH   6  19
TORSDOF 6
ENDMDL
