MODEL 1
REMARK VINA RESULT: -7.040784547      0.000      0.000
REMARK  17 active torsions:
REMARK  status: ('A' for Active; 'I' for Inactive)
REMARK    1  A    between atoms: C2_2  and  O1_3 
REMARK    2  A    between atoms: O1_3  and  C3_4 
REMARK    3  A    between atoms: C3_4  and  C4_5 
REMARK    4  A    between atoms: C4_5  and  O2_6 
REMARK    5  A    between atoms: O2_6  and  C5_7 
REMARK    6  A    between atoms: C5_7  and  N1_8 
REMARK    7  A    between atoms: C8_11  and  C9_12 
REMARK    8  A    between atoms: C9_12  and  C10_13 
REMARK    9  A    between atoms: C10_13  and  C11_14 
REMARK   10  A    between atoms: C11_14  and  C12_15 
REMARK   11  A    between atoms: C12_15  and  N2_16 
REMARK       I    between atoms: C13_18  and  N4_20 
REMARK   12  A    between atoms: N4_20  and  C14_22 
REMARK   13  A    between atoms: C14_22  and  C15_23 
REMARK   14  A    between atoms: C15_23  and  C16_24 
REMARK   15  A    between atoms: C16_24  and  C17_25 
REMARK   16  A    between atoms: C17_25  and  N5_26 
REMARK   17  A    between atoms: C19_31  and  O3_32 
ROOT
HETATM    1  C10 UNL     1      40.276  18.537  10.636  1.00  0.00     0.006 C 
ENDROOT
BRANCH   1   2
HETATM    2  C9  UNL     1      39.083  19.371  10.949  1.00  0.00     0.039 C 
BRANCH   2   3
HETATM    3  C8  UNL     1      37.860  18.936  10.240  1.00  0.00    -0.053 A 
HETATM    4  C7  UNL     1      37.092  17.935  10.768  1.00  0.00     0.024 A 
HETATM    5  C6  UNL     1      35.923  17.492  10.151  1.00  0.00     0.096 A 
HETATM    6  N1  UNL     1      35.532  18.057   9.008  1.00  0.00    -0.316 N 
HETATM    7  C19 UNL     1      36.276  19.042   8.475  1.00  0.00     0.144 A 
HETATM    8  C18 UNL     1      37.432  19.501   9.058  1.00  0.00     0.063 A 
BRANCH   6   9
HETATM    9  C5  UNL     1      34.304  17.663   8.307  1.00  0.00     0.300 C 
BRANCH   9  10
HETATM   10  O2  UNL     1      33.408  18.680   8.381  1.00  0.00    -0.370 OA
BRANCH  10  11
HETATM   11  C4  UNL     1      32.264  18.514   9.079  1.00  0.00     0.196 C 
BRANCH  11  12
HETATM   12  C3  UNL     1      31.535  19.745   9.521  1.00  0.00     0.193 C 
BRANCH  12  13
HETATM   13  O1  UNL     1      30.248  19.552   9.856  1.00  0.00    -0.389 OA
BRANCH  13  14
HETATM   14  C2  UNL     1      29.653  18.346   9.776  1.00  0.00     0.163 C 
HETATM   15  C1  UNL     1      28.450  18.446   8.811  1.00  0.00     0.033 C 
ENDBRANCH  13  14
ENDBRANCH  12  13
ENDBRANCH  11  12
ENDBRANCH  10  11
ENDBRANCH   9  10
ENDBRANCH   6   9
BRANCH   7  16
HETATM   16  O3  UNL     1      35.844  19.623   7.269  1.00  0.00    -0.346 OA
ATOM     17  H3  UNL     1      36.498  20.010   6.698  1.00  0.00     0.219 HD
ENDBRANCH   7  16
ENDBRANCH   2   3
ENDBRANCH   1   2
BRANCH   1  18
HETATM   18  C11 UNL     1      40.711  17.557  11.648  1.00  0.00     0.020 C 
BRANCH  18  19
HETATM   19  C12 UNL     1      41.916  17.907  12.459  1.00  0.00     0.122 C 
BRANCH  19  20
HETATM   20  N2  UNL     1      41.664  19.064  13.288  1.00  0.00    -0.365 N 
HETATM   21  C13 UNL     1      42.435  20.065  13.447  1.00  0.00     0.183 C 
HETATM   22  N3  UNL     1      43.682  20.207  12.830  1.00  0.00    -0.064 NA
HETATM   23  N4  UNL     1      41.979  21.111  14.323  1.00  0.00    -0.365 N 
ATOM     24  H4  UNL     1      42.636  21.652  14.885  1.00  0.00     0.162 HD
ATOM     25  H2  UNL     1      40.780  19.080  13.796  1.00  0.00     0.162 HD
BRANCH  23  26
HETATM   26  C14 UNL     1      40.549  21.371  14.380  1.00  0.00     0.122 C 
BRANCH  26  27
HETATM   27  C15 UNL     1      40.169  22.387  13.327  1.00  0.00     0.021 C 
BRANCH  27  28
HETATM   28  C16 UNL     1      39.222  23.400  13.913  1.00  0.00     0.029 C 
BRANCH  28  29
HETATM   29  C17 UNL     1      39.049  23.236  15.388  1.00  0.00     0.229 C 
BRANCH  29  30
HETATM   30  N5  UNL     1      37.609  23.199  15.700  1.00  0.00    -0.079 N 
ATOM     31  H53 UNL     1      37.355  23.857  16.438  1.00  0.00     0.274 HD
ATOM     32  H52 UNL     1      37.039  23.594  14.953  1.00  0.00     0.274 HD
ATOM     33  H51 UNL     1      37.342  22.241  15.926  1.00  0.00     0.274 HD
ENDBRANCH  29  30
ENDBRANCH  28  29
ENDBRANCH  27  28
ENDBRANCH  26  27
ENDBRANCH  23  26
ENDBRANCH  19  20
ENDBRANCH  18  19
ENDBRANCH   1  18
TORSDOF 17
ENDMDL
MODEL 2
REMARK VINA RESULT: -6.710481354      2.004      2.856
REMARK  17 active torsions:
REMARK  status: ('A' for Active; 'I' for Inactive)
REMARK    1  A    between atoms: C2_2  and  O1_3 
REMARK    2  A    between atoms: O1_3  and  C3_4 
REMARK    3  A    between atoms: C3_4  and  C4_5 
REMARK    4  A    between atoms: C4_5  and  O2_6 
REMARK    5  A    between atoms: O2_6  and  C5_7 
REMARK    6  A    between atoms: C5_7  and  N1_8 
REMARK    7  A    between atoms: C8_11  and  C9_12 
REMARK    8  A    between atoms: C9_12  and  C10_13 
REMARK    9  A    between atoms: C10_13  and  C11_14 
REMARK   10  A    between atoms: C11_14  and  C12_15 
REMARK   11  A    between atoms: C12_15  and  N2_16 
REMARK       I    between atoms: C13_18  and  N4_20 
REMARK   12  A    between atoms: N4_20  and  C14_22 
REMARK   13  A    between atoms: C14_22  and  C15_23 
REMARK   14  A    between atoms: C15_23  and  C16_24 
REMARK   15  A    between atoms: C16_24  and  C17_25 
REMARK   16  A    between atoms: C17_25  and  N5_26 
REMARK   17  A    between atoms: C19_31  and  O3_32 
ROOT
HETATM    1  C10 UNL     1      41.219  18.321  13.227  1.00  0.00     0.006 C 
ENDROOT
BRANCH   1   2
HETATM    2  C9  UNL     1      41.100  18.630  11.776  1.00  0.00     0.039 C 
BRANCH   2   3
HETATM    3  C8  UNL     1      39.716  18.524  11.265  1.00  0.00    -0.053 A 
HETATM    4  C7  UNL     1      38.906  17.517  11.709  1.00  0.00     0.024 A 
HETATM    5  C6  UNL     1      37.590  17.375  11.272  1.00  0.00     0.096 A 
HETATM    6  N1  UNL     1      37.094  18.246  10.392  1.00  0.00    -0.316 N 
HETATM    7  C19 UNL     1      37.878  19.242   9.945  1.00  0.00     0.144 A 
HETATM    8  C18 UNL     1      39.178  19.410  10.356  1.00  0.00     0.063 A 
BRANCH   6   9
HETATM    9  C5  UNL     1      35.714  18.178   9.899  1.00  0.00     0.300 C 
BRANCH   9  10
HETATM   10  O2  UNL     1      34.916  18.908  10.719  1.00  0.00    -0.370 OA
BRANCH  10  11
HETATM   11  C4  UNL     1      33.952  19.693  10.191  1.00  0.00     0.196 C 
BRANCH  11  12
HETATM   12  C3  UNL     1      32.527  19.298  10.430  1.00  0.00     0.193 C 
BRANCH  12  13
HETATM   13  O1  UNL     1      32.227  18.032  10.098  1.00  0.00    -0.389 OA
BRANCH  13  14
HETATM   14  C2  UNL     1      31.022  17.678   9.609  1.00  0.00     0.163 C 
HETATM   15  C1  UNL     1      31.006  17.933   8.085  1.00  0.00     0.033 C 
ENDBRANCH  13  14
ENDBRANCH  12  13
ENDBRANCH  11  12
ENDBRANCH  10  11
ENDBRANCH   9  10
ENDBRANCH   6   9
BRANCH   7  16
HETATM   16  O3  UNL     1      37.335  20.149   9.016  1.00  0.00    -0.346 OA
ATOM     17  H3  UNL     1      37.761  20.992   8.910  1.00  0.00     0.219 HD
ENDBRANCH   7  16
ENDBRANCH   2   3
ENDBRANCH   1   2
BRANCH   1  18
HETATM   18  C11 UNL     1      40.875  19.388  14.185  1.00  0.00     0.020 C 
BRANCH  18  19
HETATM   19  C12 UNL     1      41.563  20.702  14.016  1.00  0.00     0.122 C 
BRANCH  19  20
HETATM   20  N2  UNL     1      40.667  21.797  14.307  1.00  0.00    -0.365 N 
HETATM   21  C13 UNL     1      40.068  22.534  13.457  1.00  0.00     0.183 C 
HETATM   22  N3  UNL     1      40.187  22.396  12.071  1.00  0.00    -0.064 NA
HETATM   23  N4  UNL     1      39.216  23.571  13.974  1.00  0.00    -0.365 N 
ATOM     24  H4  UNL     1      39.105  24.457  13.480  1.00  0.00     0.162 HD
ATOM     25  H2  UNL     1      40.496  22.001  15.292  1.00  0.00     0.162 HD
BRANCH  23  26
HETATM   26  C14 UNL     1      38.517  23.314  15.224  1.00  0.00     0.122 C 
BRANCH  26  27
HETATM   27  C15 UNL     1      37.562  24.449  15.521  1.00  0.00     0.021 C 
BRANCH  27  28
HETATM   28  C16 UNL     1      36.148  23.934  15.535  1.00  0.00     0.029 C 
BRANCH  28  29
HETATM   29  C17 UNL     1      35.399  24.281  14.290  1.00  0.00     0.229 C 
BRANCH  29  30
HETATM   30  N5  UNL     1      35.536  25.726  14.035  1.00  0.00    -0.079 N 
ATOM     31  H53 UNL     1      35.709  26.257  14.889  1.00  0.00     0.274 HD
ATOM     32  H52 UNL     1      36.403  25.954  13.547  1.00  0.00     0.274 HD
ATOM     33  H51 UNL     1      34.711  26.055  13.533  1.00  0.00     0.274 HD
ENDBRANCH  29  30
ENDBRANCH  28  29
ENDBRANCH  27  28
ENDBRANCH  26  27
ENDBRANCH  23  26
ENDBRANCH  19  20
ENDBRANCH  18  19
ENDBRANCH   1  18
TORSDOF 17
ENDMDL
MODEL 3
REMARK VINA RESULT: -6.689080277      1.744      2.369
REMARK  17 active torsions:
REMARK  status: ('A' for Active; 'I' for Inactive)
REMARK    1  A    between atoms: C2_2  and  O1_3 
REMARK    2  A    between atoms: O1_3  and  C3_4 
REMARK    3  A    between atoms: C3_4  and  C4_5 
REMARK    4  A    between atoms: C4_5  and  O2_6 
REMARK    5  A    between atoms: O2_6  and  C5_7 
REMARK    6  A    between atoms: C5_7  and  N1_8 
REMARK    7  A    between atoms: C8_11  and  C9_12 
REMARK    8  A    between atoms: C9_12  and  C10_13 
REMARK    9  A    between atoms: C10_13  and  C11_14 
REMARK   10  A    between atoms: C11_14  and  C12_15 
REMARK   11  A    between atoms: C12_15  and  N2_16 
REMARK       I    between atoms: C13_18  and  N4_20 
REMARK   12  A    between atoms: N4_20  and  C14_22 
REMARK   13  A    between atoms: C14_22  and  C15_23 
REMARK   14  A    between atoms: C15_23  and  C16_24 
REMARK   15  A    between atoms: C16_24  and  C17_25 
REMARK   16  A    between atoms: C17_25  and  N5_26 
REMARK   17  A    between atoms: C19_31  and  O3_32 
ROOT
HETATM    1  C10 UNL     1      40.079  18.973  11.820  1.00  0.00     0.006 C 
ENDROOT
BRANCH   1   2
HETATM    2  C9  UNL     1      39.417  19.824  10.795  1.00  0.00     0.039 C 
BRANCH   2   3
HETATM    3  C8  UNL     1      38.199  19.213  10.221  1.00  0.00    -0.053 A 
HETATM    4  C7  UNL     1      37.594  18.174  10.871  1.00  0.00     0.024 A 
HETATM    5  C6  UNL     1      36.436  17.567  10.385  1.00  0.00     0.096 A 
HETATM    6  N1  UNL     1      35.894  18.007   9.249  1.00  0.00    -0.316 N 
HETATM    7  C19 UNL     1      36.478  19.028   8.597  1.00  0.00     0.144 A 
HETATM    8  C18 UNL     1      37.617  19.647   9.050  1.00  0.00     0.063 A 
BRANCH   6   9
HETATM    9  C5  UNL     1      34.667  17.437   8.682  1.00  0.00     0.300 C 
BRANCH   9  10
HETATM   10  O2  UNL     1      33.605  18.173   9.099  1.00  0.00    -0.370 OA
BRANCH  10  11
HETATM   11  C4  UNL     1      32.499  18.250   8.327  1.00  0.00     0.196 C 
BRANCH  11  12
HETATM   12  C3  UNL     1      31.298  18.937   8.900  1.00  0.00     0.193 C 
BRANCH  12  13
HETATM   13  O1  UNL     1      30.341  18.114   9.359  1.00  0.00    -0.389 OA
BRANCH  13  14
HETATM   14  C2  UNL     1      29.063  18.509   9.520  1.00  0.00     0.163 C 
HETATM   15  C1  UNL     1      28.238  18.042   8.300  1.00  0.00     0.033 C 
ENDBRANCH  13  14
ENDBRANCH  12  13
ENDBRANCH  11  12
ENDBRANCH  10  11
ENDBRANCH   9  10
ENDBRANCH   6   9
BRANCH   7  16
HETATM   16  O3  UNL     1      35.888  19.476   7.401  1.00  0.00    -0.346 OA
ATOM     17  H3  UNL     1      34.944  19.582   7.379  1.00  0.00     0.219 HD
ENDBRANCH   7  16
ENDBRANCH   2   3
ENDBRANCH   1   2
BRANCH   1  18
HETATM   18  C11 UNL     1      40.118  19.475  13.206  1.00  0.00     0.020 C 
BRANCH  18  19
HETATM   19  C12 UNL     1      41.052  20.604  13.494  1.00  0.00     0.122 C 
BRANCH  19  20
HETATM   20  N2  UNL     1      40.341  21.736  14.044  1.00  0.00    -0.365 N 
HETATM   21  C13 UNL     1      40.111  22.845  13.460  1.00  0.00     0.183 C 
HETATM   22  N3  UNL     1      40.522  23.151  12.159  1.00  0.00    -0.064 NA
HETATM   23  N4  UNL     1      39.379  23.837  14.201  1.00  0.00    -0.365 N 
ATOM     24  H4  UNL     1      39.560  24.832  14.070  1.00  0.00     0.162 HD
ATOM     25  H2  UNL     1      39.988  21.637  14.996  1.00  0.00     0.162 HD
BRANCH  23  26
HETATM   26  C14 UNL     1      38.372  23.373  15.143  1.00  0.00     0.122 C 
BRANCH  26  27
HETATM   27  C15 UNL     1      37.344  24.458  15.371  1.00  0.00     0.021 C 
BRANCH  27  28
HETATM   28  C16 UNL     1      36.011  23.838  15.694  1.00  0.00     0.029 C 
BRANCH  28  29
HETATM   29  C17 UNL     1      34.989  24.093  14.635  1.00  0.00     0.229 C 
BRANCH  29  30
HETATM   30  N5  UNL     1      35.178  25.455  14.104  1.00  0.00    -0.079 N 
ATOM     31  H53 UNL     1      35.404  26.129  14.835  1.00  0.00     0.274 HD
ATOM     32  H52 UNL     1      36.036  25.543  13.559  1.00  0.00     0.274 HD
ATOM     33  H51 UNL     1      34.351  25.722  13.571  1.00  0.00     0.274 HD
ENDBRANCH  29  30
ENDBRANCH  28  29
ENDBRANCH  27  28
ENDBRANCH  26  27
ENDBRANCH  23  26
ENDBRANCH  19  20
ENDBRANCH  18  19
ENDBRANCH   1  18
TORSDOF 17
ENDMDL
MODEL 4
REMARK VINA RESULT: -6.668674302      5.847     10.681
REMARK  17 active torsions:
REMARK  status: ('A' for Active; 'I' for Inactive)
REMARK    1  A    between atoms: C2_2  and  O1_3 
REMARK    2  A    between atoms: O1_3  and  C3_4 
REMARK    3  A    between atoms: C3_4  and  C4_5 
REMARK    4  A    between atoms: C4_5  and  O2_6 
REMARK    5  A    between atoms: O2_6  and  C5_7 
REMARK    6  A    between atoms: C5_7  and  N1_8 
REMARK    7  A    between atoms: C8_11  and  C9_12 
REMARK    8  A    between atoms: C9_12  and  C10_13 
REMARK    9  A    between atoms: C10_13  and  C11_14 
REMARK   10  A    between atoms: C11_14  and  C12_15 
REMARK   11  A    between atoms: C12_15  and  N2_16 
REMARK       I    between atoms: C13_18  and  N4_20 
REMARK   12  A    between atoms: N4_20  and  C14_22 
REMARK   13  A    between atoms: C14_22  and  C15_23 
REMARK   14  A    between atoms: C15_23  and  C16_24 
REMARK   15  A    between atoms: C16_24  and  C17_25 
REMARK   16  A    between atoms: C17_25  and  N5_26 
REMARK   17  A    between atoms: C19_31  and  O3_32 
ROOT
HETATM    1  C10 UNL     1      29.755  19.704  10.686  1.00  0.00     0.006 C 
ENDROOT
BRANCH   1   2
HETATM    2  C9  UNL     1      29.974  18.944   9.425  1.00  0.00     0.039 C 
BRANCH   2   3
HETATM    3  C8  UNL     1      31.402  18.713   9.120  1.00  0.00    -0.053 A 
HETATM    4  C7  UNL     1      31.897  17.439   9.126  1.00  0.00     0.024 A 
HETATM    5  C6  UNL     1      33.232  17.160   8.834  1.00  0.00     0.096 A 
HETATM    6  N1  UNL     1      34.060  18.161   8.536  1.00  0.00    -0.316 N 
HETATM    7  C19 UNL     1      33.589  19.420   8.526  1.00  0.00     0.144 A 
HETATM    8  C18 UNL     1      32.280  19.728   8.809  1.00  0.00     0.063 A 
BRANCH   6   9
HETATM    9  C5  UNL     1      35.472  17.949   8.196  1.00  0.00     0.300 C 
BRANCH   9  10
HETATM   10  O2  UNL     1      36.245  18.465   9.186  1.00  0.00    -0.370 OA
BRANCH  10  11
HETATM   11  C4  UNL     1      36.492  17.733  10.294  1.00  0.00     0.196 C 
BRANCH  11  12
HETATM   12  C3  UNL     1      37.757  18.013  11.045  1.00  0.00     0.193 C 
BRANCH  12  13
HETATM   13  O1  UNL     1      38.604  18.857  10.432  1.00  0.00    -0.389 OA
BRANCH  13  14
HETATM   14  C2  UNL     1      39.941  18.770  10.574  1.00  0.00     0.163 C 
HETATM   15  C1  UNL     1      40.269  17.568  11.488  1.00  0.00     0.033 C 
ENDBRANCH  13  14
ENDBRANCH  12  13
ENDBRANCH  11  12
ENDBRANCH  10  11
ENDBRANCH   9  10
ENDBRANCH   6   9
BRANCH   7  16
HETATM   16  O3  UNL     1      34.481  20.461   8.209  1.00  0.00    -0.346 OA
ATOM     17  H3  UNL     1      35.070  20.338   7.474  1.00  0.00     0.219 HD
ENDBRANCH   7  16
ENDBRANCH   2   3
ENDBRANCH   1   2
BRANCH   1  18
HETATM   18  C11 UNL     1      28.450  20.367  10.869  1.00  0.00     0.020 C 
BRANCH  18  19
HETATM   19  C12 UNL     1      27.999  20.605  12.273  1.00  0.00     0.122 C 
BRANCH  19  20
HETATM   20  N2  UNL     1      27.442  21.930  12.420  1.00  0.00    -0.365 N 
HETATM   21  C13 UNL     1      26.273  22.220  12.834  1.00  0.00     0.183 C 
HETATM   22  N3  UNL     1      25.316  21.277  13.220  1.00  0.00    -0.064 NA
HETATM   23  N4  UNL     1      25.930  23.616  12.902  1.00  0.00    -0.365 N 
ATOM     24  H4  UNL     1      24.975  23.933  12.733  1.00  0.00     0.162 HD
ATOM     25  H2  UNL     1      28.047  22.711  12.168  1.00  0.00     0.162 HD
BRANCH  23  26
HETATM   26  C14 UNL     1      26.990  24.559  13.222  1.00  0.00     0.122 C 
BRANCH  26  27
HETATM   27  C15 UNL     1      26.611  25.940  12.735  1.00  0.00     0.021 C 
BRANCH  27  28
HETATM   28  C16 UNL     1      27.069  26.123  11.313  1.00  0.00     0.029 C 
BRANCH  28  29
HETATM   29  C17 UNL     1      27.094  27.558  10.899  1.00  0.00     0.229 C 
BRANCH  29  30
HETATM   30  N5  UNL     1      25.797  28.175  11.228  1.00  0.00    -0.079 N 
ATOM     31  H53 UNL     1      25.641  29.046  10.721  1.00  0.00     0.274 HD
ATOM     32  H52 UNL     1      25.009  27.648  10.852  1.00  0.00     0.274 HD
ATOM     33  H51 UNL     1      25.734  28.298  12.239  1.00  0.00     0.274 HD
ENDBRANCH  29  30
ENDBRANCH  28  29
ENDBRANCH  27  28
ENDBRANCH  26  27
ENDBRANCH  23  26
ENDBRANCH  19  20
ENDBRANCH  18  19
ENDBRANCH   1  18
TORSDOF 17
ENDMDL
MODEL 5
REMARK VINA RESULT: -6.662580766      5.775     10.544
REMARK  17 active torsions:
REMARK  status: ('A' for Active; 'I' for Inactive)
REMARK    1  A    between atoms: C2_2  and  O1_3 
REMARK    2  A    between atoms: O1_3  and  C3_4 
REMARK    3  A    between atoms: C3_4  and  C4_5 
REMARK    4  A    between atoms: C4_5  and  O2_6 
REMARK    5  A    between atoms: O2_6  and  C5_7 
REMARK    6  A    between atoms: C5_7  and  N1_8 
REMARK    7  A    between atoms: C8_11  and  C9_12 
REMARK    8  A    between atoms: C9_12  and  C10_13 
REMARK    9  A    between atoms: C10_13  and  C11_14 
REMARK   10  A    between atoms: C11_14  and  C12_15 
REMARK   11  A    between atoms: C12_15  and  N2_16 
REMARK       I    between atoms: C13_18  and  N4_20 
REMARK   12  A    between atoms: N4_20  and  C14_22 
REMARK   13  A    between atoms: C14_22  and  C15_23 
REMARK   14  A    between atoms: C15_23  and  C16_24 
REMARK   15  A    between atoms: C16_24  and  C17_25 
REMARK   16  A    between atoms: C17_25  and  N5_26 
REMARK   17  A    between atoms: C19_31  and  O3_32 
ROOT
HETATM    1  C10 UNL     1      29.174  18.699  10.303  1.00  0.00     0.006 C 
ENDROOT
BRANCH   1   2
HETATM    2  C9  UNL     1      30.138  17.837  11.040  1.00  0.00     0.039 C 
BRANCH   2   3
HETATM    3  C8  UNL     1      31.490  17.821  10.440  1.00  0.00    -0.053 A 
HETATM    4  C7  UNL     1      31.628  17.689   9.086  1.00  0.00     0.024 A 
HETATM    5  C6  UNL     1      32.875  17.681   8.464  1.00  0.00     0.096 A 
HETATM    6  N1  UNL     1      33.977  17.805   9.205  1.00  0.00    -0.316 N 
HETATM    7  C19 UNL     1      33.859  17.935  10.538  1.00  0.00     0.144 A 
HETATM    8  C18 UNL     1      32.645  17.948  11.181  1.00  0.00     0.063 A 
BRANCH   6   9
HETATM    9  C5  UNL     1      35.325  17.827   8.626  1.00  0.00     0.300 C 
BRANCH   9  10
HETATM   10  O2  UNL     1      35.697  19.116   8.421  1.00  0.00    -0.370 OA
BRANCH  10  11
HETATM   11  C4  UNL     1      37.003  19.453   8.476  1.00  0.00     0.196 C 
BRANCH  11  12
HETATM   12  C3  UNL     1      37.677  19.406   9.813  1.00  0.00     0.193 C 
BRANCH  12  13
HETATM   13  O1  UNL     1      39.016  19.313   9.769  1.00  0.00    -0.389 OA
BRANCH  13  14
HETATM   14  C2  UNL     1      39.735  18.734  10.751  1.00  0.00     0.163 C 
HETATM   15  C1  UNL     1      38.825  17.752  11.523  1.00  0.00     0.033 C 
ENDBRANCH  13  14
ENDBRANCH  12  13
ENDBRANCH  11  12
ENDBRANCH  10  11
ENDBRANCH   9  10
ENDBRANCH   6   9
BRANCH   7  16
HETATM   16  O3  UNL     1      35.035  18.065  11.300  1.00  0.00    -0.346 OA
ATOM     17  H3  UNL     1      35.153  17.485  12.043  1.00  0.00     0.219 HD
ENDBRANCH   7  16
ENDBRANCH   2   3
ENDBRANCH   1   2
BRANCH   1  18
HETATM   18  C11 UNL     1      29.166  20.140  10.615  1.00  0.00     0.020 C 
BRANCH  18  19
HETATM   19  C12 UNL     1      28.153  20.616  11.604  1.00  0.00     0.122 C 
BRANCH  19  20
HETATM   20  N2  UNL     1      27.892  22.027  11.439  1.00  0.00    -0.365 N 
HETATM   21  C13 UNL     1      26.841  22.652  11.798  1.00  0.00     0.183 C 
HETATM   22  N3  UNL     1      25.744  22.054  12.426  1.00  0.00    -0.064 NA
HETATM   23  N4  UNL     1      26.797  24.065  11.535  1.00  0.00    -0.365 N 
ATOM     24  H4  UNL     1      25.917  24.533  11.317  1.00  0.00     0.162 HD
ATOM     25  H2  UNL     1      28.623  22.579  10.989  1.00  0.00     0.162 HD
BRANCH  23  26
HETATM   26  C14 UNL     1      28.049  24.805  11.589  1.00  0.00     0.122 C 
BRANCH  26  27
HETATM   27  C15 UNL     1      27.822  26.150  12.242  1.00  0.00     0.021 C 
BRANCH  27  28
HETATM   28  C16 UNL     1      26.509  26.725  11.784  1.00  0.00     0.029 C 
BRANCH  28  29
HETATM   29  C17 UNL     1      26.678  27.985  10.999  1.00  0.00     0.229 C 
BRANCH  29  30
HETATM   30  N5  UNL     1      25.399  28.716  10.986  1.00  0.00    -0.079 N 
ATOM     31  H53 UNL     1      24.676  28.246  11.531  1.00  0.00     0.274 HD
ATOM     32  H52 UNL     1      25.441  29.583  11.522  1.00  0.00     0.274 HD
ATOM     33  H51 UNL     1      25.115  28.873  10.018  1.00  0.00     0.274 HD
ENDBRANCH  29  30
ENDBRANCH  28  29
ENDBRANCH  27  28
ENDBRANCH  26  27
ENDBRANCH  23  26
ENDBRANCH  19  20
ENDBRANCH  18  19
ENDBRANCH   1  18
TORSDOF 17
ENDMDL
