MODEL 1
REMARK VINA RESULT: -7.305669908      0.000      0.000
REMARK  16 active torsions:
REMARK  status: ('A' for Active; 'I' for Inactive)
REMARK    1  A    between atoms: N1_2  and  C2_3 
REMARK       I    between atoms: N1_2  and  C12_22 
REMARK    2  A    between atoms: C2_3  and  C3_4 
REMARK    3  A    between atoms: C3_4  and  C4_5 
REMARK    4  A    between atoms: C4_5  and  C5_6 
REMARK    5  A    between atoms: C5_6  and  N2_7 
REMARK    6  A    between atoms: N2_7  and  C6_8 
REMARK    7  A    between atoms: N2_7  and  C9_15 
REMARK    8  A    between atoms: C6_8  and  C7_9 
REMARK    9  A    between atoms: C7_9  and  C8_10 
REMARK   10  A    between atoms: C8_10  and  N3_11 
REMARK   11  A    between atoms: C9_15  and  C10_16 
REMARK   12  A    between atoms: C10_16  and  N4_17 
REMARK   13  A    between atoms: C12_22  and  C13_24 
REMARK   14  A    between atoms: C13_24  and  N7_25 
REMARK   15  A    between atoms: C13_24  and  C14_29 
REMARK   16  A    between atoms: C14_29  and  C15_30 
ROOT
HETATM    1  C3  UNL     1      30.831  18.959  10.823  1.00  0.00     0.025 C 
ENDROOT
BRANCH   1   2
HETATM    2  C2  UNL     1      31.470  19.207   9.450  1.00  0.00     0.125 C 
BRANCH   2   3
HETATM    3  N1  UNL     1      32.683  18.375   9.433  1.00  0.00    -0.355 N 
HETATM    4  C1  UNL     1      32.659  17.145  10.163  1.00  0.00     0.152 C 
HETATM    5  C12 UNL     1      33.786  18.834   8.701  1.00  0.00     0.250 C 
HETATM    6  O1  UNL     1      33.683  19.966   8.088  1.00  0.00    -0.271 OA
BRANCH   5   7
HETATM    7  C13 UNL     1      35.099  18.183   8.528  1.00  0.00     0.279 C 
BRANCH   7   8
HETATM    8  N7  UNL     1      35.193  17.345   7.376  1.00  0.00    -0.066 N 
ATOM      9  H73 UNL     1      34.300  16.885   7.196  1.00  0.00     0.275 HD
ATOM     10  H72 UNL     1      35.272  17.910   6.530  1.00  0.00     0.275 HD
ATOM     11  H71 UNL     1      35.945  16.657   7.416  1.00  0.00     0.275 HD
ENDBRANCH   7   8
BRANCH   7  12
HETATM   12  C14 UNL     1      36.214  19.223   8.604  1.00  0.00     0.081 C 
BRANCH  12  13
HETATM   13  C15 UNL     1      37.219  18.854   9.620  1.00  0.00    -0.056 A 
HETATM   14  C16 UNL     1      38.412  19.503   9.666  1.00  0.00     0.007 A 
HETATM   15  C17 UNL     1      39.382  19.184  10.595  1.00  0.00     0.001 A 
HETATM   16  C18 UNL     1      39.138  18.177  11.506  1.00  0.00     0.000 A 
HETATM   17  C19 UNL     1      37.926  17.531  11.447  1.00  0.00     0.001 A 
HETATM   18  C20 UNL     1      36.952  17.834  10.533  1.00  0.00     0.007 A 
ENDBRANCH  12  13
ENDBRANCH   7  12
ENDBRANCH   5   7
ENDBRANCH   2   3
ENDBRANCH   1   2
BRANCH   1  19
HETATM   19  C4  UNL     1      29.375  19.371  10.717  1.00  0.00     0.046 C 
BRANCH  19  20
HETATM   20  C5  UNL     1      28.674  18.932  11.986  1.00  0.00     0.068 C 
BRANCH  20  21
HETATM   21  N2  UNL     1      27.930  20.003  12.514  1.00  0.00    -0.353 N 
BRANCH  21  22
HETATM   22  C6  UNL     1      27.657  20.032  13.878  1.00  0.00     0.069 C 
BRANCH  22  23
HETATM   23  C7  UNL     1      26.911  18.843  14.435  1.00  0.00     0.072 C 
BRANCH  23  24
HETATM   24  C8  UNL     1      25.489  19.219  14.707  1.00  0.00     0.234 C 
BRANCH  24  25
HETATM   25  N3  UNL     1      24.860  18.312  15.635  1.00  0.00    -0.079 N 
ATOM     26  H33 UNL     1      25.500  17.570  15.920  1.00  0.00     0.274 HD
ATOM     27  H32 UNL     1      24.712  18.753  16.543  1.00  0.00     0.274 HD
ATOM     28  H31 UNL     1      23.991  17.929  15.264  1.00  0.00     0.274 HD
ENDBRANCH  24  25
ENDBRANCH  23  24
ENDBRANCH  22  23
ENDBRANCH  21  22
BRANCH  21  29
HETATM   29  C9  UNL     1      27.893  21.189  11.753  1.00  0.00     0.087 C 
BRANCH  29  30
HETATM   30  C10 UNL     1      26.824  22.169  12.105  1.00  0.00     0.166 C 
BRANCH  30  31
HETATM   31  N4  UNL     1      26.983  23.295  11.168  1.00  0.00    -0.362 N 
HETATM   32  C11 UNL     1      27.335  24.457  11.557  1.00  0.00     0.197 C 
HETATM   33  N5  UNL     1      27.464  25.483  10.584  1.00  0.00    -0.067 NA
HETATM   34  N6  UNL     1      27.576  24.659  12.943  1.00  0.00    -0.067 NA
ATOM     35  H4  UNL     1      26.807  23.139  10.175  1.00  0.00     0.162 HD
ENDBRANCH  30  31
ENDBRANCH  29  30
ENDBRANCH  21  29
ENDBRANCH  20  21
ENDBRANCH  19  20
ENDBRANCH   1  19
TORSDOF 16
ENDMDL
MODEL 2
REMARK VINA RESULT: -6.902527171      2.241      3.672
REMARK  16 active torsions:
REMARK  status: ('A' for Active; 'I' for Inactive)
REMARK    1  A    between atoms: N1_2  and  C2_3 
REMARK       I    between atoms: N1_2  and  C12_22 
REMARK    2  A    between atoms: C2_3  and  C3_4 
REMARK    3  A    between atoms: C3_4  and  C4_5 
REMARK    4  A    between atoms: C4_5  and  C5_6 
REMARK    5  A    between atoms: C5_6  and  N2_7 
REMARK    6  A    between atoms: N2_7  and  C6_8 
REMARK    7  A    between atoms: N2_7  and  C9_15 
REMARK    8  A    between atoms: C6_8  and  C7_9 
REMARK    9  A    between atoms: C7_9  and  C8_10 
REMARK   10  A    between atoms: C8_10  and  N3_11 
REMARK   11  A    between atoms: C9_15  and  C10_16 
REMARK   12  A    between atoms: C10_16  and  N4_17 
REMARK   13  A    between atoms: C12_22  and  C13_24 
REMARK   14  A    between atoms: C13_24  and  N7_25 
REMARK   15  A    between atoms: C13_24  and  C14_29 
REMARK   16  A    between atoms: C14_29  and  C15_30 
ROOT
HETATM    1  C3  UNL     1      27.886  19.203  13.388  1.00  0.00     0.025 C 
ENDROOT
BRANCH   1   2
HETATM    2  C2  UNL     1      28.211  20.021  12.131  1.00  0.00     0.125 C 
BRANCH   2   3
HETATM    3  N1  UNL     1      29.238  19.245  11.420  1.00  0.00    -0.355 N 
HETATM    4  C1  UNL     1      29.209  17.820  11.552  1.00  0.00     0.152 C 
HETATM    5  C12 UNL     1      30.179  19.944  10.653  1.00  0.00     0.250 C 
HETATM    6  O1  UNL     1      30.101  21.233  10.618  1.00  0.00    -0.271 OA
BRANCH   5   7
HETATM    7  C13 UNL     1      31.290  19.396   9.852  1.00  0.00     0.279 C 
BRANCH   7   8
HETATM    8  N7  UNL     1      30.889  18.816   8.610  1.00  0.00    -0.066 N 
ATOM      9  H73 UNL     1      30.529  17.873   8.756  1.00  0.00     0.275 HD
ATOM     10  H72 UNL     1      30.047  19.272   8.259  1.00  0.00     0.275 HD
ATOM     11  H71 UNL     1      31.616  18.812   7.894  1.00  0.00     0.275 HD
ENDBRANCH   7   8
BRANCH   7  12
HETATM   12  C14 UNL     1      32.391  20.442   9.697  1.00  0.00     0.081 C 
BRANCH  12  13
HETATM   13  C15 UNL     1      33.712  19.806   9.535  1.00  0.00    -0.056 A 
HETATM   14  C16 UNL     1      34.342  19.839   8.330  1.00  0.00     0.007 A 
HETATM   15  C17 UNL     1      35.575  19.250   8.134  1.00  0.00     0.001 A 
HETATM   16  C18 UNL     1      36.191  18.606   9.189  1.00  0.00     0.000 A 
HETATM   17  C19 UNL     1      35.541  18.583  10.400  1.00  0.00     0.001 A 
HETATM   18  C20 UNL     1      34.318  19.162  10.613  1.00  0.00     0.007 A 
ENDBRANCH  12  13
ENDBRANCH   7  12
ENDBRANCH   5   7
ENDBRANCH   2   3
ENDBRANCH   1   2
BRANCH   1  19
HETATM   19  C4  UNL     1      27.738  20.186  14.534  1.00  0.00     0.046 C 
BRANCH  19  20
HETATM   20  C5  UNL     1      26.748  21.249  14.108  1.00  0.00     0.068 C 
BRANCH  20  21
HETATM   21  N2  UNL     1      26.866  22.374  14.946  1.00  0.00    -0.353 N 
BRANCH  21  22
HETATM   22  C6  UNL     1      27.166  22.189  16.291  1.00  0.00     0.069 C 
BRANCH  22  23
HETATM   23  C7  UNL     1      26.063  22.509  17.272  1.00  0.00     0.072 C 
BRANCH  23  24
HETATM   24  C8  UNL     1      25.345  21.253  17.654  1.00  0.00     0.234 C 
BRANCH  24  25
HETATM   25  N3  UNL     1      24.114  21.092  16.918  1.00  0.00    -0.079 N 
ATOM     26  H33 UNL     1      23.327  20.925  17.545  1.00  0.00     0.274 HD
ATOM     27  H32 UNL     1      23.809  21.974  16.508  1.00  0.00     0.274 HD
ATOM     28  H31 UNL     1      24.187  20.360  16.211  1.00  0.00     0.274 HD
ENDBRANCH  24  25
ENDBRANCH  23  24
ENDBRANCH  22  23
ENDBRANCH  21  22
BRANCH  21  29
HETATM   29  C9  UNL     1      27.126  23.609  14.319  1.00  0.00     0.087 C 
BRANCH  29  30
HETATM   30  C10 UNL     1      26.709  23.730  12.892  1.00  0.00     0.166 C 
BRANCH  30  31
HETATM   31  N4  UNL     1      26.430  25.159  12.671  1.00  0.00    -0.362 N 
HETATM   32  C11 UNL     1      26.874  25.788  11.654  1.00  0.00     0.197 C 
HETATM   33  N5  UNL     1      26.555  27.165  11.521  1.00  0.00    -0.067 NA
HETATM   34  N6  UNL     1      27.663  25.074  10.712  1.00  0.00    -0.067 NA
ATOM     35  H4  UNL     1      25.862  25.662  13.353  1.00  0.00     0.162 HD
ENDBRANCH  30  31
ENDBRANCH  29  30
ENDBRANCH  21  29
ENDBRANCH  20  21
ENDBRANCH  19  20
ENDBRANCH   1  19
TORSDOF 16
ENDMDL
MODEL 3
REMARK VINA RESULT: -6.785058873      6.806      9.185
REMARK  16 active torsions:
REMARK  status: ('A' for Active; 'I' for Inactive)
REMARK    1  A    between atoms: N1_2  and  C2_3 
REMARK       I    between atoms: N1_2  and  C12_22 
REMARK    2  A    between atoms: C2_3  and  C3_4 
REMARK    3  A    between atoms: C3_4  and  C4_5 
REMARK    4  A    between atoms: C4_5  and  C5_6 
REMARK    5  A    between atoms: C5_6  and  N2_7 
REMARK    6  A    between atoms: N2_7  and  C6_8 
REMARK    7  A    between atoms: N2_7  and  C9_15 
REMARK    8  A    between atoms: C6_8  and  C7_9 
REMARK    9  A    between atoms: C7_9  and  C8_10 
REMARK   10  A    between atoms: C8_10  and  N3_11 
REMARK   11  A    between atoms: C9_15  and  C10_16 
REMARK   12  A    between atoms: C10_16  and  N4_17 
REMARK   13  A    between atoms: C12_22  and  C13_24 
REMARK   14  A    between atoms: C13_24  and  N7_25 
REMARK   15  A    between atoms: C13_24  and  C14_29 
REMARK   16  A    between atoms: C14_29  and  C15_30 
ROOT
HETATM    1  C3  UNL     1      39.974  22.678  13.804  1.00  0.00     0.025 C 
ENDROOT
BRANCH   1   2
HETATM    2  C2  UNL     1      40.804  21.536  14.405  1.00  0.00     0.125 C 
BRANCH   2   3
HETATM    3  N1  UNL     1      41.415  20.855  13.253  1.00  0.00    -0.355 N 
HETATM    4  C1  UNL     1      41.861  21.663  12.160  1.00  0.00     0.152 C 
HETATM    5  C12 UNL     1      41.526  19.459  13.296  1.00  0.00     0.250 C 
HETATM    6  O1  UNL     1      41.081  18.843  14.340  1.00  0.00    -0.271 OA
BRANCH   5   7
HETATM    7  C13 UNL     1      42.101  18.559  12.277  1.00  0.00     0.279 C 
BRANCH   7   8
HETATM    8  N7  UNL     1      43.399  18.059  12.600  1.00  0.00    -0.066 N 
ATOM      9  H73 UNL     1      43.362  17.492  13.447  1.00  0.00     0.275 HD
ATOM     10  H72 UNL     1      43.684  17.347  11.926  1.00  0.00     0.275 HD
ATOM     11  H71 UNL     1      44.118  18.777  12.683  1.00  0.00     0.275 HD
ENDBRANCH   7   8
BRANCH   7  12
HETATM   12  C14 UNL     1      41.104  17.457  11.929  1.00  0.00     0.081 C 
BRANCH  12  13
HETATM   13  C15 UNL     1      39.892  18.014  11.299  1.00  0.00    -0.056 A 
HETATM   14  C16 UNL     1      38.667  17.522  11.623  1.00  0.00     0.007 A 
HETATM   15  C17 UNL     1      37.509  18.010  11.051  1.00  0.00     0.001 A 
HETATM   16  C18 UNL     1      37.592  19.027  10.121  1.00  0.00     0.000 A 
HETATM   17  C19 UNL     1      38.838  19.513   9.805  1.00  0.00     0.001 A 
HETATM   18  C20 UNL     1      39.997  19.042  10.362  1.00  0.00     0.007 A 
ENDBRANCH  12  13
ENDBRANCH   7  12
ENDBRANCH   5   7
ENDBRANCH   2   3
ENDBRANCH   1   2
BRANCH   1  19
HETATM   19  C4  UNL     1      39.000  23.131  14.875  1.00  0.00     0.046 C 
BRANCH  19  20
HETATM   20  C5  UNL     1      38.872  24.637  14.780  1.00  0.00     0.068 C 
BRANCH  20  21
HETATM   21  N2  UNL     1      37.513  25.002  14.809  1.00  0.00    -0.353 N 
BRANCH  21  22
HETATM   22  C6  UNL     1      37.073  26.045  14.000  1.00  0.00     0.069 C 
BRANCH  22  23
HETATM   23  C7  UNL     1      37.310  27.441  14.521  1.00  0.00     0.072 C 
BRANCH  23  24
HETATM   24  C8  UNL     1      36.057  27.969  15.145  1.00  0.00     0.234 C 
BRANCH  24  25
HETATM   25  N3  UNL     1      34.914  27.803  14.280  1.00  0.00    -0.079 N 
ATOM     26  H33 UNL     1      34.584  28.701  13.925  1.00  0.00     0.274 HD
ATOM     27  H32 UNL     1      35.178  27.368  13.396  1.00  0.00     0.274 HD
ATOM     28  H31 UNL     1      34.162  27.287  14.737  1.00  0.00     0.274 HD
ENDBRANCH  24  25
ENDBRANCH  23  24
ENDBRANCH  22  23
ENDBRANCH  21  22
BRANCH  21  29
HETATM   29  C9  UNL     1      36.605  24.037  15.288  1.00  0.00     0.087 C 
BRANCH  29  30
HETATM   30  C10 UNL     1      35.179  24.210  14.884  1.00  0.00     0.166 C 
BRANCH  30  31
HETATM   31  N4  UNL     1      34.380  23.934  16.091  1.00  0.00    -0.362 N 
HETATM   32  C11 UNL     1      33.388  24.661  16.428  1.00  0.00     0.197 C 
HETATM   33  N5  UNL     1      32.674  24.321  17.608  1.00  0.00    -0.067 NA
HETATM   34  N6  UNL     1      33.054  25.770  15.605  1.00  0.00    -0.067 NA
ATOM     35  H4  UNL     1      34.629  23.136  16.675  1.00  0.00     0.162 HD
ENDBRANCH  30  31
ENDBRANCH  29  30
ENDBRANCH  21  29
ENDBRANCH  20  21
ENDBRANCH  19  20
ENDBRANCH   1  19
TORSDOF 16
ENDMDL
MODEL 4
REMARK VINA RESULT: -6.756831502      6.945      9.629
REMARK  16 active torsions:
REMARK  status: ('A' for Active; 'I' for Inactive)
REMARK    1  A    between atoms: N1_2  and  C2_3 
REMARK       I    between atoms: N1_2  and  C12_22 
REMARK    2  A    between atoms: C2_3  and  C3_4 
REMARK    3  A    between atoms: C3_4  and  C4_5 
REMARK    4  A    between atoms: C4_5  and  C5_6 
REMARK    5  A    between atoms: C5_6  and  N2_7 
REMARK    6  A    between atoms: N2_7  and  C6_8 
REMARK    7  A    between atoms: N2_7  and  C9_15 
REMARK    8  A    between atoms: C6_8  and  C7_9 
REMARK    9  A    between atoms: C7_9  and  C8_10 
REMARK   10  A    between atoms: C8_10  and  N3_11 
REMARK   11  A    between atoms: C9_15  and  C10_16 
REMARK   12  A    between atoms: C10_16  and  N4_17 
REMARK   13  A    between atoms: C12_22  and  C13_24 
REMARK   14  A    between atoms: C13_24  and  N7_25 
REMARK   15  A    between atoms: C13_24  and  C14_29 
REMARK   16  A    between atoms: C14_29  and  C15_30 
ROOT
HETATM    1  C3  UNL     1      39.676  22.331  13.694  1.00  0.00     0.025 C 
ENDROOT
BRANCH   1   2
HETATM    2  C2  UNL     1      40.832  21.552  14.336  1.00  0.00     0.125 C 
BRANCH   2   3
HETATM    3  N1  UNL     1      41.494  20.855  13.224  1.00  0.00    -0.355 N 
HETATM    4  C1  UNL     1      42.009  21.649  12.150  1.00  0.00     0.152 C 
HETATM    5  C12 UNL     1      41.584  19.458  13.281  1.00  0.00     0.250 C 
HETATM    6  O1  UNL     1      41.075  18.856  14.304  1.00  0.00    -0.271 OA
BRANCH   5   7
HETATM    7  C13 UNL     1      42.201  18.544  12.301  1.00  0.00     0.279 C 
BRANCH   7   8
HETATM    8  N7  UNL     1      43.489  18.058  12.679  1.00  0.00    -0.066 N 
ATOM      9  H73 UNL     1      44.205  18.420  12.049  1.00  0.00     0.275 HD
ATOM     10  H72 UNL     1      43.790  18.489  13.553  1.00  0.00     0.275 HD
ATOM     11  H71 UNL     1      43.553  17.042  12.742  1.00  0.00     0.275 HD
ENDBRANCH   7   8
BRANCH   7  12
HETATM   12  C14 UNL     1      41.223  17.428  11.938  1.00  0.00     0.081 C 
BRANCH  12  13
HETATM   13  C15 UNL     1      39.995  17.973  11.329  1.00  0.00    -0.056 A 
HETATM   14  C16 UNL     1      40.074  18.980  10.419  1.00  0.00     0.007 A 
HETATM   15  C17 UNL     1      38.949  19.524   9.831  1.00  0.00     0.001 A 
HETATM   16  C18 UNL     1      37.705  19.034  10.174  1.00  0.00     0.000 A 
HETATM   17  C19 UNL     1      37.643  18.016  11.094  1.00  0.00     0.001 A 
HETATM   18  C20 UNL     1      38.747  17.464  11.688  1.00  0.00     0.007 A 
ENDBRANCH  12  13
ENDBRANCH   7  12
ENDBRANCH   5   7
ENDBRANCH   2   3
ENDBRANCH   1   2
BRANCH   1  19
HETATM   19  C4  UNL     1      39.213  23.358  14.709  1.00  0.00     0.046 C 
BRANCH  19  20
HETATM   20  C5  UNL     1      39.007  24.670  13.981  1.00  0.00     0.068 C 
BRANCH  20  21
HETATM   21  N2  UNL     1      37.872  25.326  14.493  1.00  0.00    -0.353 N 
BRANCH  21  22
HETATM   22  C6  UNL     1      37.640  26.652  14.143  1.00  0.00     0.069 C 
BRANCH  22  23
HETATM   23  C7  UNL     1      38.400  27.171  12.946  1.00  0.00     0.072 C 
BRANCH  23  24
HETATM   24  C8  UNL     1      39.183  28.386  13.331  1.00  0.00     0.234 C 
BRANCH  24  25
HETATM   25  N3  UNL     1      39.930  28.182  14.548  1.00  0.00    -0.079 N 
ATOM     26  H33 UNL     1      40.230  27.211  14.641  1.00  0.00     0.274 HD
ATOM     27  H32 UNL     1      40.846  28.628  14.500  1.00  0.00     0.274 HD
ATOM     28  H31 UNL     1      39.411  28.490  15.370  1.00  0.00     0.274 HD
ENDBRANCH  24  25
ENDBRANCH  23  24
ENDBRANCH  22  23
ENDBRANCH  21  22
BRANCH  21  29
HETATM   29  C9  UNL     1      36.815  24.510  14.943  1.00  0.00     0.087 C 
BRANCH  29  30
HETATM   30  C10 UNL     1      35.581  24.502  14.106  1.00  0.00     0.166 C 
BRANCH  30  31
HETATM   31  N4  UNL     1      34.453  24.621  15.045  1.00  0.00    -0.362 N 
HETATM   32  C11 UNL     1      33.713  25.660  15.090  1.00  0.00     0.197 C 
HETATM   33  N5  UNL     1      32.647  25.688  16.028  1.00  0.00    -0.067 NA
HETATM   34  N6  UNL     1      33.999  26.729  14.198  1.00  0.00    -0.067 NA
ATOM     35  H4  UNL     1      34.256  23.848  15.681  1.00  0.00     0.162 HD
ENDBRANCH  30  31
ENDBRANCH  29  30
ENDBRANCH  21  29
ENDBRANCH  20  21
ENDBRANCH  19  20
ENDBRANCH   1  19
TORSDOF 16
ENDMDL
MODEL 5
REMARK VINA RESULT: -6.668513322      1.522      3.401
REMARK  16 active torsions:
REMARK  status: ('A' for Active; 'I' for Inactive)
REMARK    1  A    between atoms: N1_2  and  C2_3 
REMARK       I    between atoms: N1_2  and  C12_22 
REMARK    2  A    between atoms: C2_3  and  C3_4 
REMARK    3  A    between atoms: C3_4  and  C4_5 
REMARK    4  A    between atoms: C4_5  and  C5_6 
REMARK    5  A    between atoms: C5_6  and  N2_7 
REMARK    6  A    between atoms: N2_7  and  C6_8 
REMARK    7  A    between atoms: N2_7  and  C9_15 
REMARK    8  A    between atoms: C6_8  and  C7_9 
REMARK    9  A    between atoms: C7_9  and  C8_10 
REMARK   10  A    between atoms: C8_10  and  N3_11 
REMARK   11  A    between atoms: C9_15  and  C10_16 
REMARK   12  A    between atoms: C10_16  and  N4_17 
REMARK   13  A    between atoms: C12_22  and  C13_24 
REMARK   14  A    between atoms: C13_24  and  N7_25 
REMARK   15  A    between atoms: C13_24  and  C14_29 
REMARK   16  A    between atoms: C14_29  and  C15_30 
ROOT
HETATM    1  C3  UNL     1      30.314  19.242  11.025  1.00  0.00     0.025 C 
ENDROOT
BRANCH   1   2
HETATM    2  C2  UNL     1      30.719  18.892   9.587  1.00  0.00     0.125 C 
BRANCH   2   3
HETATM    3  N1  UNL     1      32.024  18.224   9.704  1.00  0.00    -0.355 N 
HETATM    4  C1  UNL     1      32.138  17.144  10.635  1.00  0.00     0.152 C 
HETATM    5  C12 UNL     1      33.074  18.682   8.898  1.00  0.00     0.250 C 
HETATM    6  O1  UNL     1      32.843  19.671   8.100  1.00  0.00    -0.271 OA
BRANCH   5   7
HETATM    7  C13 UNL     1      34.458  18.176   8.831  1.00  0.00     0.279 C 
BRANCH   7   8
HETATM    8  N7  UNL     1      34.734  17.366   7.688  1.00  0.00    -0.066 N 
ATOM      9  H73 UNL     1      33.980  16.695   7.536  1.00  0.00     0.275 HD
ATOM     10  H72 UNL     1      34.652  17.917   6.833  1.00  0.00     0.275 HD
ATOM     11  H71 UNL     1      35.634  16.888   7.718  1.00  0.00     0.275 HD
ENDBRANCH   7   8
BRANCH   7  12
HETATM   12  C14 UNL     1      35.446  19.328   9.001  1.00  0.00     0.081 C 
BRANCH  12  13
HETATM   13  C15 UNL     1      36.633  18.904   9.767  1.00  0.00    -0.056 A 
HETATM   14  C16 UNL     1      37.810  19.569   9.626  1.00  0.00     0.007 A 
HETATM   15  C17 UNL     1      38.946  19.200  10.318  1.00  0.00     0.001 A 
HETATM   16  C18 UNL     1      38.890  18.124  11.181  1.00  0.00     0.000 A 
HETATM   17  C19 UNL     1      37.692  17.463  11.314  1.00  0.00     0.001 A 
HETATM   18  C20 UNL     1      36.556  17.814  10.635  1.00  0.00     0.007 A 
ENDBRANCH  12  13
ENDBRANCH   7  12
ENDBRANCH   5   7
ENDBRANCH   2   3
ENDBRANCH   1   2
BRANCH   1  19
HETATM   19  C4  UNL     1      28.960  19.921  10.953  1.00  0.00     0.046 C 
BRANCH  19  20
HETATM   20  C5  UNL     1      28.274  19.732  12.290  1.00  0.00     0.068 C 
BRANCH  20  21
HETATM   21  N2  UNL     1      27.596  20.913  12.649  1.00  0.00    -0.353 N 
BRANCH  21  22
HETATM   22  C6  UNL     1      27.437  21.918  11.702  1.00  0.00     0.069 C 
BRANCH  22  23
HETATM   23  C7  UNL     1      28.043  23.258  12.042  1.00  0.00     0.072 C 
BRANCH  23  24
HETATM   24  C8  UNL     1      27.011  24.332  11.898  1.00  0.00     0.234 C 
BRANCH  24  25
HETATM   25  N3  UNL     1      26.104  24.361  13.020  1.00  0.00    -0.079 N 
ATOM     26  H33 UNL     1      26.598  24.216  13.900  1.00  0.00     0.274 HD
ATOM     27  H32 UNL     1      25.751  25.303  13.188  1.00  0.00     0.274 HD
ATOM     28  H31 UNL     1      25.340  23.694  12.909  1.00  0.00     0.274 HD
ENDBRANCH  24  25
ENDBRANCH  23  24
ENDBRANCH  22  23
ENDBRANCH  21  22
BRANCH  21  29
HETATM   29  C9  UNL     1      26.738  20.839  13.765  1.00  0.00     0.087 C 
BRANCH  29  30
HETATM   30  C10 UNL     1      27.265  21.398  15.044  1.00  0.00     0.166 C 
BRANCH  30  31
HETATM   31  N4  UNL     1      26.083  21.705  15.868  1.00  0.00    -0.362 N 
HETATM   32  C11 UNL     1      25.843  21.098  16.964  1.00  0.00     0.197 C 
HETATM   33  N5  UNL     1      24.680  21.460  17.694  1.00  0.00    -0.067 NA
HETATM   34  N6  UNL     1      26.753  20.093  17.391  1.00  0.00    -0.067 NA
ATOM     35  H4  UNL     1      25.436  22.427  15.553  1.00  0.00     0.162 HD
ENDBRANCH  30  31
ENDBRANCH  29  30
ENDBRANCH  21  29
ENDBRANCH  20  21
ENDBRANCH  19  20
ENDBRANCH   1  19
TORSDOF 16
ENDMDL
