MODEL 1
REMARK VINA RESULT: -6.485081827      0.000      0.000
REMARK  19 active torsions:
REMARK  status: ('A' for Active; 'I' for Inactive)
REMARK    1  A    between atoms: C2_2  and  N1_3 
REMARK    2  A    between atoms: N1_3  and  C3_4 
REMARK    3  A    between atoms: N1_3  and  C5_6 
REMARK    4  A    between atoms: C5_6  and  C6_7 
REMARK    5  A    between atoms: C6_7  and  N2_8 
REMARK    6  A    between atoms: C8_13  and  N4_14 
REMARK    7  A    between atoms: N4_14  and  C9_16 
REMARK    8  A    between atoms: C9_16  and  C10_17 
REMARK    9  A    between atoms: C10_17  and  C11_18 
REMARK   10  A    between atoms: C11_18  and  C12_19 
REMARK   11  A    between atoms: C12_19  and  N5_20 
REMARK   12  A    between atoms: C13_26  and  N7_27 
REMARK   13  A    between atoms: N7_27  and  C14_29 
REMARK   14  A    between atoms: C14_29  and  C15_30 
REMARK   15  A    between atoms: C15_30  and  C16_31 
REMARK   16  A    between atoms: C16_31  and  C17_32 
REMARK   17  A    between atoms: C17_32  and  C18_33 
REMARK   18  A    between atoms: C18_33  and  C19_34 
REMARK   19  A    between atoms: C19_34  and  N8_35 
ROOT
HETATM    1  N2  UNL     1      28.409  21.138  11.088  1.00  0.00    -0.220 N 
ATOM      2  H2  UNL     1      28.749  21.678  10.293  1.00  0.00     0.178 HD
HETATM    3  C7  UNL     1      27.690  21.739  11.964  1.00  0.00     0.707 A 
HETATM    4  N3  UNL     1      27.402  23.067  11.814  1.00  0.00    -0.022 N 
ATOM      5  H3  UNL     1      27.770  23.560  11.000  1.00  0.00     0.203 HD
HETATM    6  C8  UNL     1      26.657  23.742  12.695  1.00  0.00     0.707 A 
HETATM    7  N6  UNL     1      26.155  23.119  13.786  1.00  0.00    -0.022 N 
ATOM      8  H6  UNL     1      25.587  23.632  14.460  1.00  0.00     0.203 HD
HETATM    9  C13 UNL     1      26.424  21.790  13.969  1.00  0.00     0.707 A 
HETATM   10  N9  UNL     1      27.172  21.146  13.068  1.00  0.00    -0.022 N 
ATOM     11  H9  UNL     1      27.363  20.156  13.218  1.00  0.00     0.203 HD
ENDROOT
BRANCH   9  12
HETATM   12  N7  UNL     1      25.929  21.265  15.014  1.00  0.00    -0.225 N 
ATOM     13  H7  UNL     1      25.195  20.581  14.830  1.00  0.00     0.177 HD
BRANCH  12  14
HETATM   14  C14 UNL     1      26.210  21.453  16.385  1.00  0.00     0.138 C 
BRANCH  14  15
HETATM   15  C15 UNL     1      26.839  20.119  16.870  1.00  0.00     0.020 C 
BRANCH  15  16
HETATM   16  C16 UNL     1      25.779  19.352  17.556  1.00  0.00     0.002 C 
BRANCH  16  17
HETATM   17  C17 UNL     1      25.286  18.138  16.914  1.00  0.00     0.002 C 
BRANCH  17  18
HETATM   18  C18 UNL     1      24.002  18.138  16.195  1.00  0.00     0.027 C 
BRANCH  18  19
HETATM   19  C19 UNL     1      23.074  19.276  16.236  1.00  0.00     0.229 C 
BRANCH  19  20
HETATM   20  N8  UNL     1      21.675  18.970  16.283  1.00  0.00    -0.079 N 
ATOM     21  H83 UNL     1      21.429  18.374  15.493  1.00  0.00     0.274 HD
ATOM     22  H82 UNL     1      21.490  18.336  17.060  1.00  0.00     0.274 HD
ATOM     23  H81 UNL     1      21.031  19.759  16.327  1.00  0.00     0.274 HD
ENDBRANCH  19  20
ENDBRANCH  18  19
ENDBRANCH  17  18
ENDBRANCH  16  17
ENDBRANCH  15  16
ENDBRANCH  14  15
ENDBRANCH  12  14
ENDBRANCH   9  12
BRANCH   6  24
HETATM   24  N4  UNL     1      26.411  24.992  12.509  1.00  0.00    -0.225 N 
ATOM     25  H4  UNL     1      25.743  25.235  11.778  1.00  0.00     0.177 HD
BRANCH  24  26
HETATM   26  C9  UNL     1      27.004  26.075  13.251  1.00  0.00     0.138 C 
BRANCH  26  27
HETATM   27  C10 UNL     1      27.720  27.055  12.359  1.00  0.00     0.022 C 
BRANCH  27  28
HETATM   28  C11 UNL     1      27.141  27.081  10.963  1.00  0.00     0.029 C 
BRANCH  28  29
HETATM   29  C12 UNL     1      26.689  28.476  10.588  1.00  0.00     0.229 C 
BRANCH  29  30
HETATM   30  N5  UNL     1      25.340  28.699  11.081  1.00  0.00    -0.079 N 
ATOM     31  H53 UNL     1      25.111  29.691  11.140  1.00  0.00     0.274 HD
ATOM     32  H52 UNL     1      24.631  28.425  10.402  1.00  0.00     0.274 HD
ATOM     33  H51 UNL     1      25.221  28.222  11.975  1.00  0.00     0.274 HD
ENDBRANCH  29  30
ENDBRANCH  28  29
ENDBRANCH  27  28
ENDBRANCH  26  27
ENDBRANCH  24  26
ENDBRANCH   6  24
BRANCH   1  34
HETATM   34  C6  UNL     1      28.760  19.753  11.162  1.00  0.00     0.183 C 
BRANCH  34  35
HETATM   35  C5  UNL     1      29.113  19.101   9.875  1.00  0.00     0.088 C 
BRANCH  35  36
HETATM   36  N1  UNL     1      30.264  18.324   9.785  1.00  0.00    -0.353 N 
BRANCH  36  37
HETATM   37  C2  UNL     1      30.969  18.202   8.581  1.00  0.00     0.064 C 
HETATM   38  C1  UNL     1      30.083  17.710   7.454  1.00  0.00     0.055 C 
ENDBRANCH  36  37
BRANCH  36  39
HETATM   39  C3  UNL     1      30.774  17.685  10.929  1.00  0.00     0.064 C 
HETATM   40  C4  UNL     1      32.246  17.515  11.037  1.00  0.00     0.055 C 
ENDBRANCH  36  39
ENDBRANCH  35  36
ENDBRANCH  34  35
ENDBRANCH   1  34
TORSDOF 19
ENDMDL
MODEL 2
REMARK VINA RESULT: -6.473670473      1.477      2.549
REMARK  19 active torsions:
REMARK  status: ('A' for Active; 'I' for Inactive)
REMARK    1  A    between atoms: C2_2  and  N1_3 
REMARK    2  A    between atoms: N1_3  and  C3_4 
REMARK    3  A    between atoms: N1_3  and  C5_6 
REMARK    4  A    between atoms: C5_6  and  C6_7 
REMARK    5  A    between atoms: C6_7  and  N2_8 
REMARK    6  A    between atoms: C8_13  and  N4_14 
REMARK    7  A    between atoms: N4_14  and  C9_16 
REMARK    8  A    between atoms: C9_16  and  C10_17 
REMARK    9  A    between atoms: C10_17  and  C11_18 
REMARK   10  A    between atoms: C11_18  and  C12_19 
REMARK   11  A    between atoms: C12_19  and  N5_20 
REMARK   12  A    between atoms: C13_26  and  N7_27 
REMARK   13  A    between atoms: N7_27  and  C14_29 
REMARK   14  A    between atoms: C14_29  and  C15_30 
REMARK   15  A    between atoms: C15_30  and  C16_31 
REMARK   16  A    between atoms: C16_31  and  C17_32 
REMARK   17  A    between atoms: C17_32  and  C18_33 
REMARK   18  A    between atoms: C18_33  and  C19_34 
REMARK   19  A    between atoms: C19_34  and  N8_35 
ROOT
HETATM    1  N2  UNL     1      28.411  21.246  11.025  1.00  0.00    -0.220 N 
ATOM      2  H2  UNL     1      28.761  21.812  10.253  1.00  0.00     0.178 HD
HETATM    3  C7  UNL     1      27.700  21.823  11.923  1.00  0.00     0.707 A 
HETATM    4  N3  UNL     1      27.434  23.160  11.826  1.00  0.00    -0.022 N 
ATOM      5  H3  UNL     1      27.811  23.680  11.033  1.00  0.00     0.203 HD
HETATM    6  C8  UNL     1      26.698  23.812  12.733  1.00  0.00     0.707 A 
HETATM    7  N6  UNL     1      26.184  23.154  13.797  1.00  0.00    -0.022 N 
ATOM      8  H6  UNL     1      25.623  23.648  14.490  1.00  0.00     0.203 HD
HETATM    9  C13 UNL     1      26.432  21.814  13.927  1.00  0.00     0.707 A 
HETATM   10  N9  UNL     1      27.171  21.195  13.002  1.00  0.00    -0.022 N 
ATOM     11  H9  UNL     1      27.345  20.196  13.112  1.00  0.00     0.203 HD
ENDROOT
BRANCH   9  12
HETATM   12  N7  UNL     1      25.926  21.255  14.950  1.00  0.00    -0.225 N 
ATOM     13  H7  UNL     1      26.067  21.770  15.819  1.00  0.00     0.177 HD
BRANCH  12  14
HETATM   14  C14 UNL     1      25.204  20.052  15.103  1.00  0.00     0.138 C 
BRANCH  14  15
HETATM   15  C15 UNL     1      24.487  20.167  16.475  1.00  0.00     0.020 C 
BRANCH  15  16
HETATM   16  C16 UNL     1      25.322  21.024  17.343  1.00  0.00     0.002 C 
BRANCH  16  17
HETATM   17  C17 UNL     1      24.651  22.014  18.178  1.00  0.00     0.002 C 
BRANCH  17  18
HETATM   18  C18 UNL     1      25.106  23.413  18.197  1.00  0.00     0.027 C 
BRANCH  18  19
HETATM   19  C19 UNL     1      26.271  23.875  17.429  1.00  0.00     0.229 C 
BRANCH  19  20
HETATM   20  N8  UNL     1      26.161  25.154  16.793  1.00  0.00    -0.079 N 
ATOM     21  H83 UNL     1      27.061  25.413  16.390  1.00  0.00     0.274 HD
ATOM     22  H82 UNL     1      25.594  25.068  15.949  1.00  0.00     0.274 HD
ATOM     23  H81 UNL     1      25.808  25.923  17.362  1.00  0.00     0.274 HD
ENDBRANCH  19  20
ENDBRANCH  18  19
ENDBRANCH  17  18
ENDBRANCH  16  17
ENDBRANCH  15  16
ENDBRANCH  14  15
ENDBRANCH  12  14
ENDBRANCH   9  12
BRANCH   6  24
HETATM   24  N4  UNL     1      26.472  25.072  12.596  1.00  0.00    -0.225 N 
ATOM     25  H4  UNL     1      25.740  25.350  11.943  1.00  0.00     0.177 HD
BRANCH  24  26
HETATM   26  C9  UNL     1      27.171  26.121  13.294  1.00  0.00     0.138 C 
BRANCH  26  27
HETATM   27  C10 UNL     1      27.744  27.149  12.353  1.00  0.00     0.022 C 
BRANCH  27  28
HETATM   28  C11 UNL     1      27.019  27.174  11.027  1.00  0.00     0.029 C 
BRANCH  28  29
HETATM   29  C12 UNL     1      26.610  28.583  10.657  1.00  0.00     0.229 C 
BRANCH  29  30
HETATM   30  N5  UNL     1      25.224  28.802  11.036  1.00  0.00    -0.079 N 
ATOM     31  H53 UNL     1      24.809  29.592  10.542  1.00  0.00     0.274 HD
ATOM     32  H52 UNL     1      24.608  28.070  10.683  1.00  0.00     0.274 HD
ATOM     33  H51 UNL     1      25.159  28.904  12.049  1.00  0.00     0.274 HD
ENDBRANCH  29  30
ENDBRANCH  28  29
ENDBRANCH  27  28
ENDBRANCH  26  27
ENDBRANCH  24  26
ENDBRANCH   6  24
BRANCH   1  34
HETATM   34  C6  UNL     1      28.740  19.854  11.044  1.00  0.00     0.183 C 
BRANCH  34  35
HETATM   35  C5  UNL     1      29.836  19.432  10.134  1.00  0.00     0.088 C 
BRANCH  35  36
HETATM   36  N1  UNL     1      29.572  18.541   9.098  1.00  0.00    -0.353 N 
BRANCH  36  37
HETATM   37  C2  UNL     1      28.261  18.243   8.709  1.00  0.00     0.064 C 
HETATM   38  C1  UNL     1      28.218  17.480   7.399  1.00  0.00     0.055 C 
ENDBRANCH  36  37
BRANCH  36  39
HETATM   39  C3  UNL     1      30.633  17.961   8.381  1.00  0.00     0.064 C 
HETATM   40  C4  UNL     1      31.979  18.578   8.504  1.00  0.00     0.055 C 
ENDBRANCH  36  39
ENDBRANCH  35  36
ENDBRANCH  34  35
ENDBRANCH   1  34
TORSDOF 19
ENDMDL
MODEL 3
REMARK VINA RESULT: -6.342250549      1.602      2.695
REMARK  19 active torsions:
REMARK  status: ('A' for Active; 'I' for Inactive)
REMARK    1  A    between atoms: C2_2  and  N1_3 
REMARK    2  A    between atoms: N1_3  and  C3_4 
REMARK    3  A    between atoms: N1_3  and  C5_6 
REMARK    4  A    between atoms: C5_6  and  C6_7 
REMARK    5  A    between atoms: C6_7  and  N2_8 
REMARK    6  A    between atoms: C8_13  and  N4_14 
REMARK    7  A    between atoms: N4_14  and  C9_16 
REMARK    8  A    between atoms: C9_16  and  C10_17 
REMARK    9  A    between atoms: C10_17  and  C11_18 
REMARK   10  A    between atoms: C11_18  and  C12_19 
REMARK   11  A    between atoms: C12_19  and  N5_20 
REMARK   12  A    between atoms: C13_26  and  N7_27 
REMARK   13  A    between atoms: N7_27  and  C14_29 
REMARK   14  A    between atoms: C14_29  and  C15_30 
REMARK   15  A    between atoms: C15_30  and  C16_31 
REMARK   16  A    between atoms: C16_31  and  C17_32 
REMARK   17  A    between atoms: C17_32  and  C18_33 
REMARK   18  A    between atoms: C18_33  and  C19_34 
REMARK   19  A    between atoms: C19_34  and  N8_35 
ROOT
HETATM    1  N2  UNL     1      28.469  21.225  11.059  1.00  0.00    -0.220 N 
ATOM      2  H2  UNL     1      28.845  21.806  10.310  1.00  0.00     0.178 HD
HETATM    3  C7  UNL     1      27.716  21.782  11.935  1.00  0.00     0.707 A 
HETATM    4  N3  UNL     1      27.439  23.117  11.845  1.00  0.00    -0.022 N 
ATOM      5  H3  UNL     1      27.842  23.652  11.075  1.00  0.00     0.203 HD
HETATM    6  C8  UNL     1      26.658  23.748  12.729  1.00  0.00     0.707 A 
HETATM    7  N6  UNL     1      26.109  23.069  13.762  1.00  0.00    -0.022 N 
ATOM      8  H6  UNL     1      25.513  23.547  14.438  1.00  0.00     0.203 HD
HETATM    9  C13 UNL     1      26.365  21.731  13.884  1.00  0.00     0.707 A 
HETATM   10  N9  UNL     1      27.149  21.132  12.982  1.00  0.00    -0.022 N 
ATOM     11  H9  UNL     1      27.330  20.135  13.085  1.00  0.00     0.203 HD
ENDROOT
BRANCH   9  12
HETATM   12  N7  UNL     1      25.824  21.152  14.877  1.00  0.00    -0.225 N 
ATOM     13  H7  UNL     1      24.856  20.873  14.720  1.00  0.00     0.177 HD
BRANCH  12  14
HETATM   14  C14 UNL     1      26.319  20.824  16.158  1.00  0.00     0.138 C 
BRANCH  14  15
HETATM   15  C15 UNL     1      25.077  20.792  17.089  1.00  0.00     0.020 C 
BRANCH  15  16
HETATM   16  C16 UNL     1      25.406  21.582  18.295  1.00  0.00     0.002 C 
BRANCH  16  17
HETATM   17  C17 UNL     1      24.562  22.728  18.614  1.00  0.00     0.002 C 
BRANCH  17  18
HETATM   18  C18 UNL     1      25.081  24.100  18.492  1.00  0.00     0.027 C 
BRANCH  18  19
HETATM   19  C19 UNL     1      26.303  24.418  17.740  1.00  0.00     0.229 C 
BRANCH  19  20
HETATM   20  N8  UNL     1      26.178  25.365  16.672  1.00  0.00    -0.079 N 
ATOM     21  H83 UNL     1      27.076  25.468  16.201  1.00  0.00     0.274 HD
ATOM     22  H82 UNL     1      25.617  24.962  15.922  1.00  0.00     0.274 HD
ATOM     23  H81 UNL     1      25.812  26.286  16.913  1.00  0.00     0.274 HD
ENDBRANCH  19  20
ENDBRANCH  18  19
ENDBRANCH  17  18
ENDBRANCH  16  17
ENDBRANCH  15  16
ENDBRANCH  14  15
ENDBRANCH  12  14
ENDBRANCH   9  12
BRANCH   6  24
HETATM   24  N4  UNL     1      26.424  25.007  12.601  1.00  0.00    -0.225 N 
ATOM     25  H4  UNL     1      25.667  25.283  11.976  1.00  0.00     0.177 HD
BRANCH  24  26
HETATM   26  C9  UNL     1      27.147  26.059  13.270  1.00  0.00     0.138 C 
BRANCH  26  27
HETATM   27  C10 UNL     1      27.852  26.972  12.302  1.00  0.00     0.022 C 
BRANCH  27  28
HETATM   28  C11 UNL     1      27.142  27.050  10.971  1.00  0.00     0.029 C 
BRANCH  28  29
HETATM   29  C12 UNL     1      26.719  28.470  10.661  1.00  0.00     0.229 C 
BRANCH  29  30
HETATM   30  N5  UNL     1      25.339  28.666  11.073  1.00  0.00    -0.079 N 
ATOM     31  H53 UNL     1      24.850  29.333  10.476  1.00  0.00     0.274 HD
ATOM     32  H52 UNL     1      24.760  27.849  10.883  1.00  0.00     0.274 HD
ATOM     33  H51 UNL     1      25.312  28.937  12.056  1.00  0.00     0.274 HD
ENDBRANCH  29  30
ENDBRANCH  28  29
ENDBRANCH  27  28
ENDBRANCH  26  27
ENDBRANCH  24  26
ENDBRANCH   6  24
BRANCH   1  34
HETATM   34  C6  UNL     1      28.813  19.836  11.072  1.00  0.00     0.183 C 
BRANCH  34  35
HETATM   35  C5  UNL     1      29.564  19.341   9.891  1.00  0.00     0.088 C 
BRANCH  35  36
HETATM   36  N1  UNL     1      30.954  19.281   9.928  1.00  0.00    -0.353 N 
BRANCH  36  37
HETATM   37  C2  UNL     1      31.735  20.442   9.885  1.00  0.00     0.064 C 
HETATM   38  C1  UNL     1      32.686  20.442   8.704  1.00  0.00     0.055 C 
ENDBRANCH  36  37
BRANCH  36  39
HETATM   39  C3  UNL     1      31.602  18.041  10.066  1.00  0.00     0.064 C 
HETATM   40  C4  UNL     1      32.399  17.802  11.297  1.00  0.00     0.055 C 
ENDBRANCH  36  39
ENDBRANCH  35  36
ENDBRANCH  34  35
ENDBRANCH   1  34
TORSDOF 19
ENDMDL
MODEL 4
REMARK VINA RESULT: -6.308271774      1.478      2.289
REMARK  19 active torsions:
REMARK  status: ('A' for Active; 'I' for Inactive)
REMARK    1  A    between atoms: C2_2  and  N1_3 
REMARK    2  A    between atoms: N1_3  and  C3_4 
REMARK    3  A    between atoms: N1_3  and  C5_6 
REMARK    4  A    between atoms: C5_6  and  C6_7 
REMARK    5  A    between atoms: C6_7  and  N2_8 
REMARK    6  A    between atoms: C8_13  and  N4_14 
REMARK    7  A    between atoms: N4_14  and  C9_16 
REMARK    8  A    between atoms: C9_16  and  C10_17 
REMARK    9  A    between atoms: C10_17  and  C11_18 
REMARK   10  A    between atoms: C11_18  and  C12_19 
REMARK   11  A    between atoms: C12_19  and  N5_20 
REMARK   12  A    between atoms: C13_26  and  N7_27 
REMARK   13  A    between atoms: N7_27  and  C14_29 
REMARK   14  A    between atoms: C14_29  and  C15_30 
REMARK   15  A    between atoms: C15_30  and  C16_31 
REMARK   16  A    between atoms: C16_31  and  C17_32 
REMARK   17  A    between atoms: C17_32  and  C18_33 
REMARK   18  A    between atoms: C18_33  and  C19_34 
REMARK   19  A    between atoms: C19_34  and  N8_35 
ROOT
HETATM    1  N2  UNL     1      28.487  21.195  11.011  1.00  0.00    -0.220 N 
ATOM      2  H2  UNL     1      28.891  21.756  10.261  1.00  0.00     0.178 HD
HETATM    3  C7  UNL     1      27.725  21.780  11.860  1.00  0.00     0.707 A 
HETATM    4  N3  UNL     1      27.476  23.118  11.743  1.00  0.00    -0.022 N 
ATOM      5  H3  UNL     1      27.906  23.633  10.974  1.00  0.00     0.203 HD
HETATM    6  C8  UNL     1      26.688  23.778  12.600  1.00  0.00     0.707 A 
HETATM    7  N6  UNL     1      26.103  23.126  13.630  1.00  0.00    -0.022 N 
ATOM      8  H6  UNL     1      25.502  23.626  14.285  1.00  0.00     0.203 HD
HETATM    9  C13 UNL     1      26.331  21.785  13.779  1.00  0.00     0.707 A 
HETATM   10  N9  UNL     1      27.123  21.158  12.904  1.00  0.00    -0.022 N 
ATOM     11  H9  UNL     1      27.283  20.158  13.027  1.00  0.00     0.203 HD
ENDROOT
BRANCH   9  12
HETATM   12  N7  UNL     1      25.757  21.233  14.768  1.00  0.00    -0.225 N 
ATOM     13  H7  UNL     1      25.664  21.835  15.586  1.00  0.00     0.177 HD
BRANCH  12  14
HETATM   14  C14 UNL     1      25.224  19.937  14.943  1.00  0.00     0.138 C 
BRANCH  14  15
HETATM   15  C15 UNL     1      24.486  19.970  16.308  1.00  0.00     0.020 C 
BRANCH  15  16
HETATM   16  C16 UNL     1      25.479  19.658  17.358  1.00  0.00     0.002 C 
BRANCH  16  17
HETATM   17  C17 UNL     1      25.768  20.684  18.354  1.00  0.00     0.002 C 
BRANCH  17  18
HETATM   18  C18 UNL     1      25.759  22.109  17.989  1.00  0.00     0.027 C 
BRANCH  18  19
HETATM   19  C19 UNL     1      24.720  23.038  18.457  1.00  0.00     0.229 C 
BRANCH  19  20
HETATM   20  N8  UNL     1      24.154  22.779  19.748  1.00  0.00    -0.079 N 
ATOM     21  H83 UNL     1      23.218  22.389  19.637  1.00  0.00     0.274 HD
ATOM     22  H82 UNL     1      24.636  21.991  20.180  1.00  0.00     0.274 HD
ATOM     23  H81 UNL     1      24.123  23.559  20.403  1.00  0.00     0.274 HD
ENDBRANCH  19  20
ENDBRANCH  18  19
ENDBRANCH  17  18
ENDBRANCH  16  17
ENDBRANCH  15  16
ENDBRANCH  14  15
ENDBRANCH  12  14
ENDBRANCH   9  12
BRANCH   6  24
HETATM   24  N4  UNL     1      26.481  25.039  12.446  1.00  0.00    -0.225 N 
ATOM     25  H4  UNL     1      25.858  25.324  11.690  1.00  0.00     0.177 HD
BRANCH  24  26
HETATM   26  C9  UNL     1      27.058  26.080  13.258  1.00  0.00     0.138 C 
BRANCH  26  27
HETATM   27  C10 UNL     1      27.675  27.175  12.428  1.00  0.00     0.022 C 
BRANCH  27  28
HETATM   28  C11 UNL     1      27.240  27.107  10.981  1.00  0.00     0.029 C 
BRANCH  28  29
HETATM   29  C12 UNL     1      26.718  28.446  10.507  1.00  0.00     0.229 C 
BRANCH  29  30
HETATM   30  N5  UNL     1      25.409  28.690  11.088  1.00  0.00    -0.079 N 
ATOM     31  H53 UNL     1      24.794  27.881  11.006  1.00  0.00     0.274 HD
ATOM     32  H52 UNL     1      25.443  28.744  12.106  1.00  0.00     0.274 HD
ATOM     33  H51 UNL     1      25.002  29.528  10.671  1.00  0.00     0.274 HD
ENDBRANCH  29  30
ENDBRANCH  28  29
ENDBRANCH  27  28
ENDBRANCH  26  27
ENDBRANCH  24  26
ENDBRANCH   6  24
BRANCH   1  34
HETATM   34  C6  UNL     1      28.805  19.800  11.053  1.00  0.00     0.183 C 
BRANCH  34  35
HETATM   35  C5  UNL     1      29.913  19.357  10.170  1.00  0.00     0.088 C 
BRANCH  35  36
HETATM   36  N1  UNL     1      29.637  18.587   9.044  1.00  0.00    -0.353 N 
BRANCH  36  37
HETATM   37  C2  UNL     1      30.642  17.868   8.388  1.00  0.00     0.064 C 
HETATM   38  C1  UNL     1      31.991  18.550   8.500  1.00  0.00     0.055 C 
ENDBRANCH  36  37
BRANCH  36  39
HETATM   39  C3  UNL     1      28.316  18.476   8.575  1.00  0.00     0.064 C 
HETATM   40  C4  UNL     1      28.016  17.418   7.576  1.00  0.00     0.055 C 
ENDBRANCH  36  39
ENDBRANCH  35  36
ENDBRANCH  34  35
ENDBRANCH   1  34
TORSDOF 19
ENDMDL
MODEL 5
REMARK VINA RESULT: -6.261261983      1.209      1.884
REMARK  19 active torsions:
REMARK  status: ('A' for Active; 'I' for Inactive)
REMARK    1  A    between atoms: C2_2  and  N1_3 
REMARK    2  A    between atoms: N1_3  and  C3_4 
REMARK    3  A    between atoms: N1_3  and  C5_6 
REMARK    4  A    between atoms: C5_6  and  C6_7 
REMARK    5  A    between atoms: C6_7  and  N2_8 
REMARK    6  A    between atoms: C8_13  and  N4_14 
REMARK    7  A    between atoms: N4_14  and  C9_16 
REMARK    8  A    between atoms: C9_16  and  C10_17 
REMARK    9  A    between atoms: C10_17  and  C11_18 
REMARK   10  A    between atoms: C11_18  and  C12_19 
REMARK   11  A    between atoms: C12_19  and  N5_20 
REMARK   12  A    between atoms: C13_26  and  N7_27 
REMARK   13  A    between atoms: N7_27  and  C14_29 
REMARK   14  A    between atoms: C14_29  and  C15_30 
REMARK   15  A    between atoms: C15_30  and  C16_31 
REMARK   16  A    between atoms: C16_31  and  C17_32 
REMARK   17  A    between atoms: C17_32  and  C18_33 
REMARK   18  A    between atoms: C18_33  and  C19_34 
REMARK   19  A    between atoms: C19_34  and  N8_35 
ROOT
HETATM    1  N2  UNL     1      28.367  21.151  11.109  1.00  0.00    -0.220 N 
ATOM      2  H2  UNL     1      28.743  21.700  10.336  1.00  0.00     0.178 HD
HETATM    3  C7  UNL     1      27.659  21.755  11.991  1.00  0.00     0.707 A 
HETATM    4  N3  UNL     1      27.429  23.097  11.877  1.00  0.00    -0.022 N 
ATOM      5  H3  UNL     1      27.830  23.599  11.085  1.00  0.00     0.203 HD
HETATM    6  C8  UNL     1      26.696  23.776  12.767  1.00  0.00     0.707 A 
HETATM    7  N6  UNL     1      26.151  23.142  13.829  1.00  0.00    -0.022 N 
ATOM      8  H6  UNL     1      25.592  23.657  14.510  1.00  0.00     0.203 HD
HETATM    9  C13 UNL     1      26.362  21.798  13.976  1.00  0.00     0.707 A 
HETATM   10  N9  UNL     1      27.098  21.150  13.067  1.00  0.00    -0.022 N 
ATOM     11  H9  UNL     1      27.245  20.149  13.190  1.00  0.00     0.203 HD
ENDROOT
BRANCH   9  12
HETATM   12  N7  UNL     1      25.827  21.262  14.996  1.00  0.00    -0.225 N 
ATOM     13  H7  UNL     1      24.961  20.761  14.799  1.00  0.00     0.177 HD
BRANCH  12  14
HETATM   14  C14 UNL     1      26.213  21.233  16.354  1.00  0.00     0.138 C 
BRANCH  14  15
HETATM   15  C15 UNL     1      25.022  20.590  17.114  1.00  0.00     0.020 C 
BRANCH  15  16
HETATM   16  C16 UNL     1      24.124  19.990  16.105  1.00  0.00     0.002 C 
BRANCH  16  17
HETATM   17  C17 UNL     1      23.698  18.608  16.303  1.00  0.00     0.002 C 
BRANCH  17  18
HETATM   18  C18 UNL     1      24.410  17.501  15.645  1.00  0.00     0.027 C 
BRANCH  18  19
HETATM   19  C19 UNL     1      25.480  17.724  14.662  1.00  0.00     0.229 C 
BRANCH  19  20
HETATM   20  N8  UNL     1      26.817  17.819  15.171  1.00  0.00    -0.079 N 
ATOM     21  H83 UNL     1      27.320  16.955  14.971  1.00  0.00     0.274 HD
ATOM     22  H82 UNL     1      27.350  18.482  14.608  1.00  0.00     0.274 HD
ATOM     23  H81 UNL     1      26.919  18.052  16.158  1.00  0.00     0.274 HD
ENDBRANCH  19  20
ENDBRANCH  18  19
ENDBRANCH  17  18
ENDBRANCH  16  17
ENDBRANCH  15  16
ENDBRANCH  14  15
ENDBRANCH  12  14
ENDBRANCH   9  12
BRANCH   6  24
HETATM   24  N4  UNL     1      26.505  25.040  12.615  1.00  0.00    -0.225 N 
ATOM     25  H4  UNL     1      25.787  25.330  11.950  1.00  0.00     0.177 HD
BRANCH  24  26
HETATM   26  C9  UNL     1      27.224  26.078  13.309  1.00  0.00     0.138 C 
BRANCH  26  27
HETATM   27  C10 UNL     1      27.719  27.152  12.376  1.00  0.00     0.022 C 
BRANCH  27  28
HETATM   28  C11 UNL     1      27.030  27.100  11.032  1.00  0.00     0.029 C 
BRANCH  28  29
HETATM   29  C12 UNL     1      26.648  28.488  10.563  1.00  0.00     0.229 C 
BRANCH  29  30
HETATM   30  N5  UNL     1      25.305  28.803  11.021  1.00  0.00    -0.079 N 
ATOM     31  H53 UNL     1      24.588  28.377  10.434  1.00  0.00     0.274 HD
ATOM     32  H52 UNL     1      25.076  28.332  11.896  1.00  0.00     0.274 HD
ATOM     33  H51 UNL     1      25.197  29.815  11.089  1.00  0.00     0.274 HD
ENDBRANCH  29  30
ENDBRANCH  28  29
ENDBRANCH  27  28
ENDBRANCH  26  27
ENDBRANCH  24  26
ENDBRANCH   6  24
BRANCH   1  34
HETATM   34  C6  UNL     1      28.661  19.751  11.146  1.00  0.00     0.183 C 
BRANCH  34  35
HETATM   35  C5  UNL     1      29.078  19.139   9.859  1.00  0.00     0.088 C 
BRANCH  35  36
HETATM   36  N1  UNL     1      30.417  18.829   9.640  1.00  0.00    -0.353 N 
BRANCH  36  37
HETATM   37  C2  UNL     1      31.430  19.366  10.444  1.00  0.00     0.064 C 
HETATM   38  C1  UNL     1      32.148  20.512   9.760  1.00  0.00     0.055 C 
ENDBRANCH  36  37
BRANCH  36  39
HETATM   39  C3  UNL     1      30.773  17.919   8.629  1.00  0.00     0.064 C 
HETATM   40  C4  UNL     1      29.867  17.785   7.460  1.00  0.00     0.055 C 
ENDBRANCH  36  39
ENDBRANCH  35  36
ENDBRANCH  34  35
ENDBRANCH   1  34
TORSDOF 19
ENDMDL
