MODEL 1
REMARK VINA RESULT: -6.927883847      0.000      0.000
REMARK  17 active torsions:
REMARK  status: ('A' for Active; 'I' for Inactive)
REMARK    1  A    between atoms: N1_2  and  C3_4 
REMARK    2  A    between atoms: N1_2  and  C9_14 
REMARK    3  A    between atoms: C3_4  and  C4_5 
REMARK    4  A    between atoms: C4_5  and  C5_6 
REMARK    5  A    between atoms: C5_6  and  C6_7 
REMARK    6  A    between atoms: C6_7  and  C7_8 
REMARK    7  A    between atoms: C7_8  and  C8_9 
REMARK    8  A    between atoms: C8_9  and  N2_10 
REMARK    9  A    between atoms: C9_14  and  C10_15 
REMARK   10  A    between atoms: C10_15  and  C11_16 
REMARK   11  A    between atoms: C11_16  and  C12_17 
REMARK   12  A    between atoms: C12_17  and  C13_18 
REMARK   13  A    between atoms: C13_18  and  C14_19 
REMARK   14  A    between atoms: C14_19  and  N3_20 
REMARK   15  A    between atoms: C16_22  and  C17_23 
REMARK   16  A    between atoms: C17_23  and  N4_24 
REMARK       I    between atoms: N5_29  and  C19_30 
REMARK       I    between atoms: C19_30  and  N6_32 
REMARK   17  A    between atoms: N6_32  and  N7_34 
ROOT
HETATM    1  N3  UNL     1      28.860  20.115  11.226  1.00  0.00    -0.288 N 
HETATM    2  C15 UNL     1      28.585  19.227  12.214  1.00  0.00     0.121 A 
HETATM    3  C16 UNL     1      27.786  19.627  13.245  1.00  0.00     0.002 A 
HETATM    4  C18 UNL     1      27.297  20.910  13.237  1.00  0.00     0.133 A 
HETATM    5  N5  UNL     1      27.587  21.783  12.237  1.00  0.00    -0.200 N 
HETATM    6  C19 UNL     1      27.061  23.103  12.265  1.00  0.00     0.360 C 
HETATM    7  O1  UNL     1      26.330  23.456  13.218  1.00  0.00    -0.243 OA
HETATM    8  N6  UNL     1      27.350  24.016  11.243  1.00  0.00    -0.256 N 
ATOM      9  H6  UNL     1      27.946  23.726  10.468  1.00  0.00     0.191 HD
HETATM   10  N8  UNL     1      28.359  21.334  11.277  1.00  0.00    -0.231 N 
ATOM     11  H8  UNL     1      28.588  21.973  10.515  1.00  0.00     0.209 HD
ENDROOT
BRANCH   1  12
HETATM   12  C14 UNL     1      29.711  19.639  10.157  1.00  0.00     0.150 C 
BRANCH  12  13
HETATM   13  C13 UNL     1      31.002  20.439  10.083  1.00  0.00     0.022 C 
BRANCH  13  14
HETATM   14  C12 UNL     1      32.191  19.529   9.966  1.00  0.00     0.002 C 
BRANCH  14  15
HETATM   15  C11 UNL     1      32.553  18.858  11.272  1.00  0.00     0.002 C 
BRANCH  15  16
HETATM   16  C10 UNL     1      33.920  18.276  11.145  1.00  0.00     0.028 C 
BRANCH  16  17
HETATM   17  C9  UNL     1      34.799  19.236  10.374  1.00  0.00     0.236 C 
BRANCH  17  18
HETATM   18  N1  UNL     1      35.841  18.529   9.624  1.00  0.00    -0.075 N 
HETATM   19  C1  UNL     1      35.363  17.146   9.524  1.00  0.00     0.272 C 
HETATM   20  C2  UNL     1      35.777  19.046   8.285  1.00  0.00     0.272 C 
BRANCH  18  21
HETATM   21  C3  UNL     1      37.043  18.645  10.336  1.00  0.00     0.236 C 
BRANCH  21  22
HETATM   22  C4  UNL     1      37.606  17.530  11.105  1.00  0.00     0.028 C 
BRANCH  22  23
HETATM   23  C5  UNL     1      38.942  17.660  11.723  1.00  0.00     0.002 C 
BRANCH  23  24
HETATM   24  C6  UNL     1      39.947  18.382  10.848  1.00  0.00     0.002 C 
BRANCH  24  25
HETATM   25  C7  UNL     1      41.018  18.950  11.739  1.00  0.00     0.027 C 
BRANCH  25  26
HETATM   26  C8  UNL     1      40.542  20.116  12.549  1.00  0.00     0.229 C 
BRANCH  26  27
HETATM   27  N2  UNL     1      39.950  21.114  11.666  1.00  0.00    -0.079 N 
ATOM     28  H23 UNL     1      39.380  21.788  12.176  1.00  0.00     0.274 HD
ATOM     29  H22 UNL     1      40.646  21.761  11.296  1.00  0.00     0.274 HD
ATOM     30  H21 UNL     1      39.426  20.647  10.926  1.00  0.00     0.274 HD
ENDBRANCH  26  27
ENDBRANCH  25  26
ENDBRANCH  24  25
ENDBRANCH  23  24
ENDBRANCH  22  23
ENDBRANCH  21  22
ENDBRANCH  18  21
ENDBRANCH  17  18
ENDBRANCH  16  17
ENDBRANCH  15  16
ENDBRANCH  14  15
ENDBRANCH  13  14
ENDBRANCH  12  13
ENDBRANCH   1  12
BRANCH   3  31
HETATM   31  C17 UNL     1      27.471  18.656  14.348  1.00  0.00     0.271 C 
BRANCH  31  32
HETATM   32  N4  UNL     1      26.089  18.883  14.724  1.00  0.00    -0.075 N 
ATOM     33  H43 UNL     1      25.960  18.999  15.729  1.00  0.00     0.274 HD
ATOM     34  H42 UNL     1      25.742  19.800  14.443  1.00  0.00     0.274 HD
ATOM     35  H41 UNL     1      25.548  18.111  14.335  1.00  0.00     0.274 HD
ENDBRANCH  31  32
ENDBRANCH   3  31
BRANCH   8  36
HETATM   36  N7  UNL     1      26.834  25.320  11.264  1.00  0.00    -0.341 N 
ATOM     37  H72 UNL     1      26.882  25.846  12.138  1.00  0.00     0.177 HD
ATOM     38  H71 UNL     1      26.420  25.740  10.432  1.00  0.00     0.177 HD
ENDBRANCH   8  36
TORSDOF 17
ENDMDL
MODEL 2
REMARK VINA RESULT: -6.543709522      1.973      3.817
REMARK  17 active torsions:
REMARK  status: ('A' for Active; 'I' for Inactive)
REMARK    1  A    between atoms: N1_2  and  C3_4 
REMARK    2  A    between atoms: N1_2  and  C9_14 
REMARK    3  A    between atoms: C3_4  and  C4_5 
REMARK    4  A    between atoms: C4_5  and  C5_6 
REMARK    5  A    between atoms: C5_6  and  C6_7 
REMARK    6  A    between atoms: C6_7  and  C7_8 
REMARK    7  A    between atoms: C7_8  and  C8_9 
REMARK    8  A    between atoms: C8_9  and  N2_10 
REMARK    9  A    between atoms: C9_14  and  C10_15 
REMARK   10  A    between atoms: C10_15  and  C11_16 
REMARK   11  A    between atoms: C11_16  and  C12_17 
REMARK   12  A    between atoms: C12_17  and  C13_18 
REMARK   13  A    between atoms: C13_18  and  C14_19 
REMARK   14  A    between atoms: C14_19  and  N3_20 
REMARK   15  A    between atoms: C16_22  and  C17_23 
REMARK   16  A    between atoms: C17_23  and  N4_24 
REMARK       I    between atoms: N5_29  and  C19_30 
REMARK       I    between atoms: C19_30  and  N6_32 
REMARK   17  A    between atoms: N6_32  and  N7_34 
ROOT
HETATM    1  N3  UNL     1      28.650  19.331  11.871  1.00  0.00    -0.288 N 
HETATM    2  C15 UNL     1      28.281  20.528  11.349  1.00  0.00     0.121 A 
HETATM    3  C16 UNL     1      27.579  21.393  12.136  1.00  0.00     0.002 A 
HETATM    4  C18 UNL     1      27.277  21.014  13.420  1.00  0.00     0.133 A 
HETATM    5  N5  UNL     1      27.655  19.810  13.923  1.00  0.00    -0.200 N 
HETATM    6  C19 UNL     1      27.323  19.455  15.258  1.00  0.00     0.360 C 
HETATM    7  O1  UNL     1      26.678  20.259  15.968  1.00  0.00    -0.243 OA
HETATM    8  N6  UNL     1      27.706  18.218  15.791  1.00  0.00    -0.256 N 
ATOM      9  H6  UNL     1      28.231  17.564  15.211  1.00  0.00     0.191 HD
HETATM   10  N8  UNL     1      28.328  19.027  13.114  1.00  0.00    -0.231 N 
ATOM     11  H8  UNL     1      28.624  18.118  13.471  1.00  0.00     0.209 HD
ENDROOT
BRANCH   1  12
HETATM   12  C14 UNL     1      29.393  18.452  10.994  1.00  0.00     0.150 C 
BRANCH  12  13
HETATM   13  C13 UNL     1      28.772  18.405   9.607  1.00  0.00     0.022 C 
BRANCH  13  14
HETATM   14  C12 UNL     1      29.822  18.563   8.544  1.00  0.00     0.002 C 
BRANCH  14  15
HETATM   15  C11 UNL     1      30.561  17.278   8.248  1.00  0.00     0.002 C 
BRANCH  15  16
HETATM   16  C10 UNL     1      32.015  17.584   8.120  1.00  0.00     0.028 C 
BRANCH  16  17
HETATM   17  C9  UNL     1      32.262  19.011   8.558  1.00  0.00     0.236 C 
BRANCH  17  18
HETATM   18  N1  UNL     1      33.582  19.165   9.176  1.00  0.00    -0.075 N 
HETATM   19  C1  UNL     1      34.334  20.021   8.252  1.00  0.00     0.272 C 
HETATM   20  C2  UNL     1      33.373  19.969  10.347  1.00  0.00     0.272 C 
BRANCH  18  21
HETATM   21  C3  UNL     1      34.143  17.889   9.323  1.00  0.00     0.236 C 
BRANCH  21  22
HETATM   22  C4  UNL     1      35.582  17.646   9.172  1.00  0.00     0.028 C 
BRANCH  22  23
HETATM   23  C5  UNL     1      36.370  17.144  10.316  1.00  0.00     0.002 C 
BRANCH  23  24
HETATM   24  C6  UNL     1      37.444  18.107  10.782  1.00  0.00     0.002 C 
BRANCH  24  25
HETATM   25  C7  UNL     1      38.423  17.339  11.629  1.00  0.00     0.027 C 
BRANCH  25  26
HETATM   26  C8  UNL     1      39.605  18.161  12.040  1.00  0.00     0.229 C 
BRANCH  26  27
HETATM   27  N2  UNL     1      40.824  17.558  11.515  1.00  0.00    -0.079 N 
ATOM     28  H23 UNL     1      40.700  17.201  10.568  1.00  0.00     0.274 HD
ATOM     29  H22 UNL     1      41.543  18.255  11.316  1.00  0.00     0.274 HD
ATOM     30  H21 UNL     1      41.154  16.838  12.159  1.00  0.00     0.274 HD
ENDBRANCH  26  27
ENDBRANCH  25  26
ENDBRANCH  24  25
ENDBRANCH  23  24
ENDBRANCH  22  23
ENDBRANCH  21  22
ENDBRANCH  18  21
ENDBRANCH  17  18
ENDBRANCH  16  17
ENDBRANCH  15  16
ENDBRANCH  14  15
ENDBRANCH  13  14
ENDBRANCH  12  13
ENDBRANCH   1  12
BRANCH   3  31
HETATM   31  C17 UNL     1      27.162  22.723  11.573  1.00  0.00     0.271 C 
BRANCH  31  32
HETATM   32  N4  UNL     1      25.944  22.496  10.821  1.00  0.00    -0.075 N 
ATOM     33  H43 UNL     1      26.044  22.693   9.825  1.00  0.00     0.274 HD
ATOM     34  H42 UNL     1      25.704  21.509  10.733  1.00  0.00     0.274 HD
ATOM     35  H41 UNL     1      25.214  23.050  11.269  1.00  0.00     0.274 HD
ENDBRANCH  31  32
ENDBRANCH   3  31
BRANCH   8  36
HETATM   36  N7  UNL     1      27.381  17.861  17.109  1.00  0.00    -0.341 N 
ATOM     37  H72 UNL     1      26.813  18.505  17.659  1.00  0.00     0.177 HD
ATOM     38  H71 UNL     1      27.701  16.981  17.513  1.00  0.00     0.177 HD
ENDBRANCH   8  36
TORSDOF 17
ENDMDL
MODEL 3
REMARK VINA RESULT: -6.399751044      1.408      1.776
REMARK  17 active torsions:
REMARK  status: ('A' for Active; 'I' for Inactive)
REMARK    1  A    between atoms: N1_2  and  C3_4 
REMARK    2  A    between atoms: N1_2  and  C9_14 
REMARK    3  A    between atoms: C3_4  and  C4_5 
REMARK    4  A    between atoms: C4_5  and  C5_6 
REMARK    5  A    between atoms: C5_6  and  C6_7 
REMARK    6  A    between atoms: C6_7  and  C7_8 
REMARK    7  A    between atoms: C7_8  and  C8_9 
REMARK    8  A    between atoms: C8_9  and  N2_10 
REMARK    9  A    between atoms: C9_14  and  C10_15 
REMARK   10  A    between atoms: C10_15  and  C11_16 
REMARK   11  A    between atoms: C11_16  and  C12_17 
REMARK   12  A    between atoms: C12_17  and  C13_18 
REMARK   13  A    between atoms: C13_18  and  C14_19 
REMARK   14  A    between atoms: C14_19  and  N3_20 
REMARK   15  A    between atoms: C16_22  and  C17_23 
REMARK   16  A    between atoms: C17_23  and  N4_24 
REMARK       I    between atoms: N5_29  and  C19_30 
REMARK       I    between atoms: C19_30  and  N6_32 
REMARK   17  A    between atoms: N6_32  and  N7_34 
ROOT
HETATM    1  N3  UNL     1      28.081  21.057  11.657  1.00  0.00    -0.288 N 
HETATM    2  C15 UNL     1      27.698  20.472  12.820  1.00  0.00     0.121 A 
HETATM    3  C16 UNL     1      27.140  21.254  13.789  1.00  0.00     0.002 A 
HETATM    4  C18 UNL     1      26.990  22.596  13.544  1.00  0.00     0.133 A 
HETATM    5  N5  UNL     1      27.381  23.161  12.372  1.00  0.00    -0.200 N 
HETATM    6  C19 UNL     1      27.208  24.555  12.157  1.00  0.00     0.360 C 
HETATM    7  O1  UNL     1      26.695  25.259  13.055  1.00  0.00    -0.243 OA
HETATM    8  N6  UNL     1      27.605  25.153  10.955  1.00  0.00    -0.256 N 
ATOM      9  H6  UNL     1      28.023  24.578  10.224  1.00  0.00     0.191 HD
HETATM   10  N8  UNL     1      27.909  22.354  11.484  1.00  0.00    -0.231 N 
ATOM     11  H8  UNL     1      28.208  22.757  10.595  1.00  0.00     0.209 HD
ENDROOT
BRANCH   1  12
HETATM   12  C14 UNL     1      28.666  20.183  10.663  1.00  0.00     0.150 C 
BRANCH  12  13
HETATM   13  C13 UNL     1      29.055  18.844  11.269  1.00  0.00     0.022 C 
BRANCH  13  14
HETATM   14  C12 UNL     1      30.247  18.262  10.564  1.00  0.00     0.002 C 
BRANCH  14  15
HETATM   15  C11 UNL     1      31.297  19.297  10.226  1.00  0.00     0.002 C 
BRANCH  15  16
HETATM   16  C10 UNL     1      32.338  18.657   9.372  1.00  0.00     0.028 C 
BRANCH  16  17
HETATM   17  C9  UNL     1      33.703  18.934   9.962  1.00  0.00     0.236 C 
BRANCH  17  18
HETATM   18  N1  UNL     1      34.749  18.913   8.935  1.00  0.00    -0.075 N 
HETATM   19  C1  UNL     1      34.420  17.763   8.085  1.00  0.00     0.272 C 
HETATM   20  C2  UNL     1      34.513  20.067   8.113  1.00  0.00     0.272 C 
BRANCH  18  21
HETATM   21  C3  UNL     1      35.987  18.783   9.580  1.00  0.00     0.236 C 
BRANCH  21  22
HETATM   22  C4  UNL     1      36.160  17.959  10.781  1.00  0.00     0.028 C 
BRANCH  22  23
HETATM   23  C5  UNL     1      37.501  17.458  11.145  1.00  0.00     0.002 C 
BRANCH  23  24
HETATM   24  C6  UNL     1      38.589  18.509  11.045  1.00  0.00     0.002 C 
BRANCH  24  25
HETATM   25  C7  UNL     1      39.906  17.846  11.343  1.00  0.00     0.027 C 
BRANCH  25  26
HETATM   26  C8  UNL     1      40.489  18.274  12.655  1.00  0.00     0.229 C 
BRANCH  26  27
HETATM   27  N2  UNL     1      41.020  19.626  12.535  1.00  0.00    -0.079 N 
ATOM     28  H23 UNL     1      42.003  19.677  12.800  1.00  0.00     0.274 HD
ATOM     29  H22 UNL     1      41.115  19.917  11.563  1.00  0.00     0.274 HD
ATOM     30  H21 UNL     1      40.441  20.269  13.075  1.00  0.00     0.274 HD
ENDBRANCH  26  27
ENDBRANCH  25  26
ENDBRANCH  24  25
ENDBRANCH  23  24
ENDBRANCH  22  23
ENDBRANCH  21  22
ENDBRANCH  18  21
ENDBRANCH  17  18
ENDBRANCH  16  17
ENDBRANCH  15  16
ENDBRANCH  14  15
ENDBRANCH  13  14
ENDBRANCH  12  13
ENDBRANCH   1  12
BRANCH   3  31
HETATM   31  C17 UNL     1      26.711  20.621  15.084  1.00  0.00     0.271 C 
BRANCH  31  32
HETATM   32  N4  UNL     1      25.920  21.609  15.790  1.00  0.00    -0.075 N 
ATOM     33  H43 UNL     1      26.479  22.226  16.379  1.00  0.00     0.274 HD
ATOM     34  H42 UNL     1      25.536  22.329  15.178  1.00  0.00     0.274 HD
ATOM     35  H41 UNL     1      25.205  21.098  16.307  1.00  0.00     0.274 HD
ENDBRANCH  31  32
ENDBRANCH   3  31
BRANCH   8  36
HETATM   36  N7  UNL     1      27.438  26.529  10.736  1.00  0.00    -0.341 N 
ATOM     37  H72 UNL     1      26.747  27.028  11.297  1.00  0.00     0.177 HD
ATOM     38  H71 UNL     1      27.989  27.026  10.036  1.00  0.00     0.177 HD
ENDBRANCH   8  36
TORSDOF 17
ENDMDL
MODEL 4
REMARK VINA RESULT: -5.991127906      7.774     11.244
REMARK  17 active torsions:
REMARK  status: ('A' for Active; 'I' for Inactive)
REMARK    1  A    between atoms: N1_2  and  C3_4 
REMARK    2  A    between atoms: N1_2  and  C9_14 
REMARK    3  A    between atoms: C3_4  and  C4_5 
REMARK    4  A    between atoms: C4_5  and  C5_6 
REMARK    5  A    between atoms: C5_6  and  C6_7 
REMARK    6  A    between atoms: C6_7  and  C7_8 
REMARK    7  A    between atoms: C7_8  and  C8_9 
REMARK    8  A    between atoms: C8_9  and  N2_10 
REMARK    9  A    between atoms: C9_14  and  C10_15 
REMARK   10  A    between atoms: C10_15  and  C11_16 
REMARK   11  A    between atoms: C11_16  and  C12_17 
REMARK   12  A    between atoms: C12_17  and  C13_18 
REMARK   13  A    between atoms: C13_18  and  C14_19 
REMARK   14  A    between atoms: C14_19  and  N3_20 
REMARK   15  A    between atoms: C16_22  and  C17_23 
REMARK   16  A    between atoms: C17_23  and  N4_24 
REMARK       I    between atoms: N5_29  and  C19_30 
REMARK       I    between atoms: C19_30  and  N6_32 
REMARK   17  A    between atoms: N6_32  and  N7_34 
ROOT
HETATM    1  N3  UNL     1      26.882  24.285  15.214  1.00  0.00    -0.288 N 
HETATM    2  C15 UNL     1      27.007  22.942  15.068  1.00  0.00     0.121 A 
HETATM    3  C16 UNL     1      27.184  22.437  13.813  1.00  0.00     0.002 A 
HETATM    4  C18 UNL     1      27.230  23.309  12.755  1.00  0.00     0.133 A 
HETATM    5  N5  UNL     1      27.103  24.652  12.923  1.00  0.00    -0.200 N 
HETATM    6  C19 UNL     1      27.155  25.522  11.802  1.00  0.00     0.360 C 
HETATM    7  O1  UNL     1      27.318  25.044  10.657  1.00  0.00    -0.243 OA
HETATM    8  N6  UNL     1      27.026  26.908  11.959  1.00  0.00    -0.256 N 
ATOM      9  H6  UNL     1      26.893  27.295  12.892  1.00  0.00     0.191 HD
HETATM   10  N8  UNL     1      26.935  25.070  14.155  1.00  0.00    -0.231 N 
ATOM     11  H8  UNL     1      26.839  26.075  14.305  1.00  0.00     0.209 HD
ENDROOT
BRANCH   1  12
HETATM   12  C14 UNL     1      26.697  24.767  16.565  1.00  0.00     0.150 C 
BRANCH  12  13
HETATM   13  C13 UNL     1      27.218  23.766  17.584  1.00  0.00     0.022 C 
BRANCH  13  14
HETATM   14  C12 UNL     1      26.470  23.881  18.881  1.00  0.00     0.002 C 
BRANCH  14  15
HETATM   15  C11 UNL     1      25.016  23.481  18.762  1.00  0.00     0.002 C 
BRANCH  15  16
HETATM   16  C10 UNL     1      24.623  22.744  19.998  1.00  0.00     0.028 C 
BRANCH  16  17
HETATM   17  C9  UNL     1      25.828  22.617  20.904  1.00  0.00     0.236 C 
BRANCH  17  18
HETATM   18  N1  UNL     1      25.843  21.329  21.604  1.00  0.00    -0.075 N 
HETATM   19  C1  UNL     1      26.887  21.466  22.625  1.00  0.00     0.272 C 
HETATM   20  C2  UNL     1      24.608  21.268  22.335  1.00  0.00     0.272 C 
BRANCH  18  21
HETATM   21  C3  UNL     1      26.122  20.327  20.663  1.00  0.00     0.236 C 
BRANCH  21  22
HETATM   22  C4  UNL     1      27.302  20.379  19.794  1.00  0.00     0.028 C 
BRANCH  22  23
HETATM   23  C5  UNL     1      27.163  20.123  18.345  1.00  0.00     0.002 C 
BRANCH  23  24
HETATM   24  C6  UNL     1      25.863  19.440  17.972  1.00  0.00     0.002 C 
BRANCH  24  25
HETATM   25  C7  UNL     1      25.168  20.290  16.943  1.00  0.00     0.027 C 
BRANCH  25  26
HETATM   26  C8  UNL     1      24.081  19.556  16.221  1.00  0.00     0.229 C 
BRANCH  26  27
HETATM   27  N2  UNL     1      22.873  20.371  16.199  1.00  0.00    -0.079 N 
ATOM     28  H23 UNL     1      22.966  21.180  15.585  1.00  0.00     0.274 HD
ATOM     29  H22 UNL     1      22.104  19.907  15.715  1.00  0.00     0.274 HD
ATOM     30  H21 UNL     1      22.623  20.637  17.152  1.00  0.00     0.274 HD
ENDBRANCH  26  27
ENDBRANCH  25  26
ENDBRANCH  24  25
ENDBRANCH  23  24
ENDBRANCH  22  23
ENDBRANCH  21  22
ENDBRANCH  18  21
ENDBRANCH  17  18
ENDBRANCH  16  17
ENDBRANCH  15  16
ENDBRANCH  14  15
ENDBRANCH  13  14
ENDBRANCH  12  13
ENDBRANCH   1  12
BRANCH   3  31
HETATM   31  C17 UNL     1      27.323  20.950  13.634  1.00  0.00     0.271 C 
BRANCH  31  32
HETATM   32  N4  UNL     1      28.074  20.460  14.772  1.00  0.00    -0.075 N 
ATOM     33  H43 UNL     1      28.089  19.442  14.836  1.00  0.00     0.274 HD
ATOM     34  H42 UNL     1      29.080  20.598  14.680  1.00  0.00     0.274 HD
ATOM     35  H41 UNL     1      27.681  20.909  15.600  1.00  0.00     0.274 HD
ENDBRANCH  31  32
ENDBRANCH   3  31
BRANCH   8  36
HETATM   36  N7  UNL     1      27.077  27.774  10.855  1.00  0.00    -0.341 N 
ATOM     37  H72 UNL     1      26.212  27.966  10.350  1.00  0.00     0.177 HD
ATOM     38  H71 UNL     1      27.953  28.204  10.559  1.00  0.00     0.177 HD
ENDBRANCH   8  36
TORSDOF 17
ENDMDL
MODEL 5
REMARK VINA RESULT: -5.951201507      7.837     10.666
REMARK  17 active torsions:
REMARK  status: ('A' for Active; 'I' for Inactive)
REMARK    1  A    between atoms: N1_2  and  C3_4 
REMARK    2  A    between atoms: N1_2  and  C9_14 
REMARK    3  A    between atoms: C3_4  and  C4_5 
REMARK    4  A    between atoms: C4_5  and  C5_6 
REMARK    5  A    between atoms: C5_6  and  C6_7 
REMARK    6  A    between atoms: C6_7  and  C7_8 
REMARK    7  A    between atoms: C7_8  and  C8_9 
REMARK    8  A    between atoms: C8_9  and  N2_10 
REMARK    9  A    between atoms: C9_14  and  C10_15 
REMARK   10  A    between atoms: C10_15  and  C11_16 
REMARK   11  A    between atoms: C11_16  and  C12_17 
REMARK   12  A    between atoms: C12_17  and  C13_18 
REMARK   13  A    between atoms: C13_18  and  C14_19 
REMARK   14  A    between atoms: C14_19  and  N3_20 
REMARK   15  A    between atoms: C16_22  and  C17_23 
REMARK   16  A    between atoms: C17_23  and  N4_24 
REMARK       I    between atoms: N5_29  and  C19_30 
REMARK       I    between atoms: C19_30  and  N6_32 
REMARK   17  A    between atoms: N6_32  and  N7_34 
ROOT
HETATM    1  N3  UNL     1      26.941  24.544  15.203  1.00  0.00    -0.288 N 
HETATM    2  C15 UNL     1      27.042  23.199  15.059  1.00  0.00     0.121 A 
HETATM    3  C16 UNL     1      27.219  22.690  13.805  1.00  0.00     0.002 A 
HETATM    4  C18 UNL     1      27.286  23.561  12.747  1.00  0.00     0.133 A 
HETATM    5  N5  UNL     1      27.182  24.906  12.914  1.00  0.00    -0.200 N 
HETATM    6  C19 UNL     1      27.257  25.775  11.792  1.00  0.00     0.360 C 
HETATM    7  O1  UNL     1      27.419  25.294  10.649  1.00  0.00    -0.243 OA
HETATM    8  N6  UNL     1      27.152  27.163  11.948  1.00  0.00    -0.256 N 
ATOM      9  H6  UNL     1      27.020  27.553  12.881  1.00  0.00     0.191 HD
HETATM   10  N8  UNL     1      27.015  25.328  14.144  1.00  0.00    -0.231 N 
ATOM     11  H8  UNL     1      26.935  26.334  14.294  1.00  0.00     0.209 HD
ENDROOT
BRANCH   1  12
HETATM   12  C14 UNL     1      26.756  25.031  16.553  1.00  0.00     0.150 C 
BRANCH  12  13
HETATM   13  C13 UNL     1      26.605  23.881  17.537  1.00  0.00     0.022 C 
BRANCH  13  14
HETATM   14  C12 UNL     1      25.277  23.944  18.236  1.00  0.00     0.002 C 
BRANCH  14  15
HETATM   15  C11 UNL     1      24.672  22.579  18.479  1.00  0.00     0.002 C 
BRANCH  15  16
HETATM   16  C10 UNL     1      25.737  21.550  18.307  1.00  0.00     0.028 C 
BRANCH  16  17
HETATM   17  C9  UNL     1      25.983  20.864  19.633  1.00  0.00     0.236 C 
BRANCH  17  18
HETATM   18  N1  UNL     1      27.039  19.853  19.529  1.00  0.00    -0.075 N 
HETATM   19  C1  UNL     1      28.179  20.421  20.256  1.00  0.00     0.272 C 
HETATM   20  C2  UNL     1      26.598  18.744  20.329  1.00  0.00     0.272 C 
BRANCH  18  21
HETATM   21  C3  UNL     1      27.304  19.640  18.169  1.00  0.00     0.236 C 
BRANCH  21  22
HETATM   22  C4  UNL     1      27.372  18.295  17.587  1.00  0.00     0.028 C 
BRANCH  22  23
HETATM   23  C5  UNL     1      26.380  17.879  16.575  1.00  0.00     0.002 C 
BRANCH  23  24
HETATM   24  C6  UNL     1      24.950  18.206  16.957  1.00  0.00     0.002 C 
BRANCH  24  25
HETATM   25  C7  UNL     1      24.319  18.947  15.810  1.00  0.00     0.027 C 
BRANCH  25  26
HETATM   26  C8  UNL     1      23.186  19.827  16.239  1.00  0.00     0.229 C 
BRANCH  26  27
HETATM   27  N2  UNL     1      21.951  19.054  16.268  1.00  0.00    -0.079 N 
ATOM     28  H23 UNL     1      21.360  19.243  15.458  1.00  0.00     0.274 HD
ATOM     29  H22 UNL     1      22.115  18.061  16.100  1.00  0.00     0.274 HD
ATOM     30  H21 UNL     1      21.464  19.221  17.149  1.00  0.00     0.274 HD
ENDBRANCH  26  27
ENDBRANCH  25  26
ENDBRANCH  24  25
ENDBRANCH  23  24
ENDBRANCH  22  23
ENDBRANCH  21  22
ENDBRANCH  18  21
ENDBRANCH  17  18
ENDBRANCH  16  17
ENDBRANCH  15  16
ENDBRANCH  14  15
ENDBRANCH  13  14
ENDBRANCH  12  13
ENDBRANCH   1  12
BRANCH   3  31
HETATM   31  C17 UNL     1      27.331  21.202  13.627  1.00  0.00     0.271 C 
BRANCH  31  32
HETATM   32  N4  UNL     1      27.904  20.677  14.851  1.00  0.00    -0.075 N 
ATOM     33  H43 UNL     1      28.920  20.759  14.887  1.00  0.00     0.274 HD
ATOM     34  H42 UNL     1      27.699  21.250  15.669  1.00  0.00     0.274 HD
ATOM     35  H41 UNL     1      27.575  19.715  14.941  1.00  0.00     0.274 HD
ENDBRANCH  31  32
ENDBRANCH   3  31
BRANCH   8  36
HETATM   36  N7  UNL     1      27.226  28.027  10.844  1.00  0.00    -0.341 N 
ATOM     37  H72 UNL     1      26.551  27.905  10.089  1.00  0.00     0.177 HD
ATOM     38  H71 UNL     1      27.933  28.760  10.792  1.00  0.00     0.177 HD
ENDBRANCH   8  36
TORSDOF 17
ENDMDL
