MODEL 1
REMARK VINA RESULT: -8.188970980      0.000      0.000
REMARK  2 active torsions:
REMARK  status: ('A' for Active; 'I' for Inactive)
REMARK    1  A    between atoms: C1_2  and  C2_3 
REMARK       I    between atoms: C1_2  and  N3_14 
REMARK    2  A    between atoms: N4_18  and  C11_19 
ROOT
HETATM    1  O1  UNL     1      11.838   9.372   1.831  1.00  0.00    -0.271 OA
HETATM    2  C1  UNL     1      11.295   8.630   2.715  1.00  0.00     0.242 C 
HETATM    3  N3  UNL     1       9.943   8.835   3.003  1.00  0.00    -0.349 N 
HETATM    4  C8  UNL     1       9.050   9.815   2.410  1.00  0.00     0.136 C 
HETATM    5  C9  UNL     1       7.746   9.039   2.358  1.00  0.00     0.053 C 
HETATM    6  C10 UNL     1       6.523   9.920   2.441  1.00  0.00     0.070 C 
HETATM    7  N4  UNL     1       6.267  10.008   3.800  1.00  0.00    -0.368 N 
HETATM    8  C14 UNL     1       7.065   9.202   4.589  1.00  0.00     0.070 C 
HETATM    9  C15 UNL     1       7.729   8.229   3.645  1.00  0.00     0.053 C 
HETATM   10  C16 UNL     1       9.194   8.041   3.975  1.00  0.00     0.136 C 
ENDROOT
BRANCH   2  11
HETATM   11  C2  UNL     1      12.139   7.602   3.363  1.00  0.00     0.175 C 
HETATM   12  N1  UNL     1      13.300   7.308   2.548  1.00  0.00    -0.407 N 
HETATM   13  C3  UNL     1      14.467   8.064   2.789  1.00  0.00     0.147 C 
ATOM     14  H1  UNL     1      13.275   6.586   1.829  1.00  0.00     0.154 HD
HETATM   15  C4  UNL     1      14.788   8.259   4.260  1.00  0.00     0.203 C 
HETATM   16  C5  UNL     1      13.599   9.077   4.802  1.00  0.00     0.043 C 
HETATM   17  N2  UNL     1      14.678   7.009   4.960  1.00  0.00    -0.069 N 
HETATM   18  C6  UNL     1      12.528   8.013   4.775  1.00  0.00     0.045 C 
HETATM   19  C7  UNL     1      13.291   6.850   5.381  1.00  0.00     0.239 C 
ATOM     20  H22 UNL     1      15.018   6.219   4.412  1.00  0.00     0.277 HD
ATOM     21  H21 UNL     1      15.336   6.931   5.734  1.00  0.00     0.277 HD
ENDBRANCH   2  11
BRANCH   7  22
HETATM   22  C11 UNL     1       5.110  10.627   4.287  1.00  0.00     0.088 A 
HETATM   23  C12 UNL     1       3.823   9.816   3.973  1.00  0.00     0.028 A 
HETATM   24  C13 UNL     1       4.337   9.965   5.363  1.00  0.00     0.028 A 
ENDBRANCH   7  22
TORSDOF 2
ENDMDL
MODEL 2
REMARK VINA RESULT: -8.057427845      1.410      1.934
REMARK  2 active torsions:
REMARK  status: ('A' for Active; 'I' for Inactive)
REMARK    1  A    between atoms: C1_2  and  C2_3 
REMARK       I    between atoms: C1_2  and  N3_14 
REMARK    2  A    between atoms: N4_18  and  C11_19 
ROOT
HETATM    1  O1  UNL     1      13.185   9.466   2.507  1.00  0.00    -0.271 OA
HETATM    2  C1  UNL     1      12.699   8.484   3.161  1.00  0.00     0.242 C 
HETATM    3  N3  UNL     1      11.317   8.454   3.366  1.00  0.00    -0.349 N 
HETATM    4  C8  UNL     1      10.334   9.426   2.920  1.00  0.00     0.136 C 
HETATM    5  C9  UNL     1       9.155   8.529   2.589  1.00  0.00     0.053 C 
HETATM    6  C10 UNL     1       7.820   9.215   2.750  1.00  0.00     0.070 C 
HETATM    7  N4  UNL     1       7.474   8.964   4.069  1.00  0.00    -0.368 N 
HETATM    8  C14 UNL     1       8.328   8.105   4.735  1.00  0.00     0.070 C 
HETATM    9  C15 UNL     1       9.174   7.457   3.667  1.00  0.00     0.053 C 
HETATM   10  C16 UNL     1      10.628   7.379   4.076  1.00  0.00     0.136 C 
ENDROOT
BRANCH   2  11
HETATM   11  C2  UNL     1      13.636   7.448   3.646  1.00  0.00     0.175 C 
HETATM   12  N1  UNL     1      13.881   6.460   2.615  1.00  0.00    -0.407 N 
HETATM   13  C3  UNL     1      14.970   6.686   1.747  1.00  0.00     0.147 C 
ATOM     14  H1  UNL     1      13.290   5.634   2.520  1.00  0.00     0.154 HD
HETATM   15  C4  UNL     1      16.230   7.166   2.443  1.00  0.00     0.203 C 
HETATM   16  C5  UNL     1      15.837   8.531   3.043  1.00  0.00     0.043 C 
HETATM   17  N2  UNL     1      16.493   6.358   3.602  1.00  0.00    -0.069 N 
HETATM   18  C6  UNL     1      14.930   8.065   4.156  1.00  0.00     0.045 C 
HETATM   19  C7  UNL     1      15.765   6.934   4.727  1.00  0.00     0.239 C 
ATOM     20  H22 UNL     1      16.274   5.373   3.454  1.00  0.00     0.277 HD
ATOM     21  H21 UNL     1      17.489   6.249   3.790  1.00  0.00     0.277 HD
ENDBRANCH   2  11
BRANCH   7  22
HETATM   22  C11 UNL     1       6.215   9.314   4.574  1.00  0.00     0.088 A 
HETATM   23  C12 UNL     1       6.223  10.692   5.290  1.00  0.00     0.028 A 
HETATM   24  C13 UNL     1       5.509  10.482   4.000  1.00  0.00     0.028 A 
ENDBRANCH   7  22
TORSDOF 2
ENDMDL
MODEL 3
REMARK VINA RESULT: -7.913715027      2.236      2.865
REMARK  2 active torsions:
REMARK  status: ('A' for Active; 'I' for Inactive)
REMARK    1  A    between atoms: C1_2  and  C2_3 
REMARK       I    between atoms: C1_2  and  N3_14 
REMARK    2  A    between atoms: N4_18  and  C11_19 
ROOT
HETATM    1  O1  UNL     1       9.696  10.393  -0.671  1.00  0.00    -0.271 OA
HETATM    2  C1  UNL     1       9.821   9.897   0.498  1.00  0.00     0.242 C 
HETATM    3  N3  UNL     1       8.683   9.825   1.305  1.00  0.00    -0.349 N 
HETATM    4  C8  UNL     1       7.336  10.258   0.976  1.00  0.00     0.136 C 
HETATM    5  C9  UNL     1       6.502   9.199   1.674  1.00  0.00     0.053 C 
HETATM    6  C10 UNL     1       5.142   9.695   2.102  1.00  0.00     0.070 C 
HETATM    7  N4  UNL     1       5.354  10.187   3.380  1.00  0.00    -0.368 N 
HETATM    8  C14 UNL     1       6.619   9.954   3.884  1.00  0.00     0.070 C 
HETATM    9  C15 UNL     1       7.242   8.923   2.975  1.00  0.00     0.053 C 
HETATM   10  C16 UNL     1       8.681   9.259   2.652  1.00  0.00     0.136 C 
ENDROOT
BRANCH   2  11
HETATM   11  C2  UNL     1      11.164   9.428   0.906  1.00  0.00     0.175 C 
HETATM   12  N1  UNL     1      12.121   9.630  -0.163  1.00  0.00    -0.407 N 
HETATM   13  C3  UNL     1      12.825  10.853  -0.179  1.00  0.00     0.147 C 
ATOM     14  H1  UNL     1      12.279   8.918  -0.876  1.00  0.00     0.154 HD
HETATM   15  C4  UNL     1      13.328  11.297   1.183  1.00  0.00     0.203 C 
HETATM   16  C5  UNL     1      12.044  11.523   2.006  1.00  0.00     0.043 C 
HETATM   17  N2  UNL     1      13.965  10.199   1.856  1.00  0.00    -0.069 N 
HETATM   18  C6  UNL     1      11.613  10.090   2.200  1.00  0.00     0.045 C 
HETATM   19  C7  UNL     1      12.939   9.459   2.582  1.00  0.00     0.239 C 
ATOM     20  H22 UNL     1      14.505   9.609   1.225  1.00  0.00     0.277 HD
ATOM     21  H21 UNL     1      14.735  10.497   2.455  1.00  0.00     0.277 HD
ENDBRANCH   2  11
BRANCH   7  22
HETATM   22  C11 UNL     1       4.289  10.608   4.186  1.00  0.00     0.088 A 
HETATM   23  C12 UNL     1       3.687   9.452   5.030  1.00  0.00     0.028 A 
HETATM   24  C13 UNL     1       4.443  10.572   5.659  1.00  0.00     0.028 A 
ENDBRANCH   7  22
TORSDOF 2
ENDMDL
MODEL 4
REMARK VINA RESULT: -7.902556104      1.900      3.232
REMARK  2 active torsions:
REMARK  status: ('A' for Active; 'I' for Inactive)
REMARK    1  A    between atoms: C1_2  and  C2_3 
REMARK       I    between atoms: C1_2  and  N3_14 
REMARK    2  A    between atoms: N4_18  and  C11_19 
ROOT
HETATM    1  O1  UNL     1      13.263   6.971   5.051  1.00  0.00    -0.271 OA
HETATM    2  C1  UNL     1      13.198   7.736   4.032  1.00  0.00     0.242 C 
HETATM    3  N3  UNL     1      11.940   8.208   3.647  1.00  0.00    -0.349 N 
HETATM    4  C8  UNL     1      10.659   7.929   4.273  1.00  0.00     0.136 C 
HETATM    5  C9  UNL     1       9.947   9.259   4.104  1.00  0.00     0.053 C 
HETATM    6  C10 UNL     1       8.446   9.125   4.019  1.00  0.00     0.070 C 
HETATM    7  N4  UNL     1       8.201   8.968   2.664  1.00  0.00    -0.368 N 
HETATM    8  C14 UNL     1       9.313   9.118   1.857  1.00  0.00     0.070 C 
HETATM    9  C15 UNL     1      10.371   9.749   2.728  1.00  0.00     0.053 C 
HETATM   10  C16 UNL     1      11.726   9.108   2.516  1.00  0.00     0.136 C 
ENDROOT
BRANCH   2  11
HETATM   11  C2  UNL     1      14.461   8.072   3.340  1.00  0.00     0.175 C 
HETATM   12  N1  UNL     1      15.263   8.968   4.150  1.00  0.00    -0.407 N 
HETATM   13  C3  UNL     1      16.192   8.382   5.036  1.00  0.00     0.147 C 
ATOM     14  H1  UNL     1      15.160   9.980   4.083  1.00  0.00     0.154 HD
HETATM   15  C4  UNL     1      16.979   7.231   4.438  1.00  0.00     0.203 C 
HETATM   16  C5  UNL     1      15.913   6.162   4.128  1.00  0.00     0.043 C 
HETATM   17  N2  UNL     1      17.475   7.593   3.139  1.00  0.00    -0.069 N 
HETATM   18  C6  UNL     1      15.232   6.819   2.952  1.00  0.00     0.045 C 
HETATM   19  C7  UNL     1      16.443   7.272   2.159  1.00  0.00     0.239 C 
ATOM     20  H22 UNL     1      17.777   8.565   3.089  1.00  0.00     0.277 HD
ATOM     21  H21 UNL     1      18.372   7.160   2.923  1.00  0.00     0.277 HD
ENDBRANCH   2  11
BRANCH   7  22
HETATM   22  C11 UNL     1       6.897   8.959   2.153  1.00  0.00     0.088 A 
HETATM   23  C12 UNL     1       6.087  10.217   2.566  1.00  0.00     0.028 A 
HETATM   24  C13 UNL     1       6.507   9.982   1.157  1.00  0.00     0.028 A 
ENDBRANCH   7  22
TORSDOF 2
ENDMDL
MODEL 5
REMARK VINA RESULT: -7.775252265      2.270      2.956
REMARK  2 active torsions:
REMARK  status: ('A' for Active; 'I' for Inactive)
REMARK    1  A    between atoms: C1_2  and  C2_3 
REMARK       I    between atoms: C1_2  and  N3_14 
REMARK    2  A    between atoms: N4_18  and  C11_19 
ROOT
HETATM    1  O1  UNL     1      13.948   9.898   0.968  1.00  0.00    -0.271 OA
HETATM    2  C1  UNL     1      13.186   8.970   1.399  1.00  0.00     0.242 C 
HETATM    3  N3  UNL     1      11.807   9.124   1.232  1.00  0.00    -0.349 N 
HETATM    4  C8  UNL     1      11.108  10.238   0.615  1.00  0.00     0.136 C 
HETATM    5  C9  UNL     1       9.961   9.525  -0.077  1.00  0.00     0.053 C 
HETATM    6  C10 UNL     1       8.726  10.381  -0.223  1.00  0.00     0.070 C 
HETATM    7  N4  UNL     1       8.010  10.133   0.938  1.00  0.00    -0.368 N 
HETATM    8  C14 UNL     1       8.540   9.141   1.740  1.00  0.00     0.070 C 
HETATM    9  C15 UNL     1       9.556   8.421   0.888  1.00  0.00     0.053 C 
HETATM   10  C16 UNL     1      10.826   8.128   1.657  1.00  0.00     0.136 C 
ENDROOT
BRANCH   2  11
HETATM   11  C2  UNL     1      13.823   7.798   2.037  1.00  0.00     0.175 C 
HETATM   12  N1  UNL     1      14.488   6.976   1.045  1.00  0.00    -0.407 N 
HETATM   13  C3  UNL     1      15.844   7.256   0.777  1.00  0.00     0.147 C 
ATOM     14  H1  UNL     1      13.995   6.227   0.560  1.00  0.00     0.154 HD
HETATM   15  C4  UNL     1      16.682   7.514   2.016  1.00  0.00     0.203 C 
HETATM   16  C5  UNL     1      16.069   8.788   2.631  1.00  0.00     0.043 C 
HETATM   17  N2  UNL     1      16.420   6.507   3.008  1.00  0.00    -0.069 N 
HETATM   18  C6  UNL     1      14.771   8.218   3.150  1.00  0.00     0.045 C 
HETATM   19  C7  UNL     1      15.279   6.946   3.803  1.00  0.00     0.239 C 
ATOM     20  H22 UNL     1      16.286   5.581   2.604  1.00  0.00     0.277 HD
ATOM     21  H21 UNL     1      17.237   6.291   3.577  1.00  0.00     0.277 HD
ENDBRANCH   2  11
BRANCH   7  22
HETATM   22  C11 UNL     1       6.715  10.635   1.118  1.00  0.00     0.088 A 
HETATM   23  C12 UNL     1       5.620   9.572   0.833  1.00  0.00     0.028 A 
HETATM   24  C13 UNL     1       5.876  10.086   2.208  1.00  0.00     0.028 A 
ENDBRANCH   7  22
TORSDOF 2
ENDMDL
