MODEL 1
REMARK VINA RESULT: -7.000643903      0.000      0.000
REMARK  2 active torsions:
REMARK  status: ('A' for Active; 'I' for Inactive)
REMARK    1  A    between atoms: C2_2  and  C3_3 
REMARK    2  A    between atoms: C3_3  and  N1_4 
REMARK       I    between atoms: N2_10  and  C9_11 
ROOT
HETATM    1  N1  UNL     1      12.185   8.552   3.862  1.00  0.00     0.099 N 
HETATM    2  C4  UNL     1      13.058   9.327   4.794  1.00  0.00     0.298 C 
HETATM    3  C5  UNL     1      14.033   8.365   5.364  1.00  0.00     0.119 C 
HETATM    4  C6  UNL     1      13.286   7.035   5.157  1.00  0.00     0.064 C 
HETATM    5  C7  UNL     1      12.898   7.361   3.704  1.00  0.00     0.243 C 
HETATM    6  C8  UNL     1      14.304   7.756   3.182  1.00  0.00     0.163 C 
HETATM    7  N2  UNL     1      15.059   8.154   4.350  1.00  0.00    -0.328 N 
HETATM    8  C9  UNL     1      16.434   8.326   4.570  1.00  0.00     0.331 C 
HETATM    9  N3  UNL     1      17.345   8.086   3.482  1.00  0.00    -0.040 NA
HETATM   10  O1  UNL     1      16.862   8.682   5.690  1.00  0.00    -0.251 OA
ENDROOT
BRANCH   1  11
HETATM   11  C3  UNL     1      10.898   8.621   4.387  1.00  0.00     0.314 C 
BRANCH  11  12
HETATM   12  C2  UNL     1       9.762   9.172   3.588  1.00  0.00     0.172 C 
HETATM   13  C1  UNL     1      10.124   9.276   2.128  1.00  0.00     0.051 C 
HETATM   14  C10 UNL     1       9.443  10.607   4.024  1.00  0.00     0.208 C 
HETATM   15  O2  UNL     1       9.378  10.566   5.416  1.00  0.00    -0.387 OA
HETATM   16  C11 UNL     1       8.239   9.903   5.794  1.00  0.00     0.195 C 
HETATM   17  C12 UNL     1       7.900   8.666   5.061  1.00  0.00     0.263 C 
HETATM   18  N4  UNL     1       8.544   8.408   3.819  1.00  0.00    -0.060 N 
HETATM   19  C13 UNL     1       7.579   8.654   2.773  1.00  0.00     0.273 C 
HETATM   20  C14 UNL     1       8.852   6.966   3.713  1.00  0.00     0.273 C 
ENDBRANCH  11  12
ENDBRANCH   1  11
TORSDOF 2
ENDMDL
MODEL 2
REMARK VINA RESULT: -6.908920366      2.135      6.617
REMARK  2 active torsions:
REMARK  status: ('A' for Active; 'I' for Inactive)
REMARK    1  A    between atoms: C2_2  and  C3_3 
REMARK    2  A    between atoms: C3_3  and  N1_4 
REMARK       I    between atoms: N2_10  and  C9_11 
ROOT
HETATM    1  N1  UNL     1      10.363   8.641   4.259  1.00  0.00     0.099 N 
HETATM    2  C4  UNL     1       9.696   9.383   3.147  1.00  0.00     0.298 C 
HETATM    3  C5  UNL     1       8.379   8.735   2.933  1.00  0.00     0.119 C 
HETATM    4  C6  UNL     1       8.637   7.343   3.535  1.00  0.00     0.064 C 
HETATM    5  C7  UNL     1       9.309   7.902   4.801  1.00  0.00     0.243 C 
HETATM    6  C8  UNL     1       8.214   8.925   5.200  1.00  0.00     0.163 C 
HETATM    7  N2  UNL     1       7.492   9.223   3.982  1.00  0.00    -0.328 N 
HETATM    8  C9  UNL     1       6.247   9.825   3.748  1.00  0.00     0.331 C 
HETATM    9  N3  UNL     1       5.468  10.266   4.875  1.00  0.00    -0.040 NA
HETATM   10  O1  UNL     1       5.820   9.978   2.582  1.00  0.00    -0.251 OA
ENDROOT
BRANCH   1  11
HETATM   11  C3  UNL     1      11.509   8.071   3.712  1.00  0.00     0.314 C 
BRANCH  11  12
HETATM   12  C2  UNL     1      12.858   8.671   3.938  1.00  0.00     0.172 C 
HETATM   13  C1  UNL     1      12.809   9.734   5.005  1.00  0.00     0.051 C 
HETATM   14  C10 UNL     1      13.344   9.394   2.676  1.00  0.00     0.208 C 
HETATM   15  O2  UNL     1      13.131   8.498   1.629  1.00  0.00    -0.387 OA
HETATM   16  C11 UNL     1      14.035   7.472   1.725  1.00  0.00     0.195 C 
HETATM   17  C12 UNL     1      14.278   6.904   3.066  1.00  0.00     0.263 C 
HETATM   18  N4  UNL     1      13.849   7.638   4.207  1.00  0.00    -0.060 N 
HETATM   19  C13 UNL     1      15.026   8.205   4.823  1.00  0.00     0.273 C 
HETATM   20  C14 UNL     1      13.310   6.705   5.219  1.00  0.00     0.273 C 
ENDBRANCH  11  12
ENDBRANCH   1  11
TORSDOF 2
ENDMDL
MODEL 3
REMARK VINA RESULT: -6.809324841      2.153      3.093
REMARK  2 active torsions:
REMARK  status: ('A' for Active; 'I' for Inactive)
REMARK    1  A    between atoms: C2_2  and  C3_3 
REMARK    2  A    between atoms: C3_3  and  N1_4 
REMARK       I    between atoms: N2_10  and  C9_11 
ROOT
HETATM    1  N1  UNL     1      11.160   8.367   3.666  1.00  0.00     0.099 N 
HETATM    2  C4  UNL     1      11.494   7.648   2.400  1.00  0.00     0.298 C 
HETATM    3  C5  UNL     1      12.819   8.150   1.961  1.00  0.00     0.119 C 
HETATM    4  C6  UNL     1      12.870   9.508   2.685  1.00  0.00     0.064 C 
HETATM    5  C7  UNL     1      12.388   8.927   4.025  1.00  0.00     0.243 C 
HETATM    6  C8  UNL     1      13.393   7.751   4.133  1.00  0.00     0.163 C 
HETATM    7  N2  UNL     1      13.819   7.474   2.778  1.00  0.00    -0.328 N 
HETATM    8  C9  UNL     1      14.904   6.750   2.260  1.00  0.00     0.331 C 
HETATM    9  N3  UNL     1      15.821   6.126   3.177  1.00  0.00    -0.040 NA
HETATM   10  O1  UNL     1      15.071   6.647   1.025  1.00  0.00    -0.251 OA
ENDROOT
BRANCH   1  11
HETATM   11  C3  UNL     1      10.016   9.114   3.399  1.00  0.00     0.314 C 
BRANCH  11  12
HETATM   12  C2  UNL     1       8.676   8.687   3.902  1.00  0.00     0.172 C 
HETATM   13  C1  UNL     1       8.806   7.806   5.118  1.00  0.00     0.051 C 
HETATM   14  C10 UNL     1       7.960   7.823   2.857  1.00  0.00     0.208 C 
HETATM   15  O2  UNL     1       8.079   8.518   1.654  1.00  0.00    -0.387 OA
HETATM   16  C11 UNL     1       7.274   9.627   1.694  1.00  0.00     0.195 C 
HETATM   17  C12 UNL     1       7.273  10.420   2.940  1.00  0.00     0.263 C 
HETATM   18  N4  UNL     1       7.812   9.838   4.122  1.00  0.00    -0.060 N 
HETATM   19  C13 UNL     1       6.701   9.489   4.977  1.00  0.00     0.273 C 
HETATM   20  C14 UNL     1       8.559  10.864   4.879  1.00  0.00     0.273 C 
ENDBRANCH  11  12
ENDBRANCH   1  11
TORSDOF 2
ENDMDL
MODEL 4
REMARK VINA RESULT: -6.767577266      3.315      4.306
REMARK  2 active torsions:
REMARK  status: ('A' for Active; 'I' for Inactive)
REMARK    1  A    between atoms: C2_2  and  C3_3 
REMARK    2  A    between atoms: C3_3  and  N1_4 
REMARK       I    between atoms: N2_10  and  C9_11 
ROOT
HETATM    1  N1  UNL     1      11.517   9.661   2.107  1.00  0.00     0.099 N 
HETATM    2  C4  UNL     1      11.308   9.810   0.635  1.00  0.00     0.298 C 
HETATM    3  C5  UNL     1      12.151  10.949   0.198  1.00  0.00     0.119 C 
HETATM    4  C6  UNL     1      12.324  11.710   1.524  1.00  0.00     0.064 C 
HETATM    5  C7  UNL     1      12.655  10.440   2.327  1.00  0.00     0.243 C 
HETATM    6  C8  UNL     1      13.763   9.874   1.402  1.00  0.00     0.163 C 
HETATM    7  N2  UNL     1      13.516  10.450   0.098  1.00  0.00    -0.328 N 
HETATM    8  C9  UNL     1      14.315  10.559  -1.051  1.00  0.00     0.331 C 
HETATM    9  N3  UNL     1      15.650  10.022  -1.019  1.00  0.00    -0.040 NA
HETATM   10  O1  UNL     1      13.878  11.112  -2.083  1.00  0.00    -0.251 OA
ENDROOT
BRANCH   1  11
HETATM   11  C3  UNL     1      10.283   9.905   2.702  1.00  0.00     0.314 C 
BRANCH  11  12
HETATM   12  C2  UNL     1       9.655   8.910   3.623  1.00  0.00     0.172 C 
HETATM   13  C1  UNL     1      10.680   8.296   4.541  1.00  0.00     0.051 C 
HETATM   14  C10 UNL     1       9.073   7.734   2.829  1.00  0.00     0.208 C 
HETATM   15  O2  UNL     1       8.335   8.312   1.796  1.00  0.00    -0.387 OA
HETATM   16  C11 UNL     1       7.202   8.881   2.318  1.00  0.00     0.195 C 
HETATM   17  C12 UNL     1       7.345   9.656   3.567  1.00  0.00     0.263 C 
HETATM   18  N4  UNL     1       8.531   9.500   4.337  1.00  0.00    -0.060 N 
HETATM   19  C13 UNL     1       8.191   8.710   5.498  1.00  0.00     0.273 C 
HETATM   20  C14 UNL     1       8.940  10.811   4.883  1.00  0.00     0.273 C 
ENDBRANCH  11  12
ENDBRANCH   1  11
TORSDOF 2
ENDMDL
MODEL 5
REMARK VINA RESULT: -6.679461754      1.596      6.602
REMARK  2 active torsions:
REMARK  status: ('A' for Active; 'I' for Inactive)
REMARK    1  A    between atoms: C2_2  and  C3_3 
REMARK    2  A    between atoms: C3_3  and  N1_4 
REMARK       I    between atoms: N2_10  and  C9_11 
ROOT
HETATM    1  N1  UNL     1      12.823   8.228   3.061  1.00  0.00     0.099 N 
HETATM    2  C4  UNL     1      12.057   7.866   4.291  1.00  0.00     0.298 C 
HETATM    3  C5  UNL     1      10.977   8.873   4.432  1.00  0.00     0.119 C 
HETATM    4  C6  UNL     1      11.556  10.039   3.612  1.00  0.00     0.064 C 
HETATM    5  C7  UNL     1      11.970   9.140   2.435  1.00  0.00     0.243 C 
HETATM    6  C8  UNL     1      10.619   8.408   2.227  1.00  0.00     0.163 C 
HETATM    7  N2  UNL     1       9.926   8.498   3.494  1.00  0.00    -0.328 N 
HETATM    8  C9  UNL     1       8.583   8.300   3.850  1.00  0.00     0.331 C 
HETATM    9  N3  UNL     1       7.643   7.930   2.825  1.00  0.00    -0.040 NA
HETATM   10  O1  UNL     1       8.209   8.440   5.035  1.00  0.00    -0.251 OA
ENDROOT
BRANCH   1  11
HETATM   11  C3  UNL     1      14.113   8.537   3.483  1.00  0.00     0.314 C 
BRANCH  11  12
HETATM   12  C2  UNL     1      15.271   7.654   3.150  1.00  0.00     0.172 C 
HETATM   13  C1  UNL     1      14.846   6.510   2.266  1.00  0.00     0.051 C 
HETATM   14  C10 UNL     1      15.826   6.994   4.418  1.00  0.00     0.208 C 
HETATM   15  O2  UNL     1      15.964   8.026   5.345  1.00  0.00    -0.387 OA
HETATM   16  C11 UNL     1      17.010   8.830   4.971  1.00  0.00     0.195 C 
HETATM   17  C12 UNL     1      17.117   9.182   3.540  1.00  0.00     0.263 C 
HETATM   18  N4  UNL     1      16.372   8.427   2.592  1.00  0.00    -0.060 N 
HETATM   19  C13 UNL     1      17.302   7.566   1.898  1.00  0.00     0.273 C 
HETATM   20  C14 UNL     1      15.845   9.330   1.547  1.00  0.00     0.273 C 
ENDBRANCH  11  12
ENDBRANCH   1  11
TORSDOF 2
ENDMDL
