MODEL 1
REMARK VINA RESULT: -7.314193608      0.000      0.000
REMARK  2 active torsions:
REMARK  status: ('A' for Active; 'I' for Inactive)
REMARK    1  A    between atoms: C1_2  and  C2_3 
REMARK       I    between atoms: C1_2  and  N3_14 
REMARK    2  A    between atoms: C2_3  and  N1_4 
ROOT
HETATM    1  C2  UNL     1      11.721   8.141   4.379  1.00  0.00     0.134 C 
ENDROOT
BRANCH   1   2
HETATM    2  C1  UNL     1      12.869   9.022   4.303  1.00  0.00     0.257 C 
HETATM    3  O1  UNL     1      13.034   9.952   5.115  1.00  0.00    -0.267 OA
HETATM    4  N3  UNL     1      13.846   8.847   3.291  1.00  0.00    -0.303 N 
HETATM    5  C11 UNL     1      13.936   9.521   2.224  1.00  0.00     0.142 C 
ATOM      6  H3  UNL     1      14.539   8.112   3.437  1.00  0.00     0.171 HD
HETATM    7  N4  UNL     1      13.177  10.592   1.687  1.00  0.00    -0.370 N 
HETATM    8  S1  UNL     1      15.214   9.236   0.986  1.00  0.00    -0.092 SA
HETATM    9  C12 UNL     1      13.207  10.646   0.258  1.00  0.00     0.132 C 
ATOM     10  H4  UNL     1      12.661  11.258   2.262  1.00  0.00     0.161 HD
HETATM   11  C13 UNL     1      14.669  10.546  -0.189  1.00  0.00     0.102 C 
ENDBRANCH   1   2
BRANCH   1  12
HETATM   12  N1  UNL     1      10.424   8.727   4.396  1.00  0.00    -0.285 NA
HETATM   13  C3  UNL     1       9.435   7.679   4.502  1.00  0.00     0.123 C 
HETATM   14  C4  UNL     1       8.326   7.790   3.497  1.00  0.00     0.252 C 
HETATM   15  N2  UNL     1       7.745   9.112   3.581  1.00  0.00    -0.065 N 
HETATM   16  C5  UNL     1       6.684   9.167   2.582  1.00  0.00     0.237 C 
HETATM   17  C8  UNL     1       7.076   9.252   4.860  1.00  0.00     0.237 C 
HETATM   18  C9  UNL     1       8.708  10.151   3.383  1.00  0.00     0.252 C 
HETATM   19  C6  UNL     1       5.799  10.287   3.130  1.00  0.00     0.029 C 
HETATM   20  C7  UNL     1       5.741   9.902   4.596  1.00  0.00     0.029 C 
HETATM   21  C10 UNL     1      10.118   9.562   3.285  1.00  0.00     0.123 C 
ENDBRANCH   1  12
TORSDOF 2
ENDMDL
MODEL 2
REMARK VINA RESULT: -7.188258415      1.975      2.197
REMARK  2 active torsions:
REMARK  status: ('A' for Active; 'I' for Inactive)
REMARK    1  A    between atoms: C1_2  and  C2_3 
REMARK       I    between atoms: C1_2  and  N3_14 
REMARK    2  A    between atoms: C2_3  and  N1_4 
ROOT
HETATM    1  C2  UNL     1      11.362   7.902   3.991  1.00  0.00     0.134 C 
ENDROOT
BRANCH   1   2
HETATM    2  C1  UNL     1      12.467   8.245   4.864  1.00  0.00     0.257 C 
HETATM    3  O1  UNL     1      12.419   9.233   5.620  1.00  0.00    -0.267 OA
HETATM    4  N3  UNL     1      13.644   7.455   4.880  1.00  0.00    -0.303 N 
HETATM    5  C11 UNL     1      14.728   7.731   4.290  1.00  0.00     0.142 C 
ATOM      6  H3  UNL     1      13.613   6.588   5.416  1.00  0.00     0.171 HD
HETATM    7  N4  UNL     1      15.140   8.815   3.474  1.00  0.00    -0.370 N 
HETATM    8  S1  UNL     1      16.185   6.672   4.363  1.00  0.00    -0.092 SA
HETATM    9  C12 UNL     1      16.161   8.463   2.537  1.00  0.00     0.132 C 
ATOM     10  H4  UNL     1      14.746   9.753   3.548  1.00  0.00     0.161 HD
HETATM   11  C13 UNL     1      17.263   7.716   3.296  1.00  0.00     0.102 C 
ENDBRANCH   1   2
BRANCH   1  12
HETATM   12  N1  UNL     1      10.113   8.552   4.201  1.00  0.00    -0.285 NA
HETATM   13  C3  UNL     1       9.057   7.567   4.170  1.00  0.00     0.123 C 
HETATM   14  C4  UNL     1       7.909   7.937   3.277  1.00  0.00     0.252 C 
HETATM   15  N2  UNL     1       7.432   9.252   3.645  1.00  0.00    -0.065 N 
HETATM   16  C5  UNL     1       6.327   9.563   2.744  1.00  0.00     0.237 C 
HETATM   17  C8  UNL     1       6.840   9.185   4.968  1.00  0.00     0.237 C 
HETATM   18  C9  UNL     1       8.456  10.248   3.585  1.00  0.00     0.252 C 
HETATM   19  C6  UNL     1       5.556  10.609   3.548  1.00  0.00     0.029 C 
HETATM   20  C7  UNL     1       5.544   9.955   4.916  1.00  0.00     0.029 C 
HETATM   21  C10 UNL     1       9.813   9.603   3.289  1.00  0.00     0.123 C 
ENDBRANCH   1  12
TORSDOF 2
ENDMDL
MODEL 3
REMARK VINA RESULT: -7.181355130      1.650      1.952
REMARK  2 active torsions:
REMARK  status: ('A' for Active; 'I' for Inactive)
REMARK    1  A    between atoms: C1_2  and  C2_3 
REMARK       I    between atoms: C1_2  and  N3_14 
REMARK    2  A    between atoms: C2_3  and  N1_4 
ROOT
HETATM    1  C2  UNL     1      12.533   7.751   2.643  1.00  0.00     0.134 C 
ENDROOT
BRANCH   1   2
HETATM    2  C1  UNL     1      13.748   8.447   2.267  1.00  0.00     0.257 C 
HETATM    3  O1  UNL     1      14.712   8.545   3.049  1.00  0.00    -0.267 OA
HETATM    4  N3  UNL     1      13.873   9.038   0.985  1.00  0.00    -0.303 N 
HETATM    5  C11 UNL     1      13.728  10.267   0.720  1.00  0.00     0.142 C 
ATOM      6  H3  UNL     1      14.100   8.418   0.208  1.00  0.00     0.171 HD
HETATM    7  N4  UNL     1      13.419  11.400   1.514  1.00  0.00    -0.370 N 
HETATM    8  S1  UNL     1      13.907  10.942  -0.942  1.00  0.00    -0.092 SA
HETATM    9  C12 UNL     1      12.757  12.438   0.785  1.00  0.00     0.132 C 
ATOM     10  H4  UNL     1      13.646  11.469   2.506  1.00  0.00     0.161 HD
HETATM   11  C13 UNL     1      13.549  12.694  -0.501  1.00  0.00     0.102 C 
ENDBRANCH   1   2
BRANCH   1  12
HETATM   12  N1  UNL     1      11.463   8.515   3.186  1.00  0.00    -0.285 NA
HETATM   13  C3  UNL     1      10.926   7.824   4.337  1.00  0.00     0.123 C 
HETATM   14  C4  UNL     1       9.432   7.688   4.318  1.00  0.00     0.252 C 
HETATM   15  N2  UNL     1       8.842   8.995   4.132  1.00  0.00    -0.065 N 
HETATM   16  C5  UNL     1       7.396   8.802   4.113  1.00  0.00     0.237 C 
HETATM   17  C8  UNL     1       9.108   9.803   5.307  1.00  0.00     0.237 C 
HETATM   18  C9  UNL     1       9.302   9.643   2.942  1.00  0.00     0.252 C 
HETATM   19  C6  UNL     1       6.894  10.192   4.505  1.00  0.00     0.029 C 
HETATM   20  C7  UNL     1       7.822  10.508   5.662  1.00  0.00     0.029 C 
HETATM   21  C10 UNL     1      10.409   8.819   2.279  1.00  0.00     0.123 C 
ENDBRANCH   1  12
TORSDOF 2
ENDMDL
MODEL 4
REMARK VINA RESULT: -7.125870862      3.228      6.278
REMARK  2 active torsions:
REMARK  status: ('A' for Active; 'I' for Inactive)
REMARK    1  A    between atoms: C1_2  and  C2_3 
REMARK       I    between atoms: C1_2  and  N3_14 
REMARK    2  A    between atoms: C2_3  and  N1_4 
ROOT
HETATM    1  C2  UNL     1      10.031   8.289   4.416  1.00  0.00     0.134 C 
ENDROOT
BRANCH   1   2
HETATM    2  C1  UNL     1       9.003   7.807   3.516  1.00  0.00     0.257 C 
HETATM    3  O1  UNL     1       8.778   6.590   3.374  1.00  0.00    -0.267 OA
HETATM    4  N3  UNL     1       8.216   8.716   2.767  1.00  0.00    -0.303 N 
HETATM    5  C11 UNL     1       8.386   9.014   1.549  1.00  0.00     0.142 C 
ATOM      6  H3  UNL     1       7.443   9.172   3.253  1.00  0.00     0.171 HD
HETATM    7  N4  UNL     1       9.325   8.598   0.571  1.00  0.00    -0.370 N 
HETATM    8  S1  UNL     1       7.336  10.182   0.665  1.00  0.00    -0.092 SA
HETATM    9  C12 UNL     1       9.563   9.581  -0.440  1.00  0.00     0.132 C 
ATOM     10  H4  UNL     1       9.786   7.687   0.587  1.00  0.00     0.161 HD
HETATM   11  C13 UNL     1       8.205  10.069  -0.955  1.00  0.00     0.102 C 
ENDBRANCH   1   2
BRANCH   1  12
HETATM   12  N1  UNL     1      11.344   7.757   4.283  1.00  0.00    -0.285 NA
HETATM   13  C3  UNL     1      12.236   8.475   5.165  1.00  0.00     0.123 C 
HETATM   14  C4  UNL     1      13.493   8.950   4.497  1.00  0.00     0.252 C 
HETATM   15  N2  UNL     1      14.137   7.827   3.851  1.00  0.00    -0.065 N 
HETATM   16  C5  UNL     1      15.343   8.346   3.215  1.00  0.00     0.237 C 
HETATM   17  C8  UNL     1      14.605   6.905   4.868  1.00  0.00     0.237 C 
HETATM   18  C9  UNL     1      13.285   7.172   2.908  1.00  0.00     0.252 C 
HETATM   19  C6  UNL     1      16.200   7.086   3.102  1.00  0.00     0.029 C 
HETATM   20  C7  UNL     1      16.004   6.491   4.483  1.00  0.00     0.029 C 
HETATM   21  C10 UNL     1      11.873   7.761   2.962  1.00  0.00     0.123 C 
ENDBRANCH   1  12
TORSDOF 2
ENDMDL
MODEL 5
REMARK VINA RESULT: -7.071239068      3.623      8.281
REMARK  2 active torsions:
REMARK  status: ('A' for Active; 'I' for Inactive)
REMARK    1  A    between atoms: C1_2  and  C2_3 
REMARK       I    between atoms: C1_2  and  N3_14 
REMARK    2  A    between atoms: C2_3  and  N1_4 
ROOT
HETATM    1  C2  UNL     1      16.539   9.135   1.342  1.00  0.00     0.134 C 
ENDROOT
BRANCH   1   2
HETATM    2  C1  UNL     1      15.789   8.393   2.337  1.00  0.00     0.257 C 
HETATM    3  O1  UNL     1      16.117   7.241   2.677  1.00  0.00    -0.267 OA
HETATM    4  N3  UNL     1      14.652   8.967   2.957  1.00  0.00    -0.303 N 
HETATM    5  C11 UNL     1      13.446   8.731   2.655  1.00  0.00     0.142 C 
ATOM      6  H3  UNL     1      14.820   9.629   3.715  1.00  0.00     0.171 HD
HETATM    7  N4  UNL     1      12.835   7.895   1.686  1.00  0.00    -0.370 N 
HETATM    8  S1  UNL     1      12.052   9.503   3.497  1.00  0.00    -0.092 SA
HETATM    9  C12 UNL     1      11.552   8.364   1.261  1.00  0.00     0.132 C 
ATOM     10  H4  UNL     1      13.267   7.043   1.328  1.00  0.00     0.161 HD
HETATM   11  C13 UNL     1      10.727   8.685   2.512  1.00  0.00     0.102 C 
ENDBRANCH   1   2
BRANCH   1  12
HETATM   12  N1  UNL     1      16.195   8.959  -0.027  1.00  0.00    -0.285 NA
HETATM   13  C3  UNL     1      17.202   8.144  -0.666  1.00  0.00     0.123 C 
HETATM   14  C4  UNL     1      17.717   8.716  -1.954  1.00  0.00     0.252 C 
HETATM   15  N2  UNL     1      16.597   8.999  -2.825  1.00  0.00    -0.065 N 
HETATM   16  C5  UNL     1      17.152   9.558  -4.052  1.00  0.00     0.237 C 
HETATM   17  C8  UNL     1      15.979   7.747  -3.218  1.00  0.00     0.237 C 
HETATM   18  C9  UNL     1      15.643   9.883  -2.228  1.00  0.00     0.252 C 
HETATM   19  C6  UNL     1      16.038   9.266  -5.058  1.00  0.00     0.029 C 
HETATM   20  C7  UNL     1      15.712   7.829  -4.701  1.00  0.00     0.029 C 
HETATM   21  C10 UNL     1      16.012  10.161  -0.768  1.00  0.00     0.123 C 
ENDBRANCH   1  12
TORSDOF 2
ENDMDL
