MODEL 1
REMARK VINA RESULT: -7.691058258      0.000      0.000
REMARK  3 active torsions:
REMARK  status: ('A' for Active; 'I' for Inactive)
REMARK    1  A    between atoms: C1_2  and  C2_3 
REMARK       I    between atoms: C1_2  and  N1_6 
REMARK    2  A    between atoms: C11_14  and  C12_15 
REMARK    3  A    between atoms: C12_15  and  O2_16 
ROOT
HETATM    1  O1  UNL     1       7.112  10.495   2.238  1.00  0.00    -0.273 OA
HETATM    2  C1  UNL     1       7.248   9.553   3.082  1.00  0.00     0.224 C 
HETATM    3  N1  UNL     1       8.330   8.667   2.982  1.00  0.00    -0.351 N 
HETATM    4  C5  UNL     1       8.574   7.560   3.883  1.00  0.00     0.126 C 
HETATM    5  C6  UNL     1       9.883   7.932   4.604  1.00  0.00     0.027 C 
HETATM    6  C7  UNL     1      10.937   7.885   3.487  1.00  0.00     0.026 C 
HETATM    7  C8  UNL     1      12.325   7.943   4.012  1.00  0.00     0.278 C 
HETATM    8  N2  UNL     1      13.242   8.098   2.930  1.00  0.00     0.090 N 
HETATM    9  C9  UNL     1      12.701   7.712   1.643  1.00  0.00     0.278 C 
HETATM   10  C10 UNL     1      11.734   8.868   1.397  1.00  0.00     0.037 C 
HETATM   11  C11 UNL     1      12.657  10.034   1.659  1.00  0.00     0.013 C 
HETATM   12  C13 UNL     1      11.835  11.121   2.275  1.00  0.00     0.014 C 
HETATM   13  C14 UNL     1      10.820  10.336   3.086  1.00  0.00     0.013 C 
HETATM   14  C15 UNL     1      10.706   8.977   2.472  1.00  0.00    -0.013 C 
HETATM   15  C16 UNL     1       9.292   8.870   1.895  1.00  0.00     0.136 C 
HETATM   16  C17 UNL     1      13.627   9.472   2.680  1.00  0.00     0.284 C 
ENDROOT
BRANCH   2  17
HETATM   17  C2  UNL     1       6.216   9.473   4.129  1.00  0.00     0.078 A 
HETATM   18  C3  UNL     1       5.380  10.653   4.463  1.00  0.00     0.015 A 
HETATM   19  C4  UNL     1       6.493  10.317   5.367  1.00  0.00     0.015 A 
ENDBRANCH   2  17
BRANCH  11  20
HETATM   20  C12 UNL     1      13.365  10.453   0.395  1.00  0.00     0.175 C 
BRANCH  20  21
HETATM   21  O2  UNL     1      12.521  10.357  -0.700  1.00  0.00    -0.400 OA
ATOM     22  H2  UNL     1      12.684   9.556  -1.185  1.00  0.00     0.209 HD
ENDBRANCH  20  21
ENDBRANCH  11  20
TORSDOF 3
ENDMDL
MODEL 2
REMARK VINA RESULT: -7.490684665      2.001      2.875
REMARK  3 active torsions:
REMARK  status: ('A' for Active; 'I' for Inactive)
REMARK    1  A    between atoms: C1_2  and  C2_3 
REMARK       I    between atoms: C1_2  and  N1_6 
REMARK    2  A    between atoms: C11_14  and  C12_15 
REMARK    3  A    between atoms: C12_15  and  O2_16 
ROOT
HETATM    1  O1  UNL     1       8.108   9.921   6.084  1.00  0.00    -0.273 OA
HETATM    2  C1  UNL     1       7.704   9.844   4.881  1.00  0.00     0.224 C 
HETATM    3  N1  UNL     1       8.601  10.037   3.821  1.00  0.00    -0.351 N 
HETATM    4  C5  UNL     1       8.245   9.977   2.419  1.00  0.00     0.126 C 
HETATM    5  C6  UNL     1       9.003   8.750   1.881  1.00  0.00     0.027 C 
HETATM    6  C7  UNL     1      10.480   9.161   1.986  1.00  0.00     0.026 C 
HETATM    7  C8  UNL     1      11.383   8.230   1.262  1.00  0.00     0.278 C 
HETATM    8  N2  UNL     1      12.741   8.549   1.562  1.00  0.00     0.090 N 
HETATM    9  C9  UNL     1      12.930   9.890   2.074  1.00  0.00     0.278 C 
HETATM   10  C10 UNL     1      12.333   9.735   3.471  1.00  0.00     0.037 C 
HETATM   11  C11 UNL     1      13.070   8.497   3.928  1.00  0.00     0.013 C 
HETATM   12  C13 UNL     1      12.136   7.723   4.803  1.00  0.00     0.014 C 
HETATM   13  C14 UNL     1      10.787   8.012   4.169  1.00  0.00     0.013 C 
HETATM   14  C15 UNL     1      10.906   9.305   3.426  1.00  0.00    -0.013 C 
HETATM   15  C16 UNL     1      10.004  10.312   4.145  1.00  0.00     0.136 C 
HETATM   16  C17 UNL     1      13.308   7.750   2.630  1.00  0.00     0.284 C 
ENDROOT
BRANCH   2  17
HETATM   17  C2  UNL     1       6.273   9.549   4.700  1.00  0.00     0.078 A 
HETATM   18  C3  UNL     1       5.456  10.317   3.728  1.00  0.00     0.015 A 
HETATM   19  C4  UNL     1       5.327  10.654   5.155  1.00  0.00     0.015 A 
ENDBRANCH   2  17
BRANCH  11  20
HETATM   20  C12 UNL     1      14.368   8.864   4.603  1.00  0.00     0.175 C 
BRANCH  20  21
HETATM   21  O2  UNL     1      14.188   9.920   5.482  1.00  0.00    -0.400 OA
ATOM     22  H2  UNL     1      15.006  10.152   5.905  1.00  0.00     0.209 HD
ENDBRANCH  20  21
ENDBRANCH  11  20
TORSDOF 3
ENDMDL
MODEL 3
REMARK VINA RESULT: -7.455162774      1.874      2.610
REMARK  3 active torsions:
REMARK  status: ('A' for Active; 'I' for Inactive)
REMARK    1  A    between atoms: C1_2  and  C2_3 
REMARK       I    between atoms: C1_2  and  N1_6 
REMARK    2  A    between atoms: C11_14  and  C12_15 
REMARK    3  A    between atoms: C12_15  and  O2_16 
ROOT
HETATM    1  O1  UNL     1       8.907   8.764   0.508  1.00  0.00    -0.273 OA
HETATM    2  C1  UNL     1       8.599   9.130   1.686  1.00  0.00     0.224 C 
HETATM    3  N1  UNL     1       9.321   8.646   2.786  1.00  0.00    -0.351 N 
HETATM    4  C5  UNL     1       9.051   8.993   4.166  1.00  0.00     0.126 C 
HETATM    5  C6  UNL     1      10.296   9.779   4.616  1.00  0.00     0.027 C 
HETATM    6  C7  UNL     1      11.415   8.726   4.595  1.00  0.00     0.026 C 
HETATM    7  C8  UNL     1      12.655   9.200   5.261  1.00  0.00     0.278 C 
HETATM    8  N2  UNL     1      13.710   8.266   5.034  1.00  0.00     0.090 N 
HETATM    9  C9  UNL     1      13.253   6.947   4.649  1.00  0.00     0.278 C 
HETATM   10  C10 UNL     1      12.777   7.229   3.226  1.00  0.00     0.037 C 
HETATM   11  C11 UNL     1      13.994   7.940   2.684  1.00  0.00     0.013 C 
HETATM   12  C13 UNL     1      13.511   8.972   1.715  1.00  0.00     0.014 C 
HETATM   13  C14 UNL     1      12.189   9.395   2.329  1.00  0.00     0.013 C 
HETATM   14  C15 UNL     1      11.709   8.269   3.188  1.00  0.00    -0.013 C 
HETATM   15  C16 UNL     1      10.435   7.727   2.533  1.00  0.00     0.136 C 
HETATM   16  C17 UNL     1      14.567   8.611   3.918  1.00  0.00     0.284 C 
ENDROOT
BRANCH   2  17
HETATM   17  C2  UNL     1       7.468  10.066   1.795  1.00  0.00     0.078 A 
HETATM   18  C3  UNL     1       6.278   9.726   2.614  1.00  0.00     0.015 A 
HETATM   19  C4  UNL     1       6.173   9.584   1.153  1.00  0.00     0.015 A 
ENDBRANCH   2  17
BRANCH  11  20
HETATM   20  C12 UNL     1      14.968   6.956   2.086  1.00  0.00     0.175 C 
BRANCH  20  21
HETATM   21  O2  UNL     1      14.565   6.569   0.818  1.00  0.00    -0.400 OA
ATOM     22  H2  UNL     1      14.836   5.677   0.633  1.00  0.00     0.209 HD
ENDBRANCH  20  21
ENDBRANCH  11  20
TORSDOF 3
ENDMDL
MODEL 4
REMARK VINA RESULT: -7.208284605      1.936      2.510
REMARK  3 active torsions:
REMARK  status: ('A' for Active; 'I' for Inactive)
REMARK    1  A    between atoms: C1_2  and  C2_3 
REMARK       I    between atoms: C1_2  and  N1_6 
REMARK    2  A    between atoms: C11_14  and  C12_15 
REMARK    3  A    between atoms: C12_15  and  O2_16 
ROOT
HETATM    1  O1  UNL     1       6.717   9.430   0.555  1.00  0.00    -0.273 OA
HETATM    2  C1  UNL     1       6.344   9.566   1.762  1.00  0.00     0.224 C 
HETATM    3  N1  UNL     1       7.129   9.055   2.805  1.00  0.00    -0.351 N 
HETATM    4  C5  UNL     1       6.795   9.150   4.211  1.00  0.00     0.126 C 
HETATM    5  C6  UNL     1       7.885  10.058   4.806  1.00  0.00     0.027 C 
HETATM    6  C7  UNL     1       9.167   9.222   4.672  1.00  0.00     0.026 C 
HETATM    7  C8  UNL     1      10.304   9.795   5.436  1.00  0.00     0.278 C 
HETATM    8  N2  UNL     1      11.503   9.092   5.113  1.00  0.00     0.090 N 
HETATM    9  C9  UNL     1      11.279   7.785   4.532  1.00  0.00     0.278 C 
HETATM   10  C10 UNL     1      10.772   8.186   3.148  1.00  0.00     0.037 C 
HETATM   11  C11 UNL     1      11.855   9.161   2.750  1.00  0.00     0.013 C 
HETATM   12  C13 UNL     1      11.210  10.227   1.922  1.00  0.00     0.014 C 
HETATM   13  C14 UNL     1       9.832  10.331   2.548  1.00  0.00     0.013 C 
HETATM   14  C15 UNL     1       9.544   9.028   3.224  1.00  0.00    -0.013 C 
HETATM   15  C16 UNL     1       8.384   8.381   2.460  1.00  0.00     0.136 C 
HETATM   16  C17 UNL     1      12.297   9.733   4.084  1.00  0.00     0.284 C 
ENDROOT
BRANCH   2  17
HETATM   17  C2  UNL     1       5.069  10.274   1.967  1.00  0.00     0.078 A 
HETATM   18  C3  UNL     1       3.848   9.537   2.374  1.00  0.00     0.015 A 
HETATM   19  C4  UNL     1       3.977   9.931   0.962  1.00  0.00     0.015 A 
ENDBRANCH   2  17
BRANCH  11  20
HETATM   20  C12 UNL     1      12.986   8.450   2.050  1.00  0.00     0.175 C 
BRANCH  20  21
HETATM   21  O2  UNL     1      12.506   7.629   1.042  1.00  0.00    -0.400 OA
ATOM     22  H2  UNL     1      12.537   6.717   1.304  1.00  0.00     0.209 HD
ENDBRANCH  20  21
ENDBRANCH  11  20
TORSDOF 3
ENDMDL
MODEL 5
REMARK VINA RESULT: -7.128381621      2.865      4.129
REMARK  3 active torsions:
REMARK  status: ('A' for Active; 'I' for Inactive)
REMARK    1  A    between atoms: C1_2  and  C2_3 
REMARK       I    between atoms: C1_2  and  N1_6 
REMARK    2  A    between atoms: C11_14  and  C12_15 
REMARK    3  A    between atoms: C12_15  and  O2_16 
ROOT
HETATM    1  O1  UNL     1      10.365   9.571   5.502  1.00  0.00    -0.273 OA
HETATM    2  C1  UNL     1      10.165   9.526   4.248  1.00  0.00     0.224 C 
HETATM    3  N1  UNL     1      11.248   9.581   3.358  1.00  0.00    -0.351 N 
HETATM    4  C5  UNL     1      11.131   9.544   1.915  1.00  0.00     0.126 C 
HETATM    5  C6  UNL     1      11.801   8.218   1.509  1.00  0.00     0.027 C 
HETATM    6  C7  UNL     1      13.279   8.435   1.867  1.00  0.00     0.026 C 
HETATM    7  C8  UNL     1      14.162   7.381   1.305  1.00  0.00     0.278 C 
HETATM    8  N2  UNL     1      15.479   7.525   1.835  1.00  0.00     0.090 N 
HETATM    9  C9  UNL     1      15.753   8.838   2.378  1.00  0.00     0.278 C 
HETATM   10  C10 UNL     1      14.912   8.787   3.651  1.00  0.00     0.037 C 
HETATM   11  C11 UNL     1      15.389   7.473   4.222  1.00  0.00     0.013 C 
HETATM   12  C13 UNL     1      14.226   6.842   4.919  1.00  0.00     0.014 C 
HETATM   13  C14 UNL     1      13.056   7.295   4.065  1.00  0.00     0.013 C 
HETATM   14  C15 UNL     1      13.469   8.547   3.360  1.00  0.00    -0.013 C 
HETATM   15  C16 UNL     1      12.599   9.676   3.919  1.00  0.00     0.136 C 
HETATM   16  C17 UNL     1      15.745   6.678   2.980  1.00  0.00     0.284 C 
ENDROOT
BRANCH   2  17
HETATM   17  C2  UNL     1       8.759   9.418   3.823  1.00  0.00     0.078 A 
HETATM   18  C3  UNL     1       7.732   8.853   4.733  1.00  0.00     0.015 A 
HETATM   19  C4  UNL     1       8.248   7.992   3.656  1.00  0.00     0.015 A 
ENDBRANCH   2  17
BRANCH  11  20
HETATM   20  C12 UNL     1      16.590   7.678   5.111  1.00  0.00     0.175 C 
BRANCH  20  21
HETATM   21  O2  UNL     1      17.702   7.028   4.599  1.00  0.00    -0.400 OA
ATOM     22  H2  UNL     1      17.808   7.214   3.674  1.00  0.00     0.209 HD
ENDBRANCH  20  21
ENDBRANCH  11  20
TORSDOF 3
ENDMDL
