MODEL 1
REMARK VINA RESULT: -6.959491517      0.000      0.000
REMARK  6 active torsions:
REMARK  status: ('A' for Active; 'I' for Inactive)
REMARK    1  A    between atoms: C9_10  and  N2_11 
REMARK    2  A    between atoms: N2_11  and  C10_13 
REMARK    3  A    between atoms: C10_13  and  C11_14 
REMARK    4  A    between atoms: C11_14  and  N3_15 
REMARK    5  A    between atoms: N4_20  and  C13_21 
REMARK    6  A    between atoms: C13_21  and  C14_22 
ROOT
HETATM    1  C1  UNL     1      15.818   8.445  -5.057  1.00  0.00     0.098 C 
HETATM    2  C2  UNL     1      16.056   8.892  -3.946  1.00  0.00    -0.175 C 
HETATM    3  C3  UNL     1      16.350   9.401  -2.598  1.00  0.00     0.044 C 
HETATM    4  C4  UNL     1      17.787   9.914  -2.584  1.00  0.00     0.054 C 
HETATM    5  C5  UNL     1      18.063  10.482  -1.212  1.00  0.00     0.277 C 
HETATM    6  N1  UNL     1      17.354   9.734  -0.193  1.00  0.00     0.125 N 
HETATM    7  C6  UNL     1      17.328   8.346  -0.637  1.00  0.00     0.281 C 
HETATM    8  C7  UNL     1      16.154   8.266  -1.620  1.00  0.00     0.037 C 
HETATM    9  C8  UNL     1      14.831   8.337  -0.920  1.00  0.00     0.037 C 
HETATM   10  C9  UNL     1      15.014   9.230   0.335  1.00  0.00     0.145 C 
HETATM   11  C12 UNL     1      16.032  10.249   0.017  1.00  0.00     0.478 C 
HETATM   12  N4  UNL     1      15.636  11.159  -1.029  1.00  0.00     0.129 N 
HETATM   13  C16 UNL     1      15.464  10.573  -2.327  1.00  0.00     0.297 C 
ENDROOT
BRANCH  12  14
HETATM   14  C13 UNL     1      14.424  11.849  -0.684  1.00  0.00     0.302 C 
BRANCH  14  15
HETATM   15  C14 UNL     1      14.336  13.082  -1.555  1.00  0.00    -0.007 C 
HETATM   16  C15 UNL     1      14.481  14.297  -1.013  1.00  0.00     0.008 C 
ENDBRANCH  14  15
ENDBRANCH  12  14
BRANCH  10  17
HETATM   17  N2  UNL     1      15.156   8.383   1.423  1.00  0.00    -0.392 N 
ATOM     18  H2  UNL     1      16.033   8.450   1.939  1.00  0.00     0.159 HD
BRANCH  17  19
HETATM   19  C10 UNL     1      14.238   7.457   1.885  1.00  0.00     0.083 C 
BRANCH  19  20
HETATM   20  C11 UNL     1      13.146   7.908   2.778  1.00  0.00     0.273 C 
BRANCH  20  21
HETATM   21  N3  UNL     1      12.069   6.907   2.862  1.00  0.00    -0.075 N 
ATOM     22  H33 UNL     1      12.424   6.001   3.172  1.00  0.00     0.274 HD
ATOM     23  H32 UNL     1      11.438   7.103   3.640  1.00  0.00     0.274 HD
ATOM     24  H31 UNL     1      11.562   6.826   1.981  1.00  0.00     0.274 HD
ENDBRANCH  20  21
ENDBRANCH  19  20
ENDBRANCH  17  19
ENDBRANCH  10  17
TORSDOF 6
ENDMDL
MODEL 2
REMARK VINA RESULT: -6.719489806      0.996      1.338
REMARK  6 active torsions:
REMARK  status: ('A' for Active; 'I' for Inactive)
REMARK    1  A    between atoms: C9_10  and  N2_11 
REMARK    2  A    between atoms: N2_11  and  C10_13 
REMARK    3  A    between atoms: C10_13  and  C11_14 
REMARK    4  A    between atoms: C11_14  and  N3_15 
REMARK    5  A    between atoms: N4_20  and  C13_21 
REMARK    6  A    between atoms: C13_21  and  C14_22 
ROOT
HETATM    1  C1  UNL     1      16.233   9.267  -5.395  1.00  0.00     0.098 C 
HETATM    2  C2  UNL     1      16.339   9.428  -4.190  1.00  0.00    -0.175 C 
HETATM    3  C3  UNL     1      16.471   9.591  -2.735  1.00  0.00     0.044 C 
HETATM    4  C4  UNL     1      17.920   9.956  -2.423  1.00  0.00     0.054 C 
HETATM    5  C5  UNL     1      18.034  10.172  -0.933  1.00  0.00     0.277 C 
HETATM    6  N1  UNL     1      17.146   9.281  -0.214  1.00  0.00     0.125 N 
HETATM    7  C6  UNL     1      17.100   8.036  -0.972  1.00  0.00     0.281 C 
HETATM    8  C7  UNL     1      16.073   8.287  -2.083  1.00  0.00     0.037 C 
HETATM    9  C8  UNL     1      14.672   8.317  -1.554  1.00  0.00     0.037 C 
HETATM   10  C9  UNL     1      14.729   8.884  -0.111  1.00  0.00     0.145 C 
HETATM   11  C12 UNL     1      15.841   9.852  -0.052  1.00  0.00     0.478 C 
HETATM   12  N4  UNL     1      15.651  11.007  -0.895  1.00  0.00     0.129 N 
HETATM   13  C16 UNL     1      15.627  10.746  -2.305  1.00  0.00     0.297 C 
ENDROOT
BRANCH  12  14
HETATM   14  C13 UNL     1      14.444  11.708  -0.548  1.00  0.00     0.302 C 
BRANCH  14  15
HETATM   15  C14 UNL     1      14.307  12.877  -1.497  1.00  0.00    -0.007 C 
HETATM   16  C15 UNL     1      14.487  14.127  -1.052  1.00  0.00     0.008 C 
ENDBRANCH  14  15
ENDBRANCH  12  14
BRANCH  10  17
HETATM   17  N2  UNL     1      14.667   7.804   0.755  1.00  0.00    -0.392 N 
ATOM     18  H2  UNL     1      14.602   6.881   0.327  1.00  0.00     0.159 HD
BRANCH  17  19
HETATM   19  C10 UNL     1      14.682   7.841   2.138  1.00  0.00     0.083 C 
BRANCH  19  20
HETATM   20  C11 UNL     1      15.524   6.870   2.876  1.00  0.00     0.273 C 
BRANCH  20  21
HETATM   21  N3  UNL     1      16.958   7.143   2.684  1.00  0.00    -0.075 N 
ATOM     22  H33 UNL     1      17.438   6.343   2.269  1.00  0.00     0.274 HD
ATOM     23  H32 UNL     1      17.112   7.824   1.940  1.00  0.00     0.274 HD
ATOM     24  H31 UNL     1      17.404   7.433   3.555  1.00  0.00     0.274 HD
ENDBRANCH  20  21
ENDBRANCH  19  20
ENDBRANCH  17  19
ENDBRANCH  10  17
TORSDOF 6
ENDMDL
MODEL 3
REMARK VINA RESULT: -6.713310231      1.319      1.618
REMARK  6 active torsions:
REMARK  status: ('A' for Active; 'I' for Inactive)
REMARK    1  A    between atoms: C9_10  and  N2_11 
REMARK    2  A    between atoms: N2_11  and  C10_13 
REMARK    3  A    between atoms: C10_13  and  C11_14 
REMARK    4  A    between atoms: C11_14  and  N3_15 
REMARK    5  A    between atoms: N4_20  and  C13_21 
REMARK    6  A    between atoms: C13_21  and  C14_22 
ROOT
HETATM    1  C1  UNL     1      17.247   9.176  -3.850  1.00  0.00     0.098 C 
HETATM    2  C2  UNL     1      17.042   9.216  -2.647  1.00  0.00    -0.175 C 
HETATM    3  C3  UNL     1      16.806   9.234  -1.196  1.00  0.00     0.044 C 
HETATM    4  C4  UNL     1      18.048   9.804  -0.516  1.00  0.00     0.054 C 
HETATM    5  C5  UNL     1      17.776   9.867   0.969  1.00  0.00     0.277 C 
HETATM    6  N1  UNL     1      16.937   8.762   1.386  1.00  0.00     0.125 N 
HETATM    7  C6  UNL     1      17.305   7.622   0.556  1.00  0.00     0.281 C 
HETATM    8  C7  UNL     1      16.529   7.816  -0.752  1.00  0.00     0.037 C 
HETATM    9  C8  UNL     1      15.065   7.547  -0.580  1.00  0.00     0.037 C 
HETATM   10  C9  UNL     1      14.683   7.950   0.868  1.00  0.00     0.145 C 
HETATM   11  C12 UNL     1      15.544   9.080   1.263  1.00  0.00     0.478 C 
HETATM   12  N4  UNL     1      15.331  10.273   0.480  1.00  0.00     0.129 N 
HETATM   13  C16 UNL     1      15.680  10.173  -0.908  1.00  0.00     0.297 C 
ENDROOT
BRANCH  12  14
HETATM   14  C13 UNL     1      13.966  10.714   0.569  1.00  0.00     0.302 C 
BRANCH  14  15
HETATM   15  C14 UNL     1      13.770  11.802  -0.463  1.00  0.00    -0.007 C 
HETATM   16  C15 UNL     1      13.337  13.012  -0.088  1.00  0.00     0.008 C 
ENDBRANCH  14  15
ENDBRANCH  12  14
BRANCH  10  17
HETATM   17  N2  UNL     1      14.634   6.784   1.616  1.00  0.00    -0.392 N 
ATOM     18  H2  UNL     1      14.771   5.911   1.108  1.00  0.00     0.159 HD
BRANCH  17  19
HETATM   19  C10 UNL     1      14.420   6.676   2.979  1.00  0.00     0.083 C 
BRANCH  19  20
HETATM   20  C11 UNL     1      13.212   7.298   3.571  1.00  0.00     0.273 C 
BRANCH  20  21
HETATM   21  N3  UNL     1      11.982   6.823   2.914  1.00  0.00    -0.075 N 
ATOM     22  H33 UNL     1      11.398   6.288   3.557  1.00  0.00     0.274 HD
ATOM     23  H32 UNL     1      11.342   7.593   2.720  1.00  0.00     0.274 HD
ATOM     24  H31 UNL     1      12.191   6.290   2.070  1.00  0.00     0.274 HD
ENDBRANCH  20  21
ENDBRANCH  19  20
ENDBRANCH  17  19
ENDBRANCH  10  17
TORSDOF 6
ENDMDL
MODEL 4
REMARK VINA RESULT: -6.677747829      1.460      1.591
REMARK  6 active torsions:
REMARK  status: ('A' for Active; 'I' for Inactive)
REMARK    1  A    between atoms: C9_10  and  N2_11 
REMARK    2  A    between atoms: N2_11  and  C10_13 
REMARK    3  A    between atoms: C10_13  and  C11_14 
REMARK    4  A    between atoms: C11_14  and  N3_15 
REMARK    5  A    between atoms: N4_20  and  C13_21 
REMARK    6  A    between atoms: C13_21  and  C14_22 
ROOT
HETATM    1  C1  UNL     1      14.920   7.046  -4.285  1.00  0.00     0.098 C 
HETATM    2  C2  UNL     1      15.410   7.893  -3.555  1.00  0.00    -0.175 C 
HETATM    3  C3  UNL     1      16.012   8.889  -2.657  1.00  0.00     0.044 C 
HETATM    4  C4  UNL     1      17.370   9.290  -3.228  1.00  0.00     0.054 C 
HETATM    5  C5  UNL     1      17.957  10.351  -2.329  1.00  0.00     0.277 C 
HETATM    6  N1  UNL     1      17.584  10.119  -0.948  1.00  0.00     0.125 N 
HETATM    7  C6  UNL     1      17.528   8.674  -0.767  1.00  0.00     0.281 C 
HETATM    8  C7  UNL     1      16.147   8.262  -1.289  1.00  0.00     0.037 C 
HETATM    9  C8  UNL     1      15.049   8.679  -0.359  1.00  0.00     0.037 C 
HETATM   10  C9  UNL     1      15.496   9.995   0.331  1.00  0.00     0.145 C 
HETATM   11  C12 UNL     1      16.333  10.743  -0.626  1.00  0.00     0.478 C 
HETATM   12  N4  UNL     1      15.624  11.168  -1.808  1.00  0.00     0.129 N 
HETATM   13  C16 UNL     1      15.157  10.114  -2.662  1.00  0.00     0.297 C 
ENDROOT
BRANCH  12  14
HETATM   14  C13 UNL     1      14.502  12.000  -1.468  1.00  0.00     0.302 C 
BRANCH  14  15
HETATM   15  C14 UNL     1      15.027  13.399  -1.233  1.00  0.00    -0.007 C 
HETATM   16  C15 UNL     1      14.193  14.370  -0.842  1.00  0.00     0.008 C 
ENDBRANCH  14  15
ENDBRANCH  12  14
BRANCH  10  17
HETATM   17  N2  UNL     1      15.967   9.657   1.590  1.00  0.00    -0.392 N 
ATOM     18  H2  UNL     1      16.596  10.325   2.034  1.00  0.00     0.159 HD
BRANCH  17  19
HETATM   19  C10 UNL     1      15.677   8.511   2.310  1.00  0.00     0.083 C 
BRANCH  19  20
HETATM   20  C11 UNL     1      16.792   7.677   2.815  1.00  0.00     0.273 C 
BRANCH  20  21
HETATM   21  N3  UNL     1      16.296   6.491   3.534  1.00  0.00    -0.075 N 
ATOM     22  H33 UNL     1      15.328   6.283   3.289  1.00  0.00     0.274 HD
ATOM     23  H32 UNL     1      16.734   5.636   3.190  1.00  0.00     0.274 HD
ATOM     24  H31 UNL     1      16.412   6.589   4.543  1.00  0.00     0.274 HD
ENDBRANCH  20  21
ENDBRANCH  19  20
ENDBRANCH  17  19
ENDBRANCH  10  17
TORSDOF 6
ENDMDL
MODEL 5
REMARK VINA RESULT: -6.614104683      2.271      4.077
REMARK  6 active torsions:
REMARK  status: ('A' for Active; 'I' for Inactive)
REMARK    1  A    between atoms: C9_10  and  N2_11 
REMARK    2  A    between atoms: N2_11  and  C10_13 
REMARK    3  A    between atoms: C10_13  and  C11_14 
REMARK    4  A    between atoms: C11_14  and  N3_15 
REMARK    5  A    between atoms: N4_20  and  C13_21 
REMARK    6  A    between atoms: C13_21  and  C14_22 
ROOT
HETATM    1  C1  UNL     1      18.897   9.585  -4.252  1.00  0.00     0.098 C 
HETATM    2  C2  UNL     1      17.788   9.260  -3.858  1.00  0.00    -0.175 C 
HETATM    3  C3  UNL     1      16.441   8.895  -3.395  1.00  0.00     0.044 C 
HETATM    4  C4  UNL     1      15.784   8.030  -4.467  1.00  0.00     0.054 C 
HETATM    5  C5  UNL     1      14.423   7.618  -3.960  1.00  0.00     0.277 C 
HETATM    6  N1  UNL     1      13.834   8.667  -3.151  1.00  0.00     0.125 N 
HETATM    7  C6  UNL     1      14.267   9.933  -3.731  1.00  0.00     0.281 C 
HETATM    8  C7  UNL     1      15.669  10.173  -3.160  1.00  0.00     0.037 C 
HETATM    9  C8  UNL     1      15.625  10.555  -1.711  1.00  0.00     0.037 C 
HETATM   10  C9  UNL     1      14.405   9.840  -1.076  1.00  0.00     0.145 C 
HETATM   11  C12 UNL     1      14.222   8.554  -1.775  1.00  0.00     0.478 C 
HETATM   12  N4  UNL     1      15.321   7.637  -1.599  1.00  0.00     0.129 N 
HETATM   13  C16 UNL     1      16.571   8.050  -2.169  1.00  0.00     0.297 C 
ENDROOT
BRANCH  12  14
HETATM   14  C13 UNL     1      15.537   7.348  -0.207  1.00  0.00     0.302 C 
BRANCH  14  15
HETATM   15  C14 UNL     1      16.987   7.646   0.101  1.00  0.00    -0.007 C 
HETATM   16  C15 UNL     1      17.337   8.086   1.316  1.00  0.00     0.008 C 
ENDBRANCH  14  15
ENDBRANCH  12  14
BRANCH  10  17
HETATM   17  N2  UNL     1      13.380  10.770  -0.998  1.00  0.00    -0.392 N 
ATOM     18  H2  UNL     1      12.691  10.751  -1.750  1.00  0.00     0.159 HD
BRANCH  17  19
HETATM   19  C10 UNL     1      13.190  11.722  -0.013  1.00  0.00     0.083 C 
BRANCH  19  20
HETATM   20  C11 UNL     1      12.165  11.485   1.031  1.00  0.00     0.273 C 
BRANCH  20  21
HETATM   21  N3  UNL     1      11.061  10.653   0.524  1.00  0.00    -0.075 N 
ATOM     22  H33 UNL     1      11.405   9.894  -0.065  1.00  0.00     0.274 HD
ATOM     23  H32 UNL     1      10.641  10.097   1.270  1.00  0.00     0.274 HD
ATOM     24  H31 UNL     1      10.362  11.213   0.038  1.00  0.00     0.274 HD
ENDBRANCH  20  21
ENDBRANCH  19  20
ENDBRANCH  17  19
ENDBRANCH  10  17
TORSDOF 6
ENDMDL
