MODEL 1
REMARK VINA RESULT: -6.958462276      0.000      0.000
REMARK  4 active torsions:
REMARK  status: ('A' for Active; 'I' for Inactive)
REMARK    1  A    between atoms: C2_2  and  C4_4 
REMARK    2  A    between atoms: C4_4  and  C6_12 
REMARK    3  A    between atoms: N1_5  and  N2_7 
REMARK       I    between atoms: C6_12  and  N5_14 
REMARK    4  A    between atoms: N5_14  and  C7_16 
ROOT
HETATM    1  C4  UNL     1      13.572   7.945   2.499  1.00  0.00     0.096 C 
HETATM    2  N1  UNL     1      13.822   7.680   1.268  1.00  0.00    -0.297 N 
ATOM      3  H1  UNL     1      13.202   8.087   0.568  1.00  0.00     0.187 HD
ENDROOT
BRANCH   1   4
HETATM    4  C2  UNL     1      14.401   7.411   3.594  1.00  0.00     0.035 C 
HETATM    5  C1  UNL     1      13.629   7.054   4.840  1.00  0.00     0.016 C 
HETATM    6  C3  UNL     1      15.546   8.295   3.966  1.00  0.00     0.016 C 
ENDBRANCH   1   4
BRANCH   1   7
HETATM    7  C6  UNL     1      12.434   8.787   2.796  1.00  0.00     0.266 C 
HETATM    8  O1  UNL     1      12.685   9.943   3.289  1.00  0.00    -0.266 OA
HETATM    9  N5  UNL     1      11.068   8.418   2.580  1.00  0.00    -0.350 N 
ATOM     10  H5  UNL     1      10.826   7.507   2.191  1.00  0.00     0.163 HD
BRANCH   9  11
HETATM   11  C7  UNL     1      10.052   9.364   2.925  1.00  0.00     0.112 C 
HETATM   12  C8  UNL     1       8.870   9.327   1.947  1.00  0.00     0.055 C 
HETATM   13  C9  UNL     1       7.843  10.082   2.774  1.00  0.00     0.238 C 
HETATM   14  N6  UNL     1       8.107   9.790   4.150  1.00  0.00    -0.073 N 
HETATM   15  C10 UNL     1       8.318  11.004   4.938  1.00  0.00     0.272 C 
HETATM   16  C11 UNL     1       6.994   9.023   4.681  1.00  0.00     0.272 C 
HETATM   17  C12 UNL     1       9.339   9.035   4.217  1.00  0.00     0.261 C 
ENDBRANCH   9  11
ENDBRANCH   1   7
BRANCH   2  18
HETATM   18  N2  UNL     1      14.853   6.895   0.814  1.00  0.00    -0.276 N 
HETATM   19  C5  UNL     1      15.818   7.389   0.096  1.00  0.00     0.215 C 
HETATM   20  N3  UNL     1      16.829   6.479  -0.316  1.00  0.00    -0.065 NA
HETATM   21  N4  UNL     1      15.804   8.759  -0.220  1.00  0.00    -0.065 NA
ATOM     22  H2  UNL     1      14.862   5.902   1.045  1.00  0.00     0.189 HD
ENDBRANCH   2  18
TORSDOF 4
ENDMDL
MODEL 2
REMARK VINA RESULT: -6.815489202      2.183      6.739
REMARK  4 active torsions:
REMARK  status: ('A' for Active; 'I' for Inactive)
REMARK    1  A    between atoms: C2_2  and  C4_4 
REMARK    2  A    between atoms: C4_4  and  C6_12 
REMARK    3  A    between atoms: N1_5  and  N2_7 
REMARK       I    between atoms: C6_12  and  N5_14 
REMARK    4  A    between atoms: N5_14  and  C7_16 
ROOT
HETATM    1  C4  UNL     1      13.445   7.608   2.689  1.00  0.00     0.096 C 
HETATM    2  N1  UNL     1      12.188   7.708   2.444  1.00  0.00    -0.297 N 
ATOM      3  H1  UNL     1      11.917   8.188   1.586  1.00  0.00     0.187 HD
ENDROOT
BRANCH   1   4
HETATM    4  C2  UNL     1      13.950   6.935   3.898  1.00  0.00     0.035 C 
HETATM    5  C1  UNL     1      13.964   7.804   5.132  1.00  0.00     0.016 C 
HETATM    6  C3  UNL     1      15.298   6.317   3.722  1.00  0.00     0.016 C 
ENDBRANCH   1   4
BRANCH   1   7
HETATM    7  C6  UNL     1      14.371   8.186   1.740  1.00  0.00     0.266 C 
HETATM    8  O1  UNL     1      15.052   9.195   2.141  1.00  0.00    -0.266 OA
HETATM    9  N5  UNL     1      14.573   7.712   0.405  1.00  0.00    -0.350 N 
ATOM     10  H5  UNL     1      14.050   6.912   0.048  1.00  0.00     0.163 HD
BRANCH   9  11
HETATM   11  C7  UNL     1      15.529   8.391  -0.414  1.00  0.00     0.112 C 
HETATM   12  C8  UNL     1      16.082   7.490  -1.526  1.00  0.00     0.055 C 
HETATM   13  C9  UNL     1      16.698   8.554  -2.420  1.00  0.00     0.238 C 
HETATM   14  N6  UNL     1      15.897   9.733  -2.293  1.00  0.00    -0.073 N 
HETATM   15  C10 UNL     1      16.688  10.893  -1.880  1.00  0.00     0.272 C 
HETATM   16  C11 UNL     1      15.243   9.986  -3.565  1.00  0.00     0.272 C 
HETATM   17  C12 UNL     1      14.927   9.501  -1.245  1.00  0.00     0.261 C 
ENDBRANCH   9  11
ENDBRANCH   1   7
BRANCH   2  18
HETATM   18  N2  UNL     1      11.179   7.223   3.239  1.00  0.00    -0.276 N 
HETATM   19  C5  UNL     1      10.088   7.902   3.440  1.00  0.00     0.215 C 
HETATM   20  N3  UNL     1       9.115   7.297   4.282  1.00  0.00    -0.065 NA
HETATM   21  N4  UNL     1       9.940   9.158   2.828  1.00  0.00    -0.065 NA
ATOM     22  H2  UNL     1      11.287   6.311   3.681  1.00  0.00     0.189 HD
ENDBRANCH   2  18
TORSDOF 4
ENDMDL
MODEL 3
REMARK VINA RESULT: -6.767750796      2.178      6.830
REMARK  4 active torsions:
REMARK  status: ('A' for Active; 'I' for Inactive)
REMARK    1  A    between atoms: C2_2  and  C4_4 
REMARK    2  A    between atoms: C4_4  and  C6_12 
REMARK    3  A    between atoms: N1_5  and  N2_7 
REMARK       I    between atoms: C6_12  and  N5_14 
REMARK    4  A    between atoms: N5_14  and  C7_16 
ROOT
HETATM    1  C4  UNL     1      13.135   7.401   3.182  1.00  0.00     0.096 C 
HETATM    2  N1  UNL     1      11.925   7.162   2.828  1.00  0.00    -0.297 N 
ATOM      3  H1  UNL     1      11.760   6.957   1.842  1.00  0.00     0.187 HD
ENDROOT
BRANCH   1   4
HETATM    4  C2  UNL     1      13.490   7.709   4.579  1.00  0.00     0.035 C 
HETATM    5  C1  UNL     1      13.538   9.183   4.897  1.00  0.00     0.016 C 
HETATM    6  C3  UNL     1      14.763   7.071   5.029  1.00  0.00     0.016 C 
ENDBRANCH   1   4
BRANCH   1   7
HETATM    7  C6  UNL     1      14.163   7.370   2.164  1.00  0.00     0.266 C 
HETATM    8  O1  UNL     1      14.994   6.396   2.212  1.00  0.00    -0.266 OA
HETATM    9  N5  UNL     1      14.309   8.342   1.123  1.00  0.00    -0.350 N 
ATOM     10  H5  UNL     1      13.669   9.133   1.051  1.00  0.00     0.163 HD
BRANCH   9  11
HETATM   11  C7  UNL     1      15.377   8.173   0.188  1.00  0.00     0.112 C 
HETATM   12  C8  UNL     1      14.938   7.391  -1.057  1.00  0.00     0.055 C 
HETATM   13  C9  UNL     1      16.095   7.733  -1.982  1.00  0.00     0.238 C 
HETATM   14  N6  UNL     1      16.537   9.050  -1.642  1.00  0.00    -0.073 N 
HETATM   15  C10 UNL     1      17.961   9.084  -1.310  1.00  0.00     0.272 C 
HETATM   16  C11 UNL     1      16.251   9.935  -2.758  1.00  0.00     0.272 C 
HETATM   17  C12 UNL     1      15.826   9.466  -0.453  1.00  0.00     0.261 C 
ENDBRANCH   9  11
ENDBRANCH   1   7
BRANCH   2  18
HETATM   18  N2  UNL     1      10.834   7.159   3.661  1.00  0.00    -0.276 N 
HETATM   19  C5  UNL     1       9.928   8.089   3.598  1.00  0.00     0.215 C 
HETATM   20  N3  UNL     1       8.845   7.979   4.512  1.00  0.00    -0.065 NA
HETATM   21  N4  UNL     1      10.070   9.120   2.653  1.00  0.00    -0.065 NA
ATOM     22  H2  UNL     1      10.733   6.410   4.346  1.00  0.00     0.189 HD
ENDBRANCH   2  18
TORSDOF 4
ENDMDL
MODEL 4
REMARK VINA RESULT: -6.661613246      2.854      7.137
REMARK  4 active torsions:
REMARK  status: ('A' for Active; 'I' for Inactive)
REMARK    1  A    between atoms: C2_2  and  C4_4 
REMARK    2  A    between atoms: C4_4  and  C6_12 
REMARK    3  A    between atoms: N1_5  and  N2_7 
REMARK       I    between atoms: C6_12  and  N5_14 
REMARK    4  A    between atoms: N5_14  and  C7_16 
ROOT
HETATM    1  C4  UNL     1      14.204   7.489   1.857  1.00  0.00     0.096 C 
HETATM    2  N1  UNL     1      12.935   7.297   1.871  1.00  0.00    -0.297 N 
ATOM      3  H1  UNL     1      12.478   7.135   0.973  1.00  0.00     0.187 HD
ENDROOT
BRANCH   1   4
HETATM    4  C2  UNL     1      14.967   7.733   3.094  1.00  0.00     0.035 C 
HETATM    5  C1  UNL     1      16.068   8.756   2.953  1.00  0.00     0.016 C 
HETATM    6  C3  UNL     1      15.529   6.493   3.707  1.00  0.00     0.016 C 
ENDBRANCH   1   4
BRANCH   1   7
HETATM    7  C6  UNL     1      14.883   7.469   0.580  1.00  0.00     0.266 C 
HETATM    8  O1  UNL     1      15.777   6.565   0.415  1.00  0.00    -0.266 OA
HETATM    9  N5  UNL     1      14.625   8.378  -0.495  1.00  0.00    -0.350 N 
ATOM     10  H5  UNL     1      13.922   9.112  -0.404  1.00  0.00     0.163 HD
BRANCH   9  11
HETATM   11  C7  UNL     1      15.380   8.229  -1.701  1.00  0.00     0.112 C 
HETATM   12  C8  UNL     1      14.634   7.396  -2.751  1.00  0.00     0.055 C 
HETATM   13  C9  UNL     1      15.452   7.760  -3.980  1.00  0.00     0.238 C 
HETATM   14  N6  UNL     1      15.909   9.104  -3.802  1.00  0.00    -0.073 N 
HETATM   15  C10 UNL     1      17.365   9.208  -3.903  1.00  0.00     0.272 C 
HETATM   16  C11 UNL     1      15.267   9.945  -4.797  1.00  0.00     0.272 C 
HETATM   17  C12 UNL     1      15.557   9.522  -2.463  1.00  0.00     0.261 C 
ENDBRANCH   9  11
ENDBRANCH   1   7
BRANCH   2  18
HETATM   18  N2  UNL     1      12.140   7.292   2.990  1.00  0.00    -0.276 N 
HETATM   19  C5  UNL     1      11.325   8.272   3.249  1.00  0.00     0.215 C 
HETATM   20  N3  UNL     1      10.554   8.154   4.437  1.00  0.00    -0.065 NA
HETATM   21  N4  UNL     1      11.258   9.360   2.361  1.00  0.00    -0.065 NA
ATOM     22  H2  UNL     1      12.189   6.502   3.632  1.00  0.00     0.189 HD
ENDBRANCH   2  18
TORSDOF 4
ENDMDL
MODEL 5
REMARK VINA RESULT: -6.484495305      2.058      7.102
REMARK  4 active torsions:
REMARK  status: ('A' for Active; 'I' for Inactive)
REMARK    1  A    between atoms: C2_2  and  C4_4 
REMARK    2  A    between atoms: C4_4  and  C6_12 
REMARK    3  A    between atoms: N1_5  and  N2_7 
REMARK       I    between atoms: C6_12  and  N5_14 
REMARK    4  A    between atoms: N5_14  and  C7_16 
ROOT
HETATM    1  C4  UNL     1       8.430   9.258   3.347  1.00  0.00     0.096 C 
HETATM    2  N1  UNL     1       7.844   9.146   2.210  1.00  0.00    -0.297 N 
ATOM      3  H1  UNL     1       8.433   9.175   1.378  1.00  0.00     0.187 HD
ENDROOT
BRANCH   1   4
HETATM    4  C2  UNL     1       7.679   9.230   4.615  1.00  0.00     0.035 C 
HETATM    5  C1  UNL     1       7.160  10.575   5.059  1.00  0.00     0.016 C 
HETATM    6  C3  UNL     1       8.428   8.599   5.742  1.00  0.00     0.016 C 
ENDBRANCH   1   4
BRANCH   1   7
HETATM    7  C6  UNL     1       9.867   9.421   3.360  1.00  0.00     0.266 C 
HETATM    8  O1  UNL     1      10.311  10.605   3.571  1.00  0.00    -0.266 OA
HETATM    9  N5  UNL     1      10.810   8.364   3.155  1.00  0.00    -0.350 N 
ATOM     10  H5  UNL     1      10.497   7.408   2.984  1.00  0.00     0.163 HD
BRANCH   9  11
HETATM   11  C7  UNL     1      12.203   8.685   3.199  1.00  0.00     0.112 C 
HETATM   12  C8  UNL     1      12.792   8.518   4.606  1.00  0.00     0.055 C 
HETATM   13  C9  UNL     1      14.271   8.514   4.255  1.00  0.00     0.238 C 
HETATM   14  N6  UNL     1      14.398   7.919   2.960  1.00  0.00    -0.073 N 
HETATM   15  C10 UNL     1      15.091   8.797   2.017  1.00  0.00     0.272 C 
HETATM   16  C11 UNL     1      15.107   6.659   3.099  1.00  0.00     0.272 C 
HETATM   17  C12 UNL     1      13.068   7.712   2.431  1.00  0.00     0.261 C 
ENDBRANCH   9  11
ENDBRANCH   1   7
BRANCH   2  18
HETATM   18  N2  UNL     1       6.493   8.993   2.019  1.00  0.00    -0.276 N 
HETATM   19  C5  UNL     1       5.774   9.929   1.475  1.00  0.00     0.215 C 
HETATM   20  N3  UNL     1       4.387   9.655   1.329  1.00  0.00    -0.065 NA
HETATM   21  N4  UNL     1       6.395  11.124   1.073  1.00  0.00    -0.065 NA
ATOM     22  H2  UNL     1       6.045   8.125   2.310  1.00  0.00     0.189 HD
ENDBRANCH   2  18
TORSDOF 4
ENDMDL
