MODEL 1
REMARK VINA RESULT: -7.356238625      0.000      0.000
REMARK  7 active torsions:
REMARK  status: ('A' for Active; 'I' for Inactive)
REMARK       I    between atoms: N1_4  and  C4_5 
REMARK    1  A    between atoms: C4_5  and  C5_7 
REMARK    2  A    between atoms: C5_7  and  N2_8 
REMARK    3  A    between atoms: N2_8  and  C7_10 
REMARK    4  A    between atoms: C7_10  and  N3_11 
REMARK    5  A    between atoms: C7_10  and  C8_15 
REMARK    6  A    between atoms: C8_15  and  N4_16 
REMARK    7  A    between atoms: C8_15  and  C9_20 
ROOT
HETATM    1  C7  UNL     1       9.375   8.023   3.306  1.00  0.00     0.447 C 
ENDROOT
BRANCH   1   2
HETATM    2  N2  UNL     1      10.652   8.672   3.222  1.00  0.00     0.126 N 
HETATM    3  C6  UNL     1      11.789   7.799   3.162  1.00  0.00     0.313 C 
BRANCH   2   4
HETATM    4  C5  UNL     1      10.751   9.684   2.241  1.00  0.00     0.377 C 
BRANCH   4   5
HETATM    5  C4  UNL     1      11.778  10.718   2.464  1.00  0.00     0.248 C 
HETATM    6  N1  UNL     1      12.386  11.395   1.366  1.00  0.00    -0.343 N 
HETATM    7  C2  UNL     1      13.274  12.335   0.754  1.00  0.00     0.101 A 
HETATM    8  C3  UNL     1      12.430  11.509  -0.129  1.00  0.00     0.151 A 
HETATM    9  C1  UNL     1      12.896  13.801   0.929  1.00  0.00     0.034 C 
HETATM   10  O1  UNL     1      12.149  11.039   3.614  1.00  0.00    -0.271 OA
ENDBRANCH   4   5
ENDBRANCH   2   4
ENDBRANCH   1   2
BRANCH   1  11
HETATM   11  N3  UNL     1       9.485   6.612   3.162  1.00  0.00    -0.045 N 
ATOM     12  H33 UNL     1       9.332   6.324   2.195  1.00  0.00     0.277 HD
ATOM     13  H32 UNL     1      10.452   6.303   3.269  1.00  0.00     0.277 HD
ATOM     14  H31 UNL     1       8.865   6.114   3.800  1.00  0.00     0.277 HD
ENDBRANCH   1  11
BRANCH   1  15
HETATM   15  C8  UNL     1       8.658   8.390   4.577  1.00  0.00     0.248 C 
BRANCH  15  16
HETATM   16  N4  UNL     1       9.468   9.165   5.479  1.00  0.00    -0.071 N 
ATOM     17  H43 UNL     1       9.716   8.620   6.305  1.00  0.00     0.274 HD
ATOM     18  H42 UNL     1      10.400   9.316   5.092  1.00  0.00     0.274 HD
ATOM     19  H41 UNL     1       9.037  10.051   5.743  1.00  0.00     0.274 HD
ENDBRANCH  15  16
BRANCH  15  20
HETATM   20  C9  UNL     1       7.278   8.905   4.418  1.00  0.00     0.020 C 
HETATM   21  C10 UNL     1       6.801   9.850   5.481  1.00  0.00     0.007 C 
HETATM   22  C11 UNL     1       5.931  10.960   4.880  1.00  0.00     0.000 C 
HETATM   23  C12 UNL     1       4.868  10.223   4.081  1.00  0.00     0.000 C 
HETATM   24  C13 UNL     1       5.554   9.788   2.791  1.00  0.00     0.000 C 
HETATM   25  C14 UNL     1       6.961   9.378   3.019  1.00  0.00     0.007 C 
ENDBRANCH  15  20
ENDBRANCH   1  15
TORSDOF 7
ENDMDL
MODEL 2
REMARK VINA RESULT: -7.131602033      0.640      1.221
REMARK  7 active torsions:
REMARK  status: ('A' for Active; 'I' for Inactive)
REMARK       I    between atoms: N1_4  and  C4_5 
REMARK    1  A    between atoms: C4_5  and  C5_7 
REMARK    2  A    between atoms: C5_7  and  N2_8 
REMARK    3  A    between atoms: N2_8  and  C7_10 
REMARK    4  A    between atoms: C7_10  and  N3_11 
REMARK    5  A    between atoms: C7_10  and  C8_15 
REMARK    6  A    between atoms: C8_15  and  N4_16 
REMARK    7  A    between atoms: C8_15  and  C9_20 
ROOT
HETATM    1  C7  UNL     1       9.743   8.327   3.286  1.00  0.00     0.447 C 
ENDROOT
BRANCH   1   2
HETATM    2  N2  UNL     1      11.100   8.750   3.086  1.00  0.00     0.126 N 
HETATM    3  C6  UNL     1      12.088   7.710   3.141  1.00  0.00     0.313 C 
BRANCH   2   4
HETATM    4  C5  UNL     1      11.315   9.579   1.963  1.00  0.00     0.377 C 
BRANCH   4   5
HETATM    5  C4  UNL     1      11.949  10.885   2.221  1.00  0.00     0.248 C 
HETATM    6  N1  UNL     1      12.620  11.592   1.180  1.00  0.00    -0.343 N 
HETATM    7  C2  UNL     1      13.361  12.679   0.620  1.00  0.00     0.101 A 
HETATM    8  C3  UNL     1      13.011  11.557  -0.268  1.00  0.00     0.151 A 
HETATM    9  C1  UNL     1      12.587  13.982   0.458  1.00  0.00     0.034 C 
HETATM   10  O1  UNL     1      11.922  11.418   3.352  1.00  0.00    -0.271 OA
ENDBRANCH   4   5
ENDBRANCH   2   4
ENDBRANCH   1   2
BRANCH   1  11
HETATM   11  N3  UNL     1       9.619   6.910   3.262  1.00  0.00    -0.045 N 
ATOM     12  H33 UNL     1       8.640   6.623   3.244  1.00  0.00     0.277 HD
ATOM     13  H32 UNL     1       9.914   6.527   2.364  1.00  0.00     0.277 HD
ATOM     14  H31 UNL     1      10.120   6.471   4.034  1.00  0.00     0.277 HD
ENDBRANCH   1  11
BRANCH   1  15
HETATM   15  C8  UNL     1       9.171   8.907   4.551  1.00  0.00     0.248 C 
BRANCH  15  16
HETATM   16  N4  UNL     1      10.157   9.563   5.368  1.00  0.00    -0.071 N 
ATOM     17  H43 UNL     1      10.995   8.989   5.459  1.00  0.00     0.274 HD
ATOM     18  H42 UNL     1      10.557  10.366   4.881  1.00  0.00     0.274 HD
ATOM     19  H41 UNL     1       9.801   9.835   6.284  1.00  0.00     0.274 HD
ENDBRANCH  15  16
BRANCH  15  20
HETATM   20  C9  UNL     1       7.910   9.670   4.403  1.00  0.00     0.020 C 
HETATM   21  C10 UNL     1       7.481   9.968   2.996  1.00  0.00     0.007 C 
HETATM   22  C11 UNL     1       5.958   9.871   2.854  1.00  0.00     0.000 C 
HETATM   23  C12 UNL     1       5.412  10.772   3.949  1.00  0.00     0.000 C 
HETATM   24  C13 UNL     1       5.542   9.972   5.240  1.00  0.00     0.000 C 
HETATM   25  C14 UNL     1       6.783   9.161   5.271  1.00  0.00     0.007 C 
ENDBRANCH  15  20
ENDBRANCH   1  15
TORSDOF 7
ENDMDL
MODEL 3
REMARK VINA RESULT: -7.069396324      1.487      1.952
REMARK  7 active torsions:
REMARK  status: ('A' for Active; 'I' for Inactive)
REMARK       I    between atoms: N1_4  and  C4_5 
REMARK    1  A    between atoms: C4_5  and  C5_7 
REMARK    2  A    between atoms: C5_7  and  N2_8 
REMARK    3  A    between atoms: N2_8  and  C7_10 
REMARK    4  A    between atoms: C7_10  and  N3_11 
REMARK    5  A    between atoms: C7_10  and  C8_15 
REMARK    6  A    between atoms: C8_15  and  N4_16 
REMARK    7  A    between atoms: C8_15  and  C9_20 
ROOT
HETATM    1  C7  UNL     1       8.434   9.111   2.553  1.00  0.00     0.447 C 
ENDROOT
BRANCH   1   2
HETATM    2  N2  UNL     1       9.575   9.554   3.303  1.00  0.00     0.126 N 
HETATM    3  C6  UNL     1       9.562   9.230   4.700  1.00  0.00     0.313 C 
BRANCH   2   4
HETATM    4  C5  UNL     1      10.830   9.243   2.733  1.00  0.00     0.377 C 
BRANCH   4   5
HETATM    5  C4  UNL     1      11.873  10.279   2.834  1.00  0.00     0.248 C 
HETATM    6  N1  UNL     1      12.205  11.096   1.712  1.00  0.00    -0.343 N 
HETATM    7  C2  UNL     1      12.919  12.127   1.026  1.00  0.00     0.101 A 
HETATM    8  C3  UNL     1      11.899  11.378   0.271  1.00  0.00     0.151 A 
HETATM    9  C1  UNL     1      12.583  13.551   1.454  1.00  0.00     0.034 C 
HETATM   10  O1  UNL     1      12.500  10.482   3.896  1.00  0.00    -0.271 OA
ENDBRANCH   4   5
ENDBRANCH   2   4
ENDBRANCH   1   2
BRANCH   1  11
HETATM   11  N3  UNL     1       7.964   7.844   2.999  1.00  0.00    -0.045 N 
ATOM     12  H33 UNL     1       7.123   7.562   2.496  1.00  0.00     0.277 HD
ATOM     13  H32 UNL     1       8.587   7.092   2.703  1.00  0.00     0.277 HD
ATOM     14  H31 UNL     1       7.817   7.827   4.008  1.00  0.00     0.277 HD
ENDBRANCH   1  11
BRANCH   1  15
HETATM   15  C8  UNL     1       7.337  10.140   2.569  1.00  0.00     0.248 C 
BRANCH  15  16
HETATM   16  N4  UNL     1       6.997  10.624   1.256  1.00  0.00    -0.071 N 
ATOM     17  H43 UNL     1       6.140  10.187   0.918  1.00  0.00     0.274 HD
ATOM     18  H42 UNL     1       6.686  11.594   1.296  1.00  0.00     0.274 HD
ATOM     19  H41 UNL     1       7.754  10.512   0.581  1.00  0.00     0.274 HD
ENDBRANCH  15  16
BRANCH  15  20
HETATM   20  C9  UNL     1       6.162   9.823   3.413  1.00  0.00     0.020 C 
HETATM   21  C10 UNL     1       6.180  10.383   4.805  1.00  0.00     0.007 C 
HETATM   22  C11 UNL     1       4.780  10.833   5.236  1.00  0.00     0.000 C 
HETATM   23  C12 UNL     1       3.895   9.621   4.988  1.00  0.00     0.000 C 
HETATM   24  C13 UNL     1       3.643   9.599   3.485  1.00  0.00     0.000 C 
HETATM   25  C14 UNL     1       4.837  10.019   2.713  1.00  0.00     0.007 C 
ENDBRANCH  15  20
ENDBRANCH   1  15
TORSDOF 7
ENDMDL
MODEL 4
REMARK VINA RESULT: -7.041872510      0.888      1.841
REMARK  7 active torsions:
REMARK  status: ('A' for Active; 'I' for Inactive)
REMARK       I    between atoms: N1_4  and  C4_5 
REMARK    1  A    between atoms: C4_5  and  C5_7 
REMARK    2  A    between atoms: C5_7  and  N2_8 
REMARK    3  A    between atoms: N2_8  and  C7_10 
REMARK    4  A    between atoms: C7_10  and  N3_11 
REMARK    5  A    between atoms: C7_10  and  C8_15 
REMARK    6  A    between atoms: C8_15  and  N4_16 
REMARK    7  A    between atoms: C8_15  and  C9_20 
ROOT
HETATM    1  C7  UNL     1      10.828   8.475   4.072  1.00  0.00     0.447 C 
ENDROOT
BRANCH   1   2
HETATM    2  N2  UNL     1      11.933   8.795   3.213  1.00  0.00     0.126 N 
HETATM    3  C6  UNL     1      12.717   7.678   2.771  1.00  0.00     0.313 C 
BRANCH   2   4
HETATM    4  C5  UNL     1      11.627   9.646   2.129  1.00  0.00     0.377 C 
BRANCH   4   5
HETATM    5  C4  UNL     1      12.121  11.033   2.222  1.00  0.00     0.248 C 
HETATM    6  N1  UNL     1      12.694  11.684   1.090  1.00  0.00    -0.343 N 
HETATM    7  C2  UNL     1      13.303  12.773   0.391  1.00  0.00     0.101 A 
HETATM    8  C3  UNL     1      13.059  11.527  -0.357  1.00  0.00     0.151 A 
HETATM    9  C1  UNL     1      12.390  13.960   0.109  1.00  0.00     0.034 C 
HETATM   10  O1  UNL     1      12.057  11.684   3.287  1.00  0.00    -0.271 OA
ENDBRANCH   4   5
ENDBRANCH   2   4
ENDBRANCH   1   2
BRANCH   1  11
HETATM   11  N3  UNL     1      10.667   9.434   5.111  1.00  0.00    -0.045 N 
ATOM     12  H33 UNL     1      11.328   9.272   5.871  1.00  0.00     0.277 HD
ATOM     13  H32 UNL     1      10.986  10.357   4.816  1.00  0.00     0.277 HD
ATOM     14  H31 UNL     1       9.707   9.466   5.454  1.00  0.00     0.277 HD
ENDBRANCH   1  11
BRANCH   1  15
HETATM   15  C8  UNL     1       9.557   8.300   3.286  1.00  0.00     0.248 C 
BRANCH  15  16
HETATM   16  N4  UNL     1       9.162   6.923   3.150  1.00  0.00    -0.071 N 
ATOM     17  H43 UNL     1       9.896   6.299   3.485  1.00  0.00     0.274 HD
ATOM     18  H42 UNL     1       8.427   6.688   3.817  1.00  0.00     0.274 HD
ATOM     19  H41 UNL     1       8.882   6.678   2.200  1.00  0.00     0.274 HD
ENDBRANCH  15  16
BRANCH  15  20
HETATM   20  C9  UNL     1       8.444   9.211   3.639  1.00  0.00     0.020 C 
HETATM   21  C10 UNL     1       7.754   9.886   2.489  1.00  0.00     0.007 C 
HETATM   22  C11 UNL     1       6.246   9.994   2.740  1.00  0.00     0.000 C 
HETATM   23  C12 UNL     1       6.132  10.659   4.103  1.00  0.00     0.000 C 
HETATM   24  C13 UNL     1       6.423   9.562   5.119  1.00  0.00     0.000 C 
HETATM   25  C14 UNL     1       7.482   8.635   4.651  1.00  0.00     0.007 C 
ENDBRANCH  15  20
ENDBRANCH   1  15
TORSDOF 7
ENDMDL
MODEL 5
REMARK VINA RESULT: -6.994290141      2.578      3.752
REMARK  7 active torsions:
REMARK  status: ('A' for Active; 'I' for Inactive)
REMARK       I    between atoms: N1_4  and  C4_5 
REMARK    1  A    between atoms: C4_5  and  C5_7 
REMARK    2  A    between atoms: C5_7  and  N2_8 
REMARK    3  A    between atoms: N2_8  and  C7_10 
REMARK    4  A    between atoms: C7_10  and  N3_11 
REMARK    5  A    between atoms: C7_10  and  C8_15 
REMARK    6  A    between atoms: C8_15  and  N4_16 
REMARK    7  A    between atoms: C8_15  and  C9_20 
ROOT
HETATM    1  C7  UNL     1      10.998   8.729   3.045  1.00  0.00     0.447 C 
ENDROOT
BRANCH   1   2
HETATM    2  N2  UNL     1      12.075   9.501   3.596  1.00  0.00     0.126 N 
HETATM    3  C6  UNL     1      12.176  10.851   3.120  1.00  0.00     0.313 C 
BRANCH   2   4
HETATM    4  C5  UNL     1      12.188   9.462   5.003  1.00  0.00     0.377 C 
BRANCH   4   5
HETATM    5  C4  UNL     1      13.551   9.335   5.551  1.00  0.00     0.248 C 
HETATM    6  N1  UNL     1      14.437   8.320   5.082  1.00  0.00    -0.343 N 
HETATM    7  C2  UNL     1      15.669   7.596   5.035  1.00  0.00     0.101 A 
HETATM    8  C3  UNL     1      14.583   7.164   4.138  1.00  0.00     0.151 A 
HETATM    9  C1  UNL     1      16.844   8.346   4.417  1.00  0.00     0.034 C 
HETATM   10  O1  UNL     1      13.978  10.106   6.438  1.00  0.00    -0.271 OA
ENDBRANCH   4   5
ENDBRANCH   2   4
ENDBRANCH   1   2
BRANCH   1  11
HETATM   11  N3  UNL     1      10.561   7.713   3.940  1.00  0.00    -0.045 N 
ATOM     12  H33 UNL     1      11.259   6.974   4.031  1.00  0.00     0.277 HD
ATOM     13  H32 UNL     1      10.554   8.045   4.904  1.00  0.00     0.277 HD
ATOM     14  H31 UNL     1       9.653   7.334   3.672  1.00  0.00     0.277 HD
ENDBRANCH   1  11
BRANCH   1  15
HETATM   15  C8  UNL     1       9.857   9.611   2.617  1.00  0.00     0.248 C 
BRANCH  15  16
HETATM   16  N4  UNL     1       9.577   9.528   1.207  1.00  0.00    -0.071 N 
ATOM     17  H43 UNL     1       9.433  10.456   0.810  1.00  0.00     0.274 HD
ATOM     18  H42 UNL     1      10.409   9.251   0.687  1.00  0.00     0.274 HD
ATOM     19  H41 UNL     1       8.791   8.914   0.991  1.00  0.00     0.274 HD
ENDBRANCH  15  16
BRANCH  15  20
HETATM   20  C9  UNL     1       8.648   9.569   3.471  1.00  0.00     0.020 C 
HETATM   21  C10 UNL     1       8.708  10.369   4.739  1.00  0.00     0.007 C 
HETATM   22  C11 UNL     1       7.356  11.024   5.041  1.00  0.00     0.000 C 
HETATM   23  C12 UNL     1       6.357   9.879   4.993  1.00  0.00     0.000 C 
HETATM   24  C13 UNL     1       6.119   9.606   3.512  1.00  0.00     0.000 C 
HETATM   25  C14 UNL     1       7.356   9.761   2.711  1.00  0.00     0.007 C 
ENDBRANCH  15  20
ENDBRANCH   1  15
TORSDOF 7
ENDMDL
