MODEL 1
REMARK VINA RESULT: -7.035522371      0.000      0.000
REMARK  5 active torsions:
REMARK  status: ('A' for Active; 'I' for Inactive)
REMARK    1  A    between atoms: N1_6  and  C5_7 
REMARK    2  A    between atoms: C5_7  and  C6_8 
REMARK    3  A    between atoms: C6_8  and  C7_9 
REMARK    4  A    between atoms: C7_9  and  C8_10 
REMARK    5  A    between atoms: C8_10  and  N2_11 
ROOT
HETATM    1  N2  UNL     1       9.616   9.691   4.243  1.00  0.00     0.102 N 
HETATM    2  C9  UNL     1      10.607  10.518   3.626  1.00  0.00     0.311 C 
HETATM    3  C10 UNL     1      10.733   9.947   2.202  1.00  0.00     0.252 C 
HETATM    4  C11 UNL     1       9.320   9.766   1.729  1.00  0.00     0.094 C 
HETATM    5  N3  UNL     1       8.745   8.510   1.918  1.00  0.00    -0.378 N 
ATOM      6  H3  UNL     1       8.068   8.161   1.240  1.00  0.00     0.164 HD
HETATM    7  C12 UNL     1       9.081   7.722   3.019  1.00  0.00     0.097 C 
HETATM    8  C13 UNL     1       9.994   8.318   4.039  1.00  0.00     0.286 C 
HETATM    9  C14 UNL     1      11.409   8.147   3.561  1.00  0.00     0.274 C 
HETATM   10  N4  UNL     1      11.483   8.715   2.219  1.00  0.00    -0.062 N 
ATOM     11  H41 UNL     1      12.443   8.838   1.899  1.00  0.00     0.278 HD
ATOM     12  H42 UNL     1      11.177   8.060   1.500  1.00  0.00     0.278 HD
ENDROOT
BRANCH   1  13
HETATM   13  C8  UNL     1       9.303  10.002   5.609  1.00  0.00     0.273 C 
BRANCH  13  14
HETATM   14  C7  UNL     1       7.855   9.822   5.908  1.00  0.00     0.032 C 
BRANCH  14  15
HETATM   15  C6  UNL     1       7.041  10.397   4.782  1.00  0.00     0.022 C 
BRANCH  15  16
HETATM   16  C5  UNL     1       5.592   9.997   4.846  1.00  0.00     0.126 C 
BRANCH  16  17
HETATM   17  N1  UNL     1       5.036  10.096   3.490  1.00  0.00    -0.352 N 
HETATM   18  C1  UNL     1       3.744   9.706   3.056  1.00  0.00     0.219 C 
HETATM   19  O1  UNL     1       2.701   9.751   3.797  1.00  0.00    -0.273 OA
HETATM   20  C2  UNL     1       3.854   9.264   1.645  1.00  0.00     0.104 C 
HETATM   21  C3  UNL     1       5.158   9.839   1.177  1.00  0.00     0.029 C 
HETATM   22  C4  UNL     1       5.727  10.623   2.333  1.00  0.00     0.126 C 
ENDBRANCH  16  17
ENDBRANCH  15  16
ENDBRANCH  14  15
ENDBRANCH  13  14
ENDBRANCH   1  13
TORSDOF 5
ENDMDL
MODEL 2
REMARK VINA RESULT: -6.893349344      0.952      1.520
REMARK  5 active torsions:
REMARK  status: ('A' for Active; 'I' for Inactive)
REMARK    1  A    between atoms: N1_6  and  C5_7 
REMARK    2  A    between atoms: C5_7  and  C6_8 
REMARK    3  A    between atoms: C6_8  and  C7_9 
REMARK    4  A    between atoms: C7_9  and  C8_10 
REMARK    5  A    between atoms: C8_10  and  N2_11 
ROOT
HETATM    1  N2  UNL     1       9.603  10.106   4.010  1.00  0.00     0.102 N 
HETATM    2  C9  UNL     1      10.395   9.220   4.807  1.00  0.00     0.311 C 
HETATM    3  C10 UNL     1      11.196   8.407   3.772  1.00  0.00     0.252 C 
HETATM    4  C11 UNL     1      11.721   9.424   2.802  1.00  0.00     0.094 C 
HETATM    5  N3  UNL     1      10.958   9.662   1.659  1.00  0.00    -0.378 N 
ATOM      6  H3  UNL     1      11.425   9.905   0.786  1.00  0.00     0.164 HD
HETATM    7  C12 UNL     1       9.567   9.574   1.691  1.00  0.00     0.097 C 
HETATM    8  C13 UNL     1       8.924   9.321   3.015  1.00  0.00     0.286 C 
HETATM    9  C14 UNL     1       8.963   7.842   3.283  1.00  0.00     0.274 C 
HETATM   10  N4  UNL     1      10.353   7.417   3.150  1.00  0.00    -0.062 N 
ATOM     11  H41 UNL     1      10.512   6.480   3.519  1.00  0.00     0.278 HD
ATOM     12  H42 UNL     1      10.615   7.233   2.181  1.00  0.00     0.278 HD
ENDROOT
BRANCH   1  13
HETATM   13  C8  UNL     1       8.734  10.991   4.733  1.00  0.00     0.273 C 
BRANCH  13  14
HETATM   14  C7  UNL     1       7.786  10.253   5.614  1.00  0.00     0.032 C 
BRANCH  14  15
HETATM   15  C6  UNL     1       6.376  10.617   5.239  1.00  0.00     0.022 C 
BRANCH  15  16
HETATM   16  C5  UNL     1       5.593   9.448   4.708  1.00  0.00     0.126 C 
BRANCH  16  17
HETATM   17  N1  UNL     1       5.019   9.839   3.414  1.00  0.00    -0.352 N 
HETATM   18  C1  UNL     1       3.681   9.672   2.976  1.00  0.00     0.219 C 
HETATM   19  O1  UNL     1       2.668   9.699   3.758  1.00  0.00    -0.273 OA
HETATM   20  C2  UNL     1       3.707   9.471   1.508  1.00  0.00     0.104 C 
HETATM   21  C3  UNL     1       5.056   9.975   1.088  1.00  0.00     0.029 C 
HETATM   22  C4  UNL     1       5.738  10.481   2.334  1.00  0.00     0.126 C 
ENDBRANCH  16  17
ENDBRANCH  15  16
ENDBRANCH  14  15
ENDBRANCH  13  14
ENDBRANCH   1  13
TORSDOF 5
ENDMDL
MODEL 3
REMARK VINA RESULT: -6.847674546      2.381      3.672
REMARK  5 active torsions:
REMARK  status: ('A' for Active; 'I' for Inactive)
REMARK    1  A    between atoms: N1_6  and  C5_7 
REMARK    2  A    between atoms: C5_7  and  C6_8 
REMARK    3  A    between atoms: C6_8  and  C7_9 
REMARK    4  A    between atoms: C7_9  and  C8_10 
REMARK    5  A    between atoms: C8_10  and  N2_11 
ROOT
HETATM    1  N2  UNL     1      11.931   8.591   2.986  1.00  0.00     0.102 N 
HETATM    2  C9  UNL     1      12.717   9.636   2.404  1.00  0.00     0.311 C 
HETATM    3  C10 UNL     1      14.149   9.071   2.412  1.00  0.00     0.252 C 
HETATM    4  C11 UNL     1      14.019   7.672   1.884  1.00  0.00     0.094 C 
HETATM    5  N3  UNL     1      13.874   6.652   2.824  1.00  0.00    -0.378 N 
ATOM      6  H3  UNL     1      14.266   5.731   2.628  1.00  0.00     0.164 HD
HETATM    7  C12 UNL     1      13.203   6.870   4.027  1.00  0.00     0.097 C 
HETATM    8  C13 UNL     1      12.555   8.201   4.222  1.00  0.00     0.286 C 
HETATM    9  C14 UNL     1      13.601   9.168   4.700  1.00  0.00     0.274 C 
HETATM   10  N4  UNL     1      14.702   9.122   3.743  1.00  0.00    -0.062 N 
ATOM     11  H41 UNL     1      15.359   9.892   3.864  1.00  0.00     0.278 HD
ATOM     12  H42 UNL     1      15.349   8.355   3.928  1.00  0.00     0.278 HD
ENDROOT
BRANCH   1  13
HETATM   13  C8  UNL     1      10.527   8.859   3.112  1.00  0.00     0.273 C 
BRANCH  13  14
HETATM   14  C7  UNL     1       9.790   7.721   3.730  1.00  0.00     0.032 C 
BRANCH  14  15
HETATM   15  C6  UNL     1       8.335   7.814   3.361  1.00  0.00     0.022 C 
BRANCH  15  16
HETATM   16  C5  UNL     1       8.013   9.047   2.562  1.00  0.00     0.126 C 
BRANCH  16  17
HETATM   17  N1  UNL     1       7.022   9.827   3.315  1.00  0.00    -0.352 N 
HETATM   18  C1  UNL     1       7.206  10.489   4.555  1.00  0.00     0.219 C 
HETATM   19  O1  UNL     1       8.318  10.999   4.932  1.00  0.00    -0.273 OA
HETATM   20  C2  UNL     1       5.911  10.465   5.277  1.00  0.00     0.104 C 
HETATM   21  C3  UNL     1       4.898  10.163   4.212  1.00  0.00     0.029 C 
HETATM   22  C4  UNL     1       5.653  10.062   2.911  1.00  0.00     0.126 C 
ENDBRANCH  16  17
ENDBRANCH  15  16
ENDBRANCH  14  15
ENDBRANCH  13  14
ENDBRANCH   1  13
TORSDOF 5
ENDMDL
MODEL 4
REMARK VINA RESULT: -6.711505069      1.264      2.716
REMARK  5 active torsions:
REMARK  status: ('A' for Active; 'I' for Inactive)
REMARK    1  A    between atoms: N1_6  and  C5_7 
REMARK    2  A    between atoms: C5_7  and  C6_8 
REMARK    3  A    between atoms: C6_8  and  C7_9 
REMARK    4  A    between atoms: C7_9  and  C8_10 
REMARK    5  A    between atoms: C8_10  and  N2_11 
ROOT
HETATM    1  N2  UNL     1       9.800   9.720   2.688  1.00  0.00     0.102 N 
HETATM    2  C9  UNL     1      10.914  10.517   3.100  1.00  0.00     0.311 C 
HETATM    3  C10 UNL     1      11.821   9.528   3.855  1.00  0.00     0.252 C 
HETATM    4  C11 UNL     1      11.887   8.313   2.976  1.00  0.00     0.094 C 
HETATM    5  N3  UNL     1      10.973   7.293   3.236  1.00  0.00    -0.378 N 
ATOM      6  H3  UNL     1      11.243   6.324   3.071  1.00  0.00     0.164 HD
HETATM    7  C12 UNL     1       9.695   7.576   3.717  1.00  0.00     0.097 C 
HETATM    8  C13 UNL     1       9.309   9.014   3.841  1.00  0.00     0.286 C 
HETATM    9  C14 UNL     1       9.850   9.536   5.143  1.00  0.00     0.274 C 
HETATM   10  N4  UNL     1      11.280   9.249   5.162  1.00  0.00    -0.062 N 
ATOM     11  H41 UNL     1      11.770   9.750   5.903  1.00  0.00     0.278 HD
ATOM     12  H42 UNL     1      11.485   8.300   5.476  1.00  0.00     0.278 HD
ENDROOT
BRANCH   1  13
HETATM   13  C8  UNL     1       8.774  10.406   1.956  1.00  0.00     0.273 C 
BRANCH  13  14
HETATM   14  C7  UNL     1       8.157   9.544   0.910  1.00  0.00     0.032 C 
BRANCH  14  15
HETATM   15  C6  UNL     1       6.661   9.572   1.063  1.00  0.00     0.022 C 
BRANCH  15  16
HETATM   16  C5  UNL     1       6.183  10.723   1.904  1.00  0.00     0.126 C 
BRANCH  16  17
HETATM   17  N1  UNL     1       5.397  10.173   3.017  1.00  0.00    -0.352 N 
HETATM   18  C1  UNL     1       4.042   9.757   2.994  1.00  0.00     0.219 C 
HETATM   19  O1  UNL     1       3.468   9.257   1.965  1.00  0.00    -0.273 OA
HETATM   20  C2  UNL     1       3.469  10.008   4.338  1.00  0.00     0.104 C 
HETATM   21  C3  UNL     1       4.666  10.162   5.229  1.00  0.00     0.029 C 
HETATM   22  C4  UNL     1       5.882   9.955   4.363  1.00  0.00     0.126 C 
ENDBRANCH  16  17
ENDBRANCH  15  16
ENDBRANCH  14  15
ENDBRANCH  13  14
ENDBRANCH   1  13
TORSDOF 5
ENDMDL
MODEL 5
REMARK VINA RESULT: -6.692202440      6.354      9.172
REMARK  5 active torsions:
REMARK  status: ('A' for Active; 'I' for Inactive)
REMARK    1  A    between atoms: N1_6  and  C5_7 
REMARK    2  A    between atoms: C5_7  and  C6_8 
REMARK    3  A    between atoms: C6_8  and  C7_9 
REMARK    4  A    between atoms: C7_9  and  C8_10 
REMARK    5  A    between atoms: C8_10  and  N2_11 
ROOT
HETATM    1  N2  UNL     1      14.492   7.407   2.556  1.00  0.00     0.102 N 
HETATM    2  C9  UNL     1      15.341   8.262   3.328  1.00  0.00     0.311 C 
HETATM    3  C10 UNL     1      14.510   8.571   4.587  1.00  0.00     0.252 C 
HETATM    4  C11 UNL     1      13.964   7.245   5.028  1.00  0.00     0.094 C 
HETATM    5  N3  UNL     1      12.692   6.901   4.572  1.00  0.00    -0.378 N 
ATOM      6  H3  UNL     1      12.082   6.340   5.166  1.00  0.00     0.164 HD
HETATM    7  C12 UNL     1      12.240   7.313   3.319  1.00  0.00     0.097 C 
HETATM    8  C13 UNL     1      13.206   8.041   2.444  1.00  0.00     0.286 C 
HETATM    9  C14 UNL     1      13.211   9.489   2.851  1.00  0.00     0.274 C 
HETATM   10  N4  UNL     1      13.480   9.533   4.284  1.00  0.00    -0.062 N 
ATOM     11  H41 UNL     1      13.712  10.471   4.610  1.00  0.00     0.278 HD
ATOM     12  H42 UNL     1      12.638   9.395   4.844  1.00  0.00     0.278 HD
ENDROOT
BRANCH   1  13
HETATM   13  C8  UNL     1      15.025   6.964   1.299  1.00  0.00     0.273 C 
BRANCH  13  14
HETATM   14  C7  UNL     1      16.214   7.757   0.882  1.00  0.00     0.032 C 
BRANCH  14  15
HETATM   15  C6  UNL     1      16.482   7.518  -0.579  1.00  0.00     0.022 C 
BRANCH  15  16
HETATM   16  C5  UNL     1      15.222   7.402  -1.392  1.00  0.00     0.126 C 
BRANCH  16  17
HETATM   17  N1  UNL     1      15.410   8.170  -2.629  1.00  0.00    -0.352 N 
HETATM   18  C1  UNL     1      14.732   7.999  -3.863  1.00  0.00     0.219 C 
HETATM   19  O1  UNL     1      13.522   7.592  -3.960  1.00  0.00    -0.273 OA
HETATM   20  C2  UNL     1      15.669   8.372  -4.950  1.00  0.00     0.104 C 
HETATM   21  C3  UNL     1      16.733   9.175  -4.263  1.00  0.00     0.029 C 
HETATM   22  C4  UNL     1      16.342   9.262  -2.809  1.00  0.00     0.126 C 
ENDBRANCH  16  17
ENDBRANCH  15  16
ENDBRANCH  14  15
ENDBRANCH  13  14
ENDBRANCH   1  13
TORSDOF 5
ENDMDL
