MODEL 1
REMARK VINA RESULT: -6.963368303      0.000      0.000
REMARK  7 active torsions:
REMARK  status: ('A' for Active; 'I' for Inactive)
REMARK    1  A    between atoms: C1_2  and  C2_4 
REMARK    2  A    between atoms: C2_4  and  C3_5 
REMARK    3  A    between atoms: C3_5  and  N2_6 
REMARK    4  A    between atoms: C3_5  and  C8_13 
REMARK       I    between atoms: N2_6  and  C4_8 
REMARK    5  A    between atoms: C4_8  and  C5_10 
REMARK    6  A    between atoms: C8_13  and  O3_14 
REMARK    7  A    between atoms: C8_13  and  N3_16 
ROOT
HETATM    1  C3  UNL     1      15.111   8.174   0.299  1.00  0.00     0.071 C 
ENDROOT
BRANCH   1   2
HETATM    2  C2  UNL     1      16.302   9.053   0.347  1.00  0.00     0.161 C 
BRANCH   2   3
HETATM    3  C1  UNL     1      17.575   8.326   0.317  1.00  0.00     0.236 C 
HETATM    4  N1  UNL     1      18.796   8.814  -0.128  1.00  0.00    -0.062 NA
HETATM    5  O1  UNL     1      17.583   7.115   0.748  1.00  0.00    -0.277 OA
ENDBRANCH   2   3
ENDBRANCH   1   2
BRANCH   1   6
HETATM    6  N2  UNL     1      14.871   7.308   1.420  1.00  0.00    -0.326 N 
HETATM    7  C4  UNL     1      14.100   7.759   2.554  1.00  0.00     0.226 C 
HETATM    8  O2  UNL     1      13.649   8.943   2.563  1.00  0.00    -0.273 OA
ATOM      9  H2  UNL     1      15.251   6.361   1.415  1.00  0.00     0.168 HD
BRANCH   7  10
HETATM   10  C5  UNL     1      13.809   6.927   3.704  1.00  0.00     0.078 A 
HETATM   11  C6  UNL     1      13.683   7.331   5.109  1.00  0.00     0.015 A 
HETATM   12  C7  UNL     1      15.049   6.872   4.676  1.00  0.00     0.015 A 
ENDBRANCH   7  10
ENDBRANCH   1   6
BRANCH   1  13
HETATM   13  C8  UNL     1      14.792   7.530  -0.991  1.00  0.00     0.161 C 
BRANCH  13  14
HETATM   14  O3  UNL     1      14.296   6.326  -0.968  1.00  0.00    -0.345 OA
ATOM     15  H3  UNL     1      14.899   5.593  -1.023  1.00  0.00     0.219 HD
ENDBRANCH  13  14
BRANCH  13  16
HETATM   16  N3  UNL     1      14.945   8.013  -2.288  1.00  0.00    -0.360 N 
HETATM   17  C9  UNL     1      15.994   7.597  -3.193  1.00  0.00     0.125 C 
HETATM   18  C10 UNL     1      15.526   7.906  -4.630  1.00  0.00     0.020 C 
HETATM   19  C11 UNL     1      15.555   9.394  -4.841  1.00  0.00     0.003 C 
HETATM   20  C12 UNL     1      15.320  10.057  -3.494  1.00  0.00     0.020 C 
HETATM   21  C13 UNL     1      14.234   9.219  -2.745  1.00  0.00     0.125 C 
ENDBRANCH  13  16
ENDBRANCH   1  13
TORSDOF 7
ENDMDL
MODEL 2
REMARK VINA RESULT: -6.781961474      6.583      9.039
REMARK  7 active torsions:
REMARK  status: ('A' for Active; 'I' for Inactive)
REMARK    1  A    between atoms: C1_2  and  C2_4 
REMARK    2  A    between atoms: C2_4  and  C3_5 
REMARK    3  A    between atoms: C3_5  and  N2_6 
REMARK    4  A    between atoms: C3_5  and  C8_13 
REMARK       I    between atoms: N2_6  and  C4_8 
REMARK    5  A    between atoms: C4_8  and  C5_10 
REMARK    6  A    between atoms: C8_13  and  O3_14 
REMARK    7  A    between atoms: C8_13  and  N3_16 
ROOT
HETATM    1  C3  UNL     1       8.558   9.575   1.769  1.00  0.00     0.071 C 
ENDROOT
BRANCH   1   2
HETATM    2  C2  UNL     1       8.030   9.826   0.408  1.00  0.00     0.161 C 
BRANCH   2   3
HETATM    3  C1  UNL     1       9.058  10.216  -0.562  1.00  0.00     0.236 C 
HETATM    4  N1  UNL     1      10.195  10.969  -0.304  1.00  0.00    -0.062 NA
HETATM    5  O1  UNL     1       8.912   9.826  -1.777  1.00  0.00    -0.277 OA
ENDBRANCH   2   3
ENDBRANCH   1   2
BRANCH   1   6
HETATM    6  N2  UNL     1       9.903   9.084   1.887  1.00  0.00    -0.326 N 
HETATM    7  C4  UNL     1      10.835   9.688   2.810  1.00  0.00     0.226 C 
HETATM    8  O2  UNL     1      10.460  10.676   3.509  1.00  0.00    -0.273 OA
ATOM      9  H2  UNL     1      10.204   8.299   1.310  1.00  0.00     0.168 HD
BRANCH   7  10
HETATM   10  C5  UNL     1      12.196   9.225   2.987  1.00  0.00     0.078 A 
HETATM   11  C6  UNL     1      12.780   7.944   2.573  1.00  0.00     0.015 A 
HETATM   12  C7  UNL     1      12.239   7.997   3.977  1.00  0.00     0.015 A 
ENDBRANCH   7  10
ENDBRANCH   1   6
BRANCH   1  13
HETATM   13  C8  UNL     1       7.643   8.957   2.750  1.00  0.00     0.161 C 
BRANCH  13  14
HETATM   14  O3  UNL     1       7.762   7.680   2.978  1.00  0.00    -0.345 OA
ATOM     15  H3  UNL     1       7.037   7.115   2.740  1.00  0.00     0.219 HD
ENDBRANCH  13  14
BRANCH  13  16
HETATM   16  N3  UNL     1       6.624   9.536   3.502  1.00  0.00    -0.360 N 
HETATM   17  C9  UNL     1       6.429   9.309   4.918  1.00  0.00     0.125 C 
HETATM   18  C10 UNL     1       5.603  10.487   5.474  1.00  0.00     0.020 C 
HETATM   19  C11 UNL     1       4.190  10.367   4.978  1.00  0.00     0.003 C 
HETATM   20  C12 UNL     1       4.228   9.650   3.638  1.00  0.00     0.020 C 
HETATM   21  C13 UNL     1       5.471  10.188   2.859  1.00  0.00     0.125 C 
ENDBRANCH  13  16
ENDBRANCH   1  13
TORSDOF 7
ENDMDL
MODEL 3
REMARK VINA RESULT: -6.753797362      4.704      7.553
REMARK  7 active torsions:
REMARK  status: ('A' for Active; 'I' for Inactive)
REMARK    1  A    between atoms: C1_2  and  C2_4 
REMARK    2  A    between atoms: C2_4  and  C3_5 
REMARK    3  A    between atoms: C3_5  and  N2_6 
REMARK    4  A    between atoms: C3_5  and  C8_13 
REMARK       I    between atoms: N2_6  and  C4_8 
REMARK    5  A    between atoms: C4_8  and  C5_10 
REMARK    6  A    between atoms: C8_13  and  O3_14 
REMARK    7  A    between atoms: C8_13  and  N3_16 
ROOT
HETATM    1  C3  UNL     1      10.925   8.833   2.944  1.00  0.00     0.071 C 
ENDROOT
BRANCH   1   2
HETATM    2  C2  UNL     1      10.892  10.076   2.140  1.00  0.00     0.161 C 
BRANCH   2   3
HETATM    3  C1  UNL     1      12.151  10.827   2.159  1.00  0.00     0.236 C 
HETATM    4  N1  UNL     1      13.328  10.484   1.509  1.00  0.00    -0.062 NA
HETATM    5  O1  UNL     1      12.186  11.920   2.835  1.00  0.00    -0.277 OA
ENDBRANCH   2   3
ENDBRANCH   1   2
BRANCH   1   6
HETATM    6  N2  UNL     1      11.947   7.868   2.643  1.00  0.00    -0.326 N 
HETATM    7  C4  UNL     1      13.003   7.587   3.586  1.00  0.00     0.226 C 
HETATM    8  O2  UNL     1      13.035   8.218   4.684  1.00  0.00    -0.273 OA
ATOM      9  H2  UNL     1      11.925   7.374   1.750  1.00  0.00     0.168 HD
BRANCH   7  10
HETATM   10  C5  UNL     1      14.048   6.612   3.347  1.00  0.00     0.078 A 
HETATM   11  C6  UNL     1      15.446   6.653   3.791  1.00  0.00     0.015 A 
HETATM   12  C7  UNL     1      15.173   7.221   2.424  1.00  0.00     0.015 A 
ENDBRANCH   7  10
ENDBRANCH   1   6
BRANCH   1  13
HETATM   13  C8  UNL     1       9.632   8.202   3.277  1.00  0.00     0.161 C 
BRANCH  13  14
HETATM   14  O3  UNL     1       9.494   6.929   3.042  1.00  0.00    -0.345 OA
ATOM     15  H3  UNL     1       9.607   6.326   3.767  1.00  0.00     0.219 HD
ENDBRANCH  13  14
BRANCH  13  16
HETATM   16  N3  UNL     1       8.481   8.768   3.819  1.00  0.00    -0.360 N 
HETATM   17  C9  UNL     1       7.613   9.682   3.111  1.00  0.00     0.125 C 
HETATM   18  C10 UNL     1       6.231   9.646   3.797  1.00  0.00     0.020 C 
HETATM   19  C11 UNL     1       6.332  10.336   5.128  1.00  0.00     0.003 C 
HETATM   20  C12 UNL     1       7.758  10.175   5.627  1.00  0.00     0.020 C 
HETATM   21  C13 UNL     1       8.215   8.725   5.267  1.00  0.00     0.125 C 
ENDBRANCH  13  16
ENDBRANCH   1  13
TORSDOF 7
ENDMDL
MODEL 4
REMARK VINA RESULT: -6.743624189      1.879      2.143
REMARK  7 active torsions:
REMARK  status: ('A' for Active; 'I' for Inactive)
REMARK    1  A    between atoms: C1_2  and  C2_4 
REMARK    2  A    between atoms: C2_4  and  C3_5 
REMARK    3  A    between atoms: C3_5  and  N2_6 
REMARK    4  A    between atoms: C3_5  and  C8_13 
REMARK       I    between atoms: N2_6  and  C4_8 
REMARK    5  A    between atoms: C4_8  and  C5_10 
REMARK    6  A    between atoms: C8_13  and  O3_14 
REMARK    7  A    between atoms: C8_13  and  N3_16 
ROOT
HETATM    1  C3  UNL     1      15.380   8.029   0.504  1.00  0.00     0.071 C 
ENDROOT
BRANCH   1   2
HETATM    2  C2  UNL     1      16.677   7.618   1.089  1.00  0.00     0.161 C 
BRANCH   2   3
HETATM    3  C1  UNL     1      16.601   7.271   2.511  1.00  0.00     0.236 C 
HETATM    4  N1  UNL     1      17.280   7.891   3.551  1.00  0.00    -0.062 NA
HETATM    5  O1  UNL     1      15.828   6.302   2.850  1.00  0.00    -0.277 OA
ENDBRANCH   2   3
ENDBRANCH   1   2
BRANCH   1   6
HETATM    6  N2  UNL     1      14.237   8.079   1.375  1.00  0.00    -0.326 N 
HETATM    7  C4  UNL     1      13.621   9.338   1.718  1.00  0.00     0.226 C 
HETATM    8  O2  UNL     1      14.110  10.412   1.258  1.00  0.00    -0.273 OA
ATOM      9  H2  UNL     1      13.858   7.212   1.756  1.00  0.00     0.168 HD
BRANCH   7  10
HETATM   10  C5  UNL     1      12.457   9.450   2.573  1.00  0.00     0.078 A 
HETATM   11  C6  UNL     1      12.072  10.570   3.440  1.00  0.00     0.015 A 
HETATM   12  C7  UNL     1      12.886   9.484   4.091  1.00  0.00     0.015 A 
ENDBRANCH   7  10
ENDBRANCH   1   6
BRANCH   1  13
HETATM   13  C8  UNL     1      15.045   7.514  -0.839  1.00  0.00     0.161 C 
BRANCH  13  14
HETATM   14  O3  UNL     1      14.362   6.408  -0.917  1.00  0.00    -0.345 OA
ATOM     15  H3  UNL     1      14.033   6.146  -1.769  1.00  0.00     0.219 HD
ENDBRANCH  13  14
BRANCH  13  16
HETATM   16  N3  UNL     1      15.357   8.033  -2.093  1.00  0.00    -0.360 N 
HETATM   17  C9  UNL     1      15.699   7.227  -3.244  1.00  0.00     0.125 C 
HETATM   18  C10 UNL     1      15.439   8.075  -4.507  1.00  0.00     0.020 C 
HETATM   19  C11 UNL     1      16.488   9.146  -4.597  1.00  0.00     0.003 C 
HETATM   20  C12 UNL     1      16.937   9.477  -3.183  1.00  0.00     0.020 C 
HETATM   21  C13 UNL     1      15.664   9.461  -2.277  1.00  0.00     0.125 C 
ENDBRANCH  13  16
ENDBRANCH   1  13
TORSDOF 7
ENDMDL
MODEL 5
REMARK VINA RESULT: -6.729544381      5.131      7.627
REMARK  7 active torsions:
REMARK  status: ('A' for Active; 'I' for Inactive)
REMARK    1  A    between atoms: C1_2  and  C2_4 
REMARK    2  A    between atoms: C2_4  and  C3_5 
REMARK    3  A    between atoms: C3_5  and  N2_6 
REMARK    4  A    between atoms: C3_5  and  C8_13 
REMARK       I    between atoms: N2_6  and  C4_8 
REMARK    5  A    between atoms: C4_8  and  C5_10 
REMARK    6  A    between atoms: C8_13  and  O3_14 
REMARK    7  A    between atoms: C8_13  and  N3_16 
ROOT
HETATM    1  C3  UNL     1      10.625   9.191   2.793  1.00  0.00     0.071 C 
ENDROOT
BRANCH   1   2
HETATM    2  C2  UNL     1      10.805  10.333   1.867  1.00  0.00     0.161 C 
BRANCH   2   3
HETATM    3  C1  UNL     1      12.100  11.005   2.001  1.00  0.00     0.236 C 
HETATM    4  N1  UNL     1      13.296  10.624   1.408  1.00  0.00    -0.062 NA
HETATM    5  O1  UNL     1      12.153  12.061   2.733  1.00  0.00    -0.277 OA
ENDBRANCH   2   3
ENDBRANCH   1   2
BRANCH   1   6
HETATM    6  N2  UNL     1      11.598   8.134   2.750  1.00  0.00    -0.326 N 
HETATM    7  C4  UNL     1      12.576   7.983   3.801  1.00  0.00     0.226 C 
HETATM    8  O2  UNL     1      12.585   8.810   4.761  1.00  0.00    -0.273 OA
ATOM      9  H2  UNL     1      11.596   7.481   1.966  1.00  0.00     0.168 HD
BRANCH   7  10
HETATM   10  C5  UNL     1      13.568   6.927   3.823  1.00  0.00     0.078 A 
HETATM   11  C6  UNL     1      14.901   6.946   4.435  1.00  0.00     0.015 A 
HETATM   12  C7  UNL     1      14.838   7.342   2.985  1.00  0.00     0.015 A 
ENDBRANCH   7  10
ENDBRANCH   1   6
BRANCH   1  13
HETATM   13  C8  UNL     1       9.252   8.688   2.995  1.00  0.00     0.161 C 
BRANCH  13  14
HETATM   14  O3  UNL     1       9.006   7.444   2.701  1.00  0.00    -0.345 OA
ATOM     15  H3  UNL     1       8.139   7.103   2.888  1.00  0.00     0.219 HD
ENDBRANCH  13  14
BRANCH  13  16
HETATM   16  N3  UNL     1       8.122   9.353   3.465  1.00  0.00    -0.360 N 
HETATM   17  C9  UNL     1       7.445   9.032   4.702  1.00  0.00     0.125 C 
HETATM   18  C10 UNL     1       6.634  10.273   5.130  1.00  0.00     0.020 C 
HETATM   19  C11 UNL     1       5.460  10.429   4.206  1.00  0.00     0.003 C 
HETATM   20  C12 UNL     1       5.849   9.841   2.859  1.00  0.00     0.020 C 
HETATM   21  C13 UNL     1       7.335  10.239   2.590  1.00  0.00     0.125 C 
ENDBRANCH  13  16
ENDBRANCH   1  13
TORSDOF 7
ENDMDL
