MODEL 1
REMARK VINA RESULT: -6.870513554      0.000      0.000
REMARK  7 active torsions:
REMARK  status: ('A' for Active; 'I' for Inactive)
REMARK    1  A    between atoms: N1_4  and  C4_6 
REMARK    2  A    between atoms: C4_6  and  C5_7 
REMARK    3  A    between atoms: C4_6  and  C8_10 
REMARK    4  A    between atoms: C5_7  and  C6_8 
REMARK    5  A    between atoms: C8_10  and  C9_11 
REMARK    6  A    between atoms: C9_11  and  O1_12 
REMARK    7  A    between atoms: C9_11  and  C10_14 
REMARK       I    between atoms: C10_14  and  N2_16 
ROOT
HETATM    1  C1  UNL     1       8.381   9.947  -0.935  1.00  0.00     0.018 C 
HETATM    2  C2  UNL     1       7.887   9.801   0.151  1.00  0.00    -0.073 C 
HETATM    3  C3  UNL     1       7.287   9.641   1.468  1.00  0.00     0.148 C 
HETATM    4  N1  UNL     1       7.731  10.356   2.415  1.00  0.00    -0.387 N 
ATOM      5  H1  UNL     1       8.487  11.014   2.223  1.00  0.00     0.159 HD
ENDROOT
BRANCH   4   6
HETATM    6  C4  UNL     1       7.204  10.273   3.754  1.00  0.00     0.087 C 
BRANCH   6   7
HETATM    7  C5  UNL     1       5.738   9.959   3.709  1.00  0.00     0.051 C 
BRANCH   7   8
HETATM    8  C6  UNL     1       5.056  10.292   4.980  1.00  0.00    -0.035 C 
HETATM    9  C7  UNL     1       3.808   9.875   5.195  1.00  0.00     0.007 C 
ENDBRANCH   7   8
ENDBRANCH   6   7
BRANCH   6  10
HETATM   10  C8  UNL     1       7.903   9.257   4.603  1.00  0.00     0.066 C 
BRANCH  10  11
HETATM   11  C9  UNL     1       9.358   9.657   4.912  1.00  0.00     0.212 C 
BRANCH  11  12
HETATM   12  O1  UNL     1       9.451  11.016   4.698  1.00  0.00    -0.386 OA
ATOM     13  H1  UNL     1      10.126  11.340   5.282  1.00  0.00     0.210 HD
ENDBRANCH  11  12
BRANCH  11  14
HETATM   14  C10 UNL     1      10.259   8.810   4.121  1.00  0.00     0.248 C 
HETATM   15  O2  UNL     1       9.647   7.856   3.491  1.00  0.00    -0.270 OA
HETATM   16  N2  UNL     1      11.632   8.862   3.945  1.00  0.00    -0.347 N 
HETATM   17  C11 UNL     1      12.293   7.857   3.057  1.00  0.00     0.153 C 
HETATM   18  C14 UNL     1      12.598   9.766   4.515  1.00  0.00     0.153 C 
HETATM   19  C12 UNL     1      13.178   7.055   3.988  1.00  0.00     0.252 C 
HETATM   20  N3  UNL     1      14.077   7.899   4.708  1.00  0.00    -0.072 N 
HETATM   21  C13 UNL     1      13.440   8.935   5.466  1.00  0.00     0.252 C 
ATOM     22  H32 UNL     1      14.683   7.341   5.310  1.00  0.00     0.277 HD
ATOM     23  H31 UNL     1      14.774   8.296   4.078  1.00  0.00     0.277 HD
ENDBRANCH  11  14
ENDBRANCH  10  11
ENDBRANCH   6  10
ENDBRANCH   4   6
TORSDOF 7
ENDMDL
MODEL 2
REMARK VINA RESULT: -6.852961683      6.176      8.537
REMARK  7 active torsions:
REMARK  status: ('A' for Active; 'I' for Inactive)
REMARK    1  A    between atoms: N1_4  and  C4_6 
REMARK    2  A    between atoms: C4_6  and  C5_7 
REMARK    3  A    between atoms: C4_6  and  C8_10 
REMARK    4  A    between atoms: C5_7  and  C6_8 
REMARK    5  A    between atoms: C8_10  and  C9_11 
REMARK    6  A    between atoms: C9_11  and  O1_12 
REMARK    7  A    between atoms: C9_11  and  C10_14 
REMARK       I    between atoms: C10_14  and  N2_16 
ROOT
HETATM    1  C1  UNL     1      14.101  12.927  -1.388  1.00  0.00     0.018 C 
HETATM    2  C2  UNL     1      14.484  11.818  -1.648  1.00  0.00    -0.073 C 
HETATM    3  C3  UNL     1      14.937  10.473  -1.974  1.00  0.00     0.148 C 
HETATM    4  N1  UNL     1      14.061   9.564  -2.099  1.00  0.00    -0.387 N 
ATOM      5  H1  UNL     1      13.079   9.806  -1.968  1.00  0.00     0.159 HD
ENDROOT
BRANCH   4   6
HETATM    6  C4  UNL     1      14.407   8.203  -2.420  1.00  0.00     0.087 C 
BRANCH   6   7
HETATM    7  C5  UNL     1      14.361   8.000  -3.906  1.00  0.00     0.051 C 
BRANCH   7   8
HETATM    8  C6  UNL     1      15.706   8.076  -4.521  1.00  0.00    -0.035 C 
HETATM    9  C7  UNL     1      16.002   9.077  -5.351  1.00  0.00     0.007 C 
ENDBRANCH   7   8
ENDBRANCH   6   7
BRANCH   6  10
HETATM   10  C8  UNL     1      15.752   7.796  -1.905  1.00  0.00     0.066 C 
BRANCH  10  11
HETATM   11  C9  UNL     1      15.651   6.823  -0.715  1.00  0.00     0.212 C 
BRANCH  11  12
HETATM   12  O1  UNL     1      14.319   6.497  -0.580  1.00  0.00    -0.386 OA
ATOM     13  H1  UNL     1      14.051   6.097  -1.398  1.00  0.00     0.210 HD
ENDBRANCH  11  12
BRANCH  11  14
HETATM   14  C10 UNL     1      16.293   7.437   0.454  1.00  0.00     0.248 C 
HETATM   15  O2  UNL     1      17.477   6.965   0.696  1.00  0.00    -0.270 OA
HETATM   16  N2  UNL     1      15.848   8.418   1.324  1.00  0.00    -0.347 N 
HETATM   17  C11 UNL     1      16.737   8.864   2.440  1.00  0.00     0.153 C 
HETATM   18  C14 UNL     1      14.590   9.120   1.350  1.00  0.00     0.153 C 
HETATM   19  C12 UNL     1      16.004   8.445   3.696  1.00  0.00     0.252 C 
HETATM   20  N3  UNL     1      14.683   8.984   3.734  1.00  0.00    -0.072 N 
HETATM   21  C13 UNL     1      13.872   8.649   2.601  1.00  0.00     0.252 C 
ATOM     22  H32 UNL     1      14.214   8.715   4.599  1.00  0.00     0.277 HD
ATOM     23  H31 UNL     1      14.715   9.995   3.861  1.00  0.00     0.277 HD
ENDBRANCH  11  14
ENDBRANCH  10  11
ENDBRANCH   6  10
ENDBRANCH   4   6
TORSDOF 7
ENDMDL
MODEL 3
REMARK VINA RESULT: -6.658760630      5.912      8.108
REMARK  7 active torsions:
REMARK  status: ('A' for Active; 'I' for Inactive)
REMARK    1  A    between atoms: N1_4  and  C4_6 
REMARK    2  A    between atoms: C4_6  and  C5_7 
REMARK    3  A    between atoms: C4_6  and  C8_10 
REMARK    4  A    between atoms: C5_7  and  C6_8 
REMARK    5  A    between atoms: C8_10  and  C9_11 
REMARK    6  A    between atoms: C9_11  and  O1_12 
REMARK    7  A    between atoms: C9_11  and  C10_14 
REMARK       I    between atoms: C10_14  and  N2_16 
ROOT
HETATM    1  C1  UNL     1      13.017  12.466  -0.110  1.00  0.00     0.018 C 
HETATM    2  C2  UNL     1      13.695  11.552  -0.496  1.00  0.00    -0.073 C 
HETATM    3  C3  UNL     1      14.509  10.445  -0.980  1.00  0.00     0.148 C 
HETATM    4  N1  UNL     1      13.952   9.569  -1.706  1.00  0.00    -0.387 N 
ATOM      5  H1  UNL     1      12.961   9.669  -1.926  1.00  0.00     0.159 HD
ENDROOT
BRANCH   4   6
HETATM    6  C4  UNL     1      14.671   8.437  -2.233  1.00  0.00     0.087 C 
BRANCH   6   7
HETATM    7  C5  UNL     1      15.056   8.695  -3.660  1.00  0.00     0.051 C 
BRANCH   7   8
HETATM    8  C6  UNL     1      15.099   7.449  -4.460  1.00  0.00    -0.035 C 
HETATM    9  C7  UNL     1      14.139   6.534  -4.319  1.00  0.00     0.007 C 
ENDBRANCH   7   8
ENDBRANCH   6   7
BRANCH   6  10
HETATM   10  C8  UNL     1      15.895   8.093  -1.444  1.00  0.00     0.066 C 
BRANCH  10  11
HETATM   11  C9  UNL     1      15.672   6.880  -0.521  1.00  0.00     0.212 C 
BRANCH  11  12
HETATM   12  O1  UNL     1      14.357   6.497  -0.678  1.00  0.00    -0.386 OA
ATOM     13  H1  UNL     1      14.366   5.676  -1.155  1.00  0.00     0.210 HD
ENDBRANCH  11  12
BRANCH  11  14
HETATM   14  C10 UNL     1      16.090   7.238   0.840  1.00  0.00     0.248 C 
HETATM   15  O2  UNL     1      17.317   6.910   1.103  1.00  0.00    -0.270 OA
HETATM   16  N2  UNL     1      15.398   7.853   1.869  1.00  0.00    -0.347 N 
HETATM   17  C11 UNL     1      16.093   8.105   3.169  1.00  0.00     0.153 C 
HETATM   18  C14 UNL     1      14.032   8.310   1.913  1.00  0.00     0.153 C 
HETATM   19  C12 UNL     1      15.351   7.242   4.167  1.00  0.00     0.252 C 
HETATM   20  N3  UNL     1      13.953   7.531   4.171  1.00  0.00    -0.072 N 
HETATM   21  C13 UNL     1      13.316   7.401   2.894  1.00  0.00     0.252 C 
ATOM     22  H32 UNL     1      13.474   6.961   4.868  1.00  0.00     0.277 HD
ATOM     23  H31 UNL     1      13.784   8.459   4.559  1.00  0.00     0.277 HD
ENDBRANCH  11  14
ENDBRANCH  10  11
ENDBRANCH   6  10
ENDBRANCH   4   6
TORSDOF 7
ENDMDL
MODEL 4
REMARK VINA RESULT: -6.547933218      2.411      3.563
REMARK  7 active torsions:
REMARK  status: ('A' for Active; 'I' for Inactive)
REMARK    1  A    between atoms: N1_4  and  C4_6 
REMARK    2  A    between atoms: C4_6  and  C5_7 
REMARK    3  A    between atoms: C4_6  and  C8_10 
REMARK    4  A    between atoms: C5_7  and  C6_8 
REMARK    5  A    between atoms: C8_10  and  C9_11 
REMARK    6  A    between atoms: C9_11  and  O1_12 
REMARK    7  A    between atoms: C9_11  and  C10_14 
REMARK       I    between atoms: C10_14  and  N2_16 
ROOT
HETATM    1  C1  UNL     1       8.654   9.937  -0.881  1.00  0.00     0.018 C 
HETATM    2  C2  UNL     1       8.768   9.881   0.315  1.00  0.00    -0.073 C 
HETATM    3  C3  UNL     1       8.922   9.817   1.761  1.00  0.00     0.148 C 
HETATM    4  N1  UNL     1       9.881   9.131   2.227  1.00  0.00    -0.387 N 
ATOM      5  H1  UNL     1      10.506   8.652   1.578  1.00  0.00     0.159 HD
ENDROOT
BRANCH   4   6
HETATM    6  C4  UNL     1      10.118   9.004   3.643  1.00  0.00     0.087 C 
BRANCH   6   7
HETATM    7  C5  UNL     1       9.162   8.012   4.236  1.00  0.00     0.051 C 
BRANCH   7   8
HETATM    8  C6  UNL     1       8.416   8.574   5.385  1.00  0.00    -0.035 C 
HETATM    9  C7  UNL     1       8.107   9.871   5.408  1.00  0.00     0.007 C 
ENDBRANCH   7   8
ENDBRANCH   6   7
BRANCH   6  10
HETATM   10  C8  UNL     1      11.521   8.602   3.974  1.00  0.00     0.066 C 
BRANCH  10  11
HETATM   11  C9  UNL     1      12.278   8.060   2.747  1.00  0.00     0.212 C 
BRANCH  11  12
HETATM   12  O1  UNL     1      12.153   6.688   2.776  1.00  0.00    -0.386 OA
ATOM     13  H1  UNL     1      11.228   6.499   2.876  1.00  0.00     0.210 HD
ENDBRANCH  11  12
BRANCH  11  14
HETATM   14  C10 UNL     1      13.647   8.591   2.764  1.00  0.00     0.248 C 
HETATM   15  O2  UNL     1      13.867   9.471   1.838  1.00  0.00    -0.270 OA
HETATM   16  N2  UNL     1      14.720   8.306   3.590  1.00  0.00    -0.347 N 
HETATM   17  C11 UNL     1      16.016   9.021   3.378  1.00  0.00     0.153 C 
HETATM   18  C14 UNL     1      14.816   7.371   4.683  1.00  0.00     0.153 C 
HETATM   19  C12 UNL     1      16.984   7.932   2.966  1.00  0.00     0.252 C 
HETATM   20  N3  UNL     1      17.033   6.883   3.934  1.00  0.00    -0.072 N 
HETATM   21  C13 UNL     1      15.765   6.281   4.220  1.00  0.00     0.252 C 
ATOM     22  H32 UNL     1      17.709   6.173   3.654  1.00  0.00     0.277 HD
ATOM     23  H31 UNL     1      17.471   7.213   4.793  1.00  0.00     0.277 HD
ENDBRANCH  11  14
ENDBRANCH  10  11
ENDBRANCH   6  10
ENDBRANCH   4   6
TORSDOF 7
ENDMDL
MODEL 5
REMARK VINA RESULT: -6.546607843      5.179      7.908
REMARK  7 active torsions:
REMARK  status: ('A' for Active; 'I' for Inactive)
REMARK    1  A    between atoms: N1_4  and  C4_6 
REMARK    2  A    between atoms: C4_6  and  C5_7 
REMARK    3  A    between atoms: C4_6  and  C8_10 
REMARK    4  A    between atoms: C5_7  and  C6_8 
REMARK    5  A    between atoms: C8_10  and  C9_11 
REMARK    6  A    between atoms: C9_11  and  O1_12 
REMARK    7  A    between atoms: C9_11  and  C10_14 
REMARK       I    between atoms: C10_14  and  N2_16 
ROOT
HETATM    1  C1  UNL     1      12.164  12.087   0.236  1.00  0.00     0.018 C 
HETATM    2  C2  UNL     1      13.106  11.399  -0.054  1.00  0.00    -0.073 C 
HETATM    3  C3  UNL     1      14.242  10.564  -0.420  1.00  0.00     0.148 C 
HETATM    4  N1  UNL     1      14.012   9.494  -1.060  1.00  0.00    -0.387 N 
ATOM      5  H1  UNL     1      13.047   9.258  -1.294  1.00  0.00     0.159 HD
ENDROOT
BRANCH   4   6
HETATM    6  C4  UNL     1      15.066   8.601  -1.468  1.00  0.00     0.087 C 
BRANCH   6   7
HETATM    7  C5  UNL     1      15.883   9.236  -2.555  1.00  0.00     0.051 C 
BRANCH   7   8
HETATM    8  C6  UNL     1      16.201   8.283  -3.643  1.00  0.00    -0.035 C 
HETATM    9  C7  UNL     1      15.854   8.568  -4.899  1.00  0.00     0.007 C 
ENDBRANCH   7   8
ENDBRANCH   6   7
BRANCH   6  10
HETATM   10  C8  UNL     1      15.967   8.195  -0.344  1.00  0.00     0.066 C 
BRANCH  10  11
HETATM   11  C9  UNL     1      15.463   6.933   0.380  1.00  0.00     0.212 C 
BRANCH  11  12
HETATM   12  O1  UNL     1      14.235   6.624  -0.166  1.00  0.00    -0.386 OA
ATOM     13  H1  UNL     1      14.385   5.939  -0.806  1.00  0.00     0.210 HD
ENDBRANCH  11  12
BRANCH  11  14
HETATM   14  C10 UNL     1      15.490   7.175   1.828  1.00  0.00     0.248 C 
HETATM   15  O2  UNL     1      16.571   6.745   2.400  1.00  0.00    -0.270 OA
HETATM   16  N2  UNL     1      14.564   7.775   2.665  1.00  0.00    -0.347 N 
HETATM   17  C11 UNL     1      14.869   7.896   4.124  1.00  0.00     0.153 C 
HETATM   18  C14 UNL     1      13.269   8.326   2.357  1.00  0.00     0.153 C 
HETATM   19  C12 UNL     1      13.829   7.029   4.800  1.00  0.00     0.252 C 
HETATM   20  N3  UNL     1      12.505   7.418   4.432  1.00  0.00    -0.072 N 
HETATM   21  C13 UNL     1      12.255   7.413   3.021  1.00  0.00     0.252 C 
ATOM     22  H32 UNL     1      11.817   6.842   4.917  1.00  0.00     0.277 HD
ATOM     23  H31 UNL     1      12.280   8.330   4.829  1.00  0.00     0.277 HD
ENDBRANCH  11  14
ENDBRANCH  10  11
ENDBRANCH   6  10
ENDBRANCH   4   6
TORSDOF 7
ENDMDL
